# generated using pymatgen
data_V79Zn79O256
_symmetry_space_group_name_H-M   'P 1'
_cell_length_a   16.85738073
_cell_length_b   16.85069435
_cell_length_c   16.85749398
_cell_angle_alpha   89.90854792
_cell_angle_beta   90.09289392
_cell_angle_gamma   90.03996352
_symmetry_Int_Tables_number   1
_chemical_formula_structural   V79Zn79O256
_chemical_formula_sum   'V79 Zn79 O256'
_cell_volume   4788.50208862
_cell_formula_units_Z   1
loop_
 _symmetry_equiv_pos_site_id
 _symmetry_equiv_pos_as_xyz
  1  'x, y, z'
loop_
 _atom_site_type_symbol
 _atom_site_label
 _atom_site_symmetry_multiplicity
 _atom_site_fract_x
 _atom_site_fract_y
 _atom_site_fract_z
 _atom_site_occupancy
  V  V0  1  0.12562714  0.37480664  0.25174623  1
  V  V1  1  0.00080173  0.37151572  0.37777923  1
  V  V2  1  0.37759309  0.13928672  0.25474821  1
  V  V3  1  0.86952492  0.11997194  0.24736520  1
  V  V4  1  0.23664808  0.88553287  0.61688901  1
  V  V5  1  0.50349208  0.37814708  0.36616962  1
  V  V6  1  0.00038650  0.11741705  0.11994676  1
  V  V7  1  0.88322583  -0.00788806  0.88041791  1
  V  V8  1  0.61584901  0.74331835  0.88113379  1
  V  V9  1  0.26137526  -0.00193153  0.25701371  1
  V  V10  1  0.48653196  -0.01087167  0.48603967  1
  V  V11  1  0.75666094  0.62749087  0.87061775  1
  V  V12  1  0.24634083  0.50037899  0.74457626  1
  V  V13  1  0.88548223  0.13097198  0.73666260  1
  V  V14  1  0.00306757  0.24857281  0.25280111  1
  V  V15  1  0.62997569  0.12966807  0.49822493  1
  V  V16  1  0.50582598  0.50659637  0.00251439  1
  V  V17  1  0.00423132  0.73682078  0.75608480  1
  V  V18  1  0.24023198  0.25671702  0.49254103  1
  V  V19  1  0.24312272  0.00711146  0.74948132  1
  V  V20  1  0.50593988  0.37570320  0.86711486  1
  V  V21  1  0.00467588  0.00338863  0.51444162  1
  V  V22  1  0.23591970  0.63142962  0.87915604  1
  V  V23  1  0.37563244  0.37347812  0.00691690  1
  V  V24  1  0.62800480  0.50542634  0.12584109  1
  V  V25  1  0.00996879  0.50653416  0.51369664  1
  V  V26  1  0.75022907  0.12814076  0.37415254  1
  V  V27  1  0.74236733  0.36791405  0.10936348  1
  V  V28  1  0.87974721  0.87201870  0.00180422  1
  V  V29  1  0.88052650  0.73565129  0.63018472  1
  V  V30  1  0.48954737  0.11834467  0.11615864  1
  V  V31  1  0.61812701  0.86458523  0.74960719  1
  V  V32  1  0.25221936  0.51941008  0.25497648  1
  V  V33  1  0.24180320  0.12671004  0.37425602  1
  V  V34  1  0.38139395  0.63254698  0.75087273  1
  V  V35  1  0.12524422  0.12208618  0.00029387  1
  V  V36  1  0.24166396  0.73876702  0.50474024  1
  V  V37  1  -0.00607363  0.36947180  0.89004799  1
  V  V38  1  0.24148129  0.74995746  -0.00222099  1
  V  V39  1  0.74002811  0.36672078  0.64623677  1
  V  V40  1  0.38057761  0.74365103  0.12648771  1
  V  V41  1  0.62383558  0.11317901  0.00612073  1
  V  V42  1  0.87024973  0.49989069  0.38003468  1
  V  V43  1  0.37565167  0.13100467  0.75188911  1
  V  V44  1  0.25313209  0.87596463  0.12630804  1
  V  V45  1  0.49928939  0.12788135  0.62275712  1
  V  V46  1  0.74814698  0.12676551  0.88086352  1
  V  V47  1  0.74974012  0.86017107  0.62205071  1
  V  V48  1  0.37316999  0.50432640  0.87746706  1
  V  V49  1  0.87074494  0.86928237  0.50146408  1
  V  V50  1  0.50207442  0.74589205  0.25643313  1
  V  V51  1  0.25116059  0.24976979  0.00024203  1
  V  V52  1  0.00187669  0.73759522  0.24887072  1
  V  V53  1  0.86465075  0.35811803  0.50887537  1
  V  V54  1  0.37828988  0.51767847  0.37503047  1
  V  V55  1  0.87275942  -0.00234354  0.37178908  1
  V  V56  1  0.24966666  0.37607931  0.12775870  1
  V  V57  1  0.12634038  0.24941851  0.87447726  1
  V  V58  1  0.75166846  -0.00269424  0.75079899  1
  V  V59  1  0.12508720  0.87564017  0.25635074  1
  V  V60  1  0.74597808  0.48591843  0.25386829  1
  V  V61  1  0.87163063  0.50152491  0.86842889  1
  V  V62  1  0.87266432  0.25527023  0.11077209  1
  V  V63  1  0.86735250  0.61934734  0.25286886  1
  V  V64  1  0.62531292  -0.00251289  0.62097523  1
  V  V65  1  0.38280644  0.88288078  -0.00068046  1
  V  V66  1  -0.00017230  0.51593502  0.00843234  1
  V  V67  1  0.64346956  0.74806832  0.37646869  1
  V  V68  1  0.62803541  0.88644091  0.25181559  1
  V  V69  1  0.87379364  0.73944164  0.12612795  1
  V  V70  1  0.74855084  0.88937522  0.12862303  1
  V  V71  1  0.64670834  0.62349133  0.49647420  1
  V  V72  1  0.37521213  0.76418438  0.62839821  1
  V  V73  1  0.11589115  0.37745380  0.74570644  1
  V  V74  1  0.62520129  0.25404508  0.36698388  1
  V  V75  1  0.49301658  0.62689303  0.60317209  1
  V  V76  1  0.38170508  0.00516958  0.87494665  1
  V  V77  1  0.12543730  0.73429847  0.38309791  1
  V  V78  1  0.38466919  0.37851933  0.49888360  1
  Zn  Zn79  1  0.01912475  0.86556044  0.88315839  1
  Zn  Zn80  1  0.50731408  0.62764452  0.12259082  1
  Zn  Zn81  1  0.63707053  0.25812853  0.87405882  1
  Zn  Zn82  1  0.50099121  0.87630410  0.87376475  1
  Zn  Zn83  1  0.50464492  0.26180732  0.23389255  1
  Zn  Zn84  1  -0.00014801  0.87319628  0.37828626  1
  Zn  Zn85  1  0.11908340  0.12571870  0.50156132  1
  Zn  Zn86  1  0.62490556  0.49258541  0.62999033  1
  Zn  Zn87  1  0.51075739  0.26368316  0.74042315  1
  Zn  Zn88  1  0.12332827  0.87176691  0.75526125  1
  Zn  Zn89  1  0.24417130  0.37999737  0.62017363  1
  Zn  Zn90  1  0.74246461  0.73637577  0.00965360  1
  Zn  Zn91  1  0.12155780  -0.00465620  0.12141148  1
  Zn  Zn92  1  0.12007872  0.52403388  0.12207554  1
  Zn  Zn93  1  0.37448041  0.25507206  0.62419424  1
  Zn  Zn94  1  0.18909860  0.18846610  0.18547644  1
  Zn  Zn95  1  0.19079290  0.19698496  0.68609819  1
  Zn  Zn96  1  0.18757481  0.69193777  0.18521694  1
  Zn  Zn97  1  0.18344926  0.68505881  0.68821568  1
  Zn  Zn98  1  0.68624173  0.18516161  0.18383186  1
  Zn  Zn99  1  0.69095956  0.19174047  0.69263419  1
  Zn  Zn100  1  0.69138476  0.68636948  0.19256743  1
  Zn  Zn101  1  0.66851893  0.66017605  0.70022677  1
  Zn  Zn102  1  0.31413334  0.31765882  0.31519490  1
  Zn  Zn103  1  0.31256567  0.31442617  0.81358149  1
  Zn  Zn104  1  0.31423233  0.81062223  0.31813656  1
  Zn  Zn105  1  0.30613977  0.82003585  0.81201798  1
  Zn  Zn106  1  0.81551627  0.30926735  0.31096800  1
  Zn  Zn107  1  0.82024730  0.30818842  0.81093876  1
  Zn  Zn108  1  0.81272544  0.81283491  0.30936185  1
  Zn  Zn109  1  0.81074884  0.80642708  0.80983010  1
  Zn  Zn110  1  0.18888847  0.44349736  0.43306087  1
  Zn  Zn111  1  0.18151519  0.44066091  0.93844554  1
  Zn  Zn112  1  0.18778846  0.93947725  0.43742501  1
  Zn  Zn113  1  0.19615918  0.94203865  0.93401906  1
  Zn  Zn114  1  0.68539786  0.43873209  0.44615805  1
  Zn  Zn115  1  0.68886099  0.44317492  0.93677461  1
  Zn  Zn116  1  0.68709716  0.93879106  0.43542497  1
  Zn  Zn117  1  0.68924497  0.93311226  0.93957871  1
  Zn  Zn118  1  0.31016870  0.06280241  0.06483575  1
  Zn  Zn119  1  0.31255626  0.06632159  0.55987063  1
  Zn  Zn120  1  0.30882611  0.56263979  0.06380394  1
  Zn  Zn121  1  0.31193928  0.56445866  0.56102541  1
  Zn  Zn122  1  0.81564963  0.06300977  0.05996583  1
  Zn  Zn123  1  0.81360010  0.05963353  0.55899583  1
  Zn  Zn124  1  0.81417058  0.55634076  0.05468322  1
  Zn  Zn125  1  0.81713769  0.54739876  0.57071750  1
  Zn  Zn126  1  0.43530815  0.44621624  0.18941866  1
  Zn  Zn127  1  0.43589838  0.44941041  0.68356534  1
  Zn  Zn128  1  0.44440210  0.93622061  0.19063448  1
  Zn  Zn129  1  0.43661483  0.94383334  0.68580594  1
  Zn  Zn130  1  0.93366426  0.43563181  0.18532895  1
  Zn  Zn131  1  0.93219536  0.43337099  0.68625022  1
  Zn  Zn132  1  0.93838045  0.93178234  0.18806931  1
  Zn  Zn133  1  0.93989079  0.92954210  0.69233604  1
  Zn  Zn134  1  0.06059892  0.05900278  0.31299634  1
  Zn  Zn135  1  0.06206247  0.06252284  0.81646493  1
  Zn  Zn136  1  0.06044388  0.55657501  0.31481836  1
  Zn  Zn137  1  0.05675943  0.55708953  0.81331645  1
  Zn  Zn138  1  0.55820067  0.06483917  0.31125511  1
  Zn  Zn139  1  0.56360548  0.06376152  0.80779904  1
  Zn  Zn140  1  0.56588971  0.56484086  0.31390422  1
  Zn  Zn141  1  0.56240479  0.56167214  0.81067143  1
  Zn  Zn142  1  0.43927393  0.18987783  0.43568819  1
  Zn  Zn143  1  0.43961039  0.18981956  0.93871142  1
  Zn  Zn144  1  0.42616813  0.71883143  0.43102477  1
  Zn  Zn145  1  0.43255218  0.69159556  0.94130014  1
  Zn  Zn146  1  0.93795256  0.18405117  0.43777884  1
  Zn  Zn147  1  0.93930213  0.18210803  0.93094137  1
  Zn  Zn148  1  0.93628210  0.68423097  0.43991505  1
  Zn  Zn149  1  0.93525830  0.68747236  0.93821515  1
  Zn  Zn150  1  0.06558355  0.31335657  0.06780327  1
  Zn  Zn151  1  0.05778109  0.31252363  0.56272343  1
  Zn  Zn152  1  0.06086715  0.80334399  0.06768401  1
  Zn  Zn153  1  0.05666280  0.81299910  0.56751287  1
  Zn  Zn154  1  0.56647721  0.30111644  0.05384758  1
  Zn  Zn155  1  0.56824479  0.31263014  0.55750522  1
  Zn  Zn156  1  0.56543299  0.81846867  0.06509526  1
  Zn  Zn157  1  0.56237820  0.80825356  0.55798405  1
  O  O158  1  0.11626807  0.12579420  0.11914859  1
  O  O159  1  0.09892739  0.16028364  0.62009856  1
  O  O160  1  0.11198302  0.63492586  0.13265058  1
  O  O161  1  0.14073521  0.61488314  0.61427255  1
  O  O162  1  0.62278033  0.12193142  0.11107243  1
  O  O163  1  0.62186002  0.11707578  0.61764507  1
  O  O164  1  0.63256418  0.60955199  0.12498639  1
  O  O165  1  0.60434220  0.65072868  0.59939965  1
  O  O166  1  0.38371135  0.38239243  0.38279979  1
  O  O167  1  0.37887080  0.38986568  0.88326137  1
  O  O168  1  0.39088486  0.82194331  0.39555877  1
  O  O169  1  0.37633148  0.88292694  0.88165730  1
  O  O170  1  0.88320068  0.37810342  0.38067682  1
  O  O171  1  0.88815190  0.37964935  0.87378888  1
  O  O172  1  0.87194612  0.88020275  0.38208275  1
  O  O173  1  0.86645237  0.88239203  0.88428063  1
  O  O174  1  0.24851738  0.00954947  0.36679746  1
  O  O175  1  0.26410859  0.00201144  0.85593516  1
  O  O176  1  0.26087303  0.49989423  0.36303218  1
  O  O177  1  0.25666119  0.51088247  0.87352314  1
  O  O178  1  0.76259434  0.01088276  0.37750333  1
  O  O179  1  0.75700243  0.00237501  0.86677256  1
  O  O180  1  0.75990162  0.48783612  0.36759182  1
  O  O181  1  0.76329734  0.50578156  0.87813602  1
  O  O182  1  0.24938956  0.49564995  0.13895541  1
  O  O183  1  0.25802359  0.49881803  0.63991384  1
  O  O184  1  0.24860909  0.98850373  0.13535039  1
  O  O185  1  0.25504738  0.99218440  0.63084489  1
  O  O186  1  0.74682901  0.48439932  0.12840926  1
  O  O187  1  0.74751249  0.47410498  0.61820627  1
  O  O188  1  0.75778578  0.98856987  0.12637821  1
  O  O189  1  0.74094934  0.99190007  0.63107624  1
  O  O190  1  0.00410061  0.36904898  0.25524437  1
  O  O191  1  0.01254044  0.37960701  0.75978016  1
  O  O192  1  0.00957741  0.86293979  0.25173296  1
  O  O193  1  0.00450167  0.86466777  0.75675242  1
  O  O194  1  0.49254099  0.37501645  0.25998155  1
  O  O195  1  0.49238187  0.38428030  0.76265269  1
  O  O196  1  0.52068756  0.86301476  0.23995770  1
  O  O197  1  0.51442580  0.88085044  0.74733234  1
  O  O198  1  0.48546389  0.12882004  0.24627765  1
  O  O199  1  0.49159865  0.12301591  0.73688024  1
  O  O200  1  0.50954349  0.64062001  0.24260982  1
  O  O201  1  0.48347082  0.62871978  0.74446183  1
  O  O202  1  0.99428134  0.13113195  0.24220679  1
  O  O203  1  0.98349808  0.11123036  0.75250710  1
  O  O204  1  0.98777431  0.63075776  0.25710075  1
  O  O205  1  1.00074958  0.63548834  0.75361665  1
  O  O206  1  0.36584943  0.26440491  -0.00680961  1
  O  O207  1  0.36936064  0.26519502  0.49750345  1
  O  O208  1  0.36738450  0.76230521  0.00730119  1
  O  O209  1  0.35169206  0.74632632  0.52099758  1
  O  O210  1  0.87791894  0.24226820  0.01249425  1
  O  O211  1  0.88076286  0.25923032  0.49892086  1
  O  O212  1  0.87166333  0.75372895  0.01148037  1
  O  O213  1  0.88333249  0.76077214  0.51123572  1
  O  O214  1  0.13810300  0.25709242  0.49393767  1
  O  O215  1  0.13176755  0.24658958  0.99541962  1
  O  O216  1  0.12591767  0.75517661  0.49129751  1
  O  O217  1  0.14209200  0.75686286  1.00412456  1
  O  O218  1  0.61892149  0.23629997  0.48540645  1
  O  O219  1  0.61815901  0.22563945  0.98350479  1
  O  O220  1  0.62613148  0.74756158  0.48170323  1
  O  O221  1  0.62788886  0.76050878  0.98561101  1
  O  O222  1  0.50810626  0.23027905  0.12471408  1
  O  O223  1  0.49985350  0.23978551  0.62159877  1
  O  O224  1  0.49701200  0.74859098  0.12815278  1
  O  O225  1  0.48027864  0.74844977  0.62077834  1
  O  O226  1  0.98904858  0.24457322  0.13145789  1
  O  O227  1  1.03618915  0.21290314  0.62374534  1
  O  O228  1  0.98583940  0.75361333  0.13893361  1
  O  O229  1  0.98749171  0.74959060  0.63428324  1
  O  O230  1  -0.00574179  0.25766638  0.36326312  1
  O  O231  1  0.00742564  0.26201851  0.87933077  1
  O  O232  1  0.00939073  0.75095964  0.36956065  1
  O  O233  1  -0.01207664  0.75183178  0.86113125  1
  O  O234  1  0.50704436  0.25938936  0.36892316  1
  O  O235  1  0.49111906  0.27281080  0.87453862  1
  O  O236  1  0.51745352  0.74569783  0.35869021  1
  O  O237  1  0.51131408  0.75087467  0.87831314  1
  O  O238  1  0.24565122  0.13700395  0.49389639  1
  O  O239  1  0.24242258  0.14145176  1.01163843  1
  O  O240  1  0.23885399  0.63881157  0.51048099  1
  O  O241  1  0.25531749  0.63262792  0.98723441  1
  O  O242  1  0.73996507  0.11884228  0.48957615  1
  O  O243  1  0.74135074  0.11746465  0.98956637  1
  O  O244  1  0.74434509  0.62503297  0.50951028  1
  O  O245  1  0.75102090  0.62177756  0.98525284  1
  O  O246  1  0.25509541  0.37523435  0.00833774  1
  O  O247  1  0.25757698  0.36806104  0.49441149  1
  O  O248  1  0.25895730  0.87094226  0.00999149  1
  O  O249  1  0.24473051  0.87241396  0.51332732  1
  O  O250  1  0.74996064  0.37385571  0.01003889  1
  O  O251  1  0.76436727  0.36850518  0.49247635  1
  O  O252  1  0.75851135  0.87129295  0.01482720  1
  O  O253  1  0.75893461  0.88100435  0.50962734  1
  O  O254  1  0.13807864  0.49462683  0.25187251  1
  O  O255  1  0.13373293  0.48656071  0.76047930  1
  O  O256  1  0.13381296  0.98938786  0.24853463  1
  O  O257  1  0.14210118  1.01300906  0.75054156  1
  O  O258  1  0.63594841  0.50030926  0.24317427  1
  O  O259  1  0.63077321  0.55116908  0.72529896  1
  O  O260  1  0.62422886  0.98561189  0.25810687  1
  O  O261  1  0.63300312  0.99289166  0.73974626  1
  O  O262  1  0.36534368  0.00485269  0.24758262  1
  O  O263  1  0.36945725  0.01124530  0.75347570  1
  O  O264  1  0.36265190  0.50214969  0.26063474  1
  O  O265  1  0.36679850  0.50987262  0.75981853  1
  O  O266  1  0.88279283  0.00946875  0.25720734  1
  O  O267  1  0.86595726  -0.00272638  0.76087541  1
  O  O268  1  0.86922605  0.50148047  0.25787146  1
  O  O269  1  0.88433078  0.49625513  0.76888618  1
  O  O270  1  0.11469841  0.37923883  0.36168567  1
  O  O271  1  0.11347820  0.36888324  0.87216400  1
  O  O272  1  0.12509173  0.86911507  0.36594486  1
  O  O273  1  0.13049341  0.88061302  0.87030037  1
  O  O274  1  0.61447304  0.36767439  0.38517695  1
  O  O275  1  0.60962081  0.37960389  0.87938484  1
  O  O276  1  0.63824936  0.86250585  0.36150602  1
  O  O277  1  0.62558884  0.86547863  0.86632571  1
  O  O278  1  0.38207595  0.12382218  0.13396143  1
  O  O279  1  0.38544705  0.12791717  0.63000832  1
  O  O280  1  0.37535591  0.64052022  0.11981477  1
  O  O281  1  0.37881951  0.63424058  0.63105696  1
  O  O282  1  0.87983921  0.13232077  0.12888577  1
  O  O283  1  0.86834461  0.11809067  0.63762384  1
  O  O284  1  0.86888867  0.63088553  0.13514148  1
  O  O285  1  0.86823543  0.63758461  0.62055557  1
  O  O286  1  0.24406417  0.26653737  0.11584419  1
  O  O287  1  0.25456111  0.25663563  0.60715926  1
  O  O288  1  0.26041905  0.76013153  0.12202715  1
  O  O289  1  0.24886726  0.76507983  0.62065437  1
  O  O290  1  0.76045000  0.25735470  0.12757413  1
  O  O291  1  0.74310134  0.26527219  0.62354321  1
  O  O292  1  0.76100107  0.75531762  0.12819089  1
  O  O293  1  0.75861609  0.75813126  0.63271824  1
  O  O294  1  0.25518217  0.24370246  0.38483577  1
  O  O295  1  0.23997990  0.26111303  0.88938304  1
  O  O296  1  0.23553097  0.75155147  0.39169987  1
  O  O297  1  0.25614433  0.73869537  0.88126319  1
  O  O298  1  0.74405091  0.23706502  0.36984362  1
  O  O299  1  0.75798412  0.22951555  0.87336325  1
  O  O300  1  0.74309283  0.74153149  0.36762072  1
  O  O301  1  0.74690265  0.73979888  0.88109794  1
  O  O302  1  0.01075223  0.13135949  0.00968373  1
  O  O303  1  -0.00052023  0.10875650  0.49400926  1
  O  O304  1  0.00004344  0.61586930  -0.00130855  1
  O  O305  1  -0.00396853  0.60540740  0.49547967  1
  O  O306  1  0.50251273  0.12040743  0.00856611  1
  O  O307  1  0.50780460  0.11720552  0.50520123  1
  O  O308  1  0.49323622  0.61070437  0.00118673  1
  O  O309  1  0.48318773  0.63871378  0.50419610  1
  O  O310  1  0.48928514  0.37510736  0.49026982  1
  O  O311  1  0.49166155  0.38390123  0.99305840  1
  O  O312  1  0.50500238  0.89089221  0.50499447  1
  O  O313  1  0.48609725  0.87723066  1.00202640  1
  O  O314  1  0.99007782  0.37629718  0.49389304  1
  O  O315  1  1.00106865  0.37587427  0.99177041  1
  O  O316  1  0.98989235  0.88478962  0.49917621  1
  O  O317  1  0.98539316  0.86570093  1.00179302  1
  O  O318  1  0.48647099  0.49569505  0.36643312  1
  O  O319  1  0.49418378  0.49608275  0.88117898  1
  O  O320  1  0.50100479  1.00234595  0.38660853  1
  O  O321  1  0.48696554  0.99831203  0.86732207  1
  O  O322  1  0.98999117  0.48669664  0.37830389  1
  O  O323  1  0.99398188  0.48946697  0.88575053  1
  O  O324  1  0.98681548  0.99596569  0.37919734  1
  O  O325  1  0.98473842  0.99287170  0.87411193  1
  O  O326  1  0.00035529  0.01188985  0.12867519  1
  O  O327  1  -0.00572231  -0.00398370  0.61332045  1
  O  O328  1  -0.00448414  0.49623374  0.11258589  1
  O  O329  1  -0.00511486  0.49338246  0.61292867  1
  O  O330  1  0.50243281  0.01911457  0.13523228  1
  O  O331  1  0.51014322  0.00858963  0.61850428  1
  O  O332  1  0.50966590  0.50143180  0.12080791  1
  O  O333  1  0.49752230  0.52365939  0.61921886  1
  O  O334  1  0.24286473  0.37663708  0.24463414  1
  O  O335  1  0.24362137  0.38567128  0.75117640  1
  O  O336  1  0.24810959  0.87727663  0.24800211  1
  O  O337  1  0.24797861  0.89109584  0.73884650  1
  O  O338  1  0.75676974  0.38135712  0.23979776  1
  O  O339  1  0.74983676  0.37067009  0.74695209  1
  O  O340  1  0.74383569  0.87355604  0.23834499  1
  O  O341  1  0.74197209  0.88073558  0.74238729  1
  O  O342  1  0.25838334  0.12029539  0.25232886  1
  O  O343  1  0.26199804  0.11737924  0.73425693  1
  O  O344  1  0.25066468  0.61816628  0.25186106  1
  O  O345  1  0.25677015  0.62034467  0.76347904  1
  O  O346  1  0.76154282  0.12642171  0.25455819  1
  O  O347  1  0.75871740  0.11266682  0.75935163  1
  O  O348  1  0.76068507  0.60799725  0.24838710  1
  O  O349  1  0.75730556  0.63053494  0.76980861  1
  O  O350  1  0.36587462  0.12973134  0.36072579  1
  O  O351  1  0.38211927  0.12222616  0.86246438  1
  O  O352  1  0.37932175  0.61583819  0.38224630  1
  O  O353  1  0.37232600  0.61816358  0.87047274  1
  O  O354  1  0.86876935  0.11959510  0.36669664  1
  O  O355  1  0.86639429  0.10825085  0.87508485  1
  O  O356  1  0.87646544  0.61024224  0.36847991  1
  O  O357  1  0.86825041  0.61303286  0.87599572  1
  O  O358  1  0.13184732  0.38363754  0.13627470  1
  O  O359  1  0.12331567  0.37009612  0.64202670  1
  O  O360  1  0.13558392  0.87021412  0.13707095  1
  O  O361  1  0.13440163  0.87729209  0.62975166  1
  O  O362  1  0.63717382  0.37475057  0.12095910  1
  O  O363  1  0.63067608  0.37645960  0.62574923  1
  O  O364  1  0.64073711  0.87350471  0.13414018  1
  O  O365  1  0.63103078  0.87712539  0.62855026  1
  O  O366  1  0.11293088  0.25941116  0.24144873  1
  O  O367  1  0.13741116  0.26597026  0.76409162  1
  O  O368  1  0.12175830  0.75507103  0.26443920  1
  O  O369  1  0.10979735  0.75010240  0.74570117  1
  O  O370  1  0.62333721  0.24352207  0.26227542  1
  O  O371  1  0.61690373  0.23481181  0.76516230  1
  O  O372  1  0.62289986  0.75439277  0.25724631  1
  O  O373  1  0.63086131  0.75636784  0.76248420  1
  O  O374  1  0.37281979  0.24116431  0.24739730  1
  O  O375  1  0.37811256  0.24461527  0.74653714  1
  O  O376  1  0.39365404  0.76000907  0.23978979  1
  O  O377  1  0.36019302  0.74481158  0.73708486  1
  O  O378  1  0.88420578  0.23892933  0.24181591  1
  O  O379  1  0.87919348  0.23035526  0.75394682  1
  O  O380  1  0.88117685  0.73936212  0.24816949  1
  O  O381  1  0.88250234  0.75284998  0.73649450  1
  O  O382  1  0.36402959  0.49007563  0.48531863  1
  O  O383  1  0.38049245  0.49409066  0.99498428  1
  O  O384  1  0.38742220  1.00380037  0.50191146  1
  O  O385  1  0.36206178  0.99446768  0.98766862  1
  O  O386  1  0.88327531  0.48602476  0.49277712  1
  O  O387  1  0.88990719  0.49826797  0.98786730  1
  O  O388  1  0.88268722  0.99137287  0.49240819  1
  O  O389  1  0.87124394  0.99010484  0.98860129  1
  O  O390  1  0.13915245  0.01742205  0.00234689  1
  O  O391  1  0.10968298  0.00066420  0.49802983  1
  O  O392  1  0.10782602  0.49689030  0.00327826  1
  O  O393  1  0.10909810  0.48759223  0.49709415  1
  O  O394  1  0.62256902  0.01172002  -0.00807359  1
  O  O395  1  0.62057105  0.00724915  0.50641819  1
  O  O396  1  0.61477809  0.49327139  0.01070066  1
  O  O397  1  0.62582339  0.52060254  0.50390668  1
  O  O398  1  0.36580127  0.38452420  0.11618155  1
  O  O399  1  0.37663607  0.38117342  0.60811160  1
  O  O400  1  0.36956725  0.87216287  0.12039822  1
  O  O401  1  0.36507535  0.86760517  0.63176570  1
  O  O402  1  0.86716380  0.36027496  0.12475373  1
  O  O403  1  0.86429078  0.37058758  0.61550177  1
  O  O404  1  0.86623845  0.86672106  0.12288604  1
  O  O405  1  0.86596326  0.86957134  0.61845754  1
  O  O406  1  0.13704148  0.12540766  0.37277584  1
  O  O407  1  0.11663186  0.13897242  0.88555887  1
  O  O408  1  0.12234043  0.63563585  0.37463135  1
  O  O409  1  0.13825996  0.62231085  0.87221898  1
  O  O410  1  0.63185735  0.12968401  0.37815776  1
  O  O411  1  0.64149085  0.11479133  0.87725753  1
  O  O412  1  0.62699812  0.63306604  0.38719397  1
  O  O413  1  0.63243723  0.63800563  0.87391774  1
