# generated using pymatgen
data_V79Zn79O256
_symmetry_space_group_name_H-M   'P 1'
_cell_length_a   16.87460561
_cell_length_b   16.87070367
_cell_length_c   16.87167782
_cell_angle_alpha   90.03573921
_cell_angle_beta   89.94780564
_cell_angle_gamma   89.90534821
_symmetry_Int_Tables_number   1
_chemical_formula_structural   V79Zn79O256
_chemical_formula_sum   'V79 Zn79 O256'
_cell_volume   4803.12892603
_cell_formula_units_Z   1
loop_
 _symmetry_equiv_pos_site_id
 _symmetry_equiv_pos_as_xyz
  1  'x, y, z'
loop_
 _atom_site_type_symbol
 _atom_site_label
 _atom_site_symmetry_multiplicity
 _atom_site_fract_x
 _atom_site_fract_y
 _atom_site_fract_z
 _atom_site_occupancy
  V  V0  1  0.74818138  -0.00316490  0.74296089  1
  V  V1  1  0.26573187  0.50863316  0.25116305  1
  V  V2  1  0.50734942  0.86933264  0.37663808  1
  V  V3  1  0.07317510  0.42922927  0.69750716  1
  V  V4  1  0.73803483  0.50159135  0.74848210  1
  V  V5  1  0.87045690  0.37594241  0.00453566  1
  V  V6  1  0.38443995  0.74908395  0.12813591  1
  V  V7  1  -0.00028872  0.00089141  0.49564909  1
  V  V8  1  0.00228609  0.00067484  0.00210889  1
  V  V9  1  0.24957051  0.86872169  0.61855618  1
  V  V10  1  0.25953720  0.37861914  0.62673876  1
  V  V11  1  0.38424301  0.24699801  0.11712338  1
  V  V12  1  0.88792649  0.73781554  0.12853393  1
  V  V13  1  0.25128587  0.49689317  0.74537798  1
  V  V14  1  0.87498444  0.63101986  0.73788386  1
  V  V15  1  0.62866425  0.51252964  0.11732776  1
  V  V16  1  0.10849830  0.87466868  0.24183878  1
  V  V17  1  0.63203129  0.37144341  0.24672354  1
  V  V18  1  0.73962200  0.37673577  0.62419058  1
  V  V19  1  0.12439956  0.75771556  0.37699814  1
  V  V20  1  0.25565694  0.12522342  0.87303870  1
  V  V21  1  0.00241956  0.24433124  0.74455853  1
  V  V22  1  0.74271955  0.62701736  0.87859924  1
  V  V23  1  0.24421941  -0.00668019  0.23819922  1
  V  V24  1  0.49909459  0.35874077  0.88324489  1
  V  V25  1  0.87234524  0.25446985  0.12509028  1
  V  V26  1  0.25464748  0.00288548  0.74964713  1
  V  V27  1  0.12154297  0.00613266  0.62366525  1
  V  V28  1  0.38143371  -0.01682155  0.88936504  1
  V  V29  1  0.62297393  0.10652261  0.01733423  1
  V  V30  1  0.74953407  0.50951546  0.25810631  1
  V  V31  1  0.12584339  0.12758604  0.00200917  1
  V  V32  1  0.49688070  0.51529116  0.00185634  1
  V  V33  1  0.49983391  0.24364806  0.25781583  1
  V  V34  1  0.74859069  0.87775870  0.12825140  1
  V  V35  1  0.87598407  -0.00612570  0.37497715  1
  V  V36  1  0.87650879  0.12512509  0.25331438  1
  V  V37  1  0.62474427  0.87648871  0.25128170  1
  V  V38  1  0.00401336  0.12455204  0.12607091  1
  V  V39  1  0.61156014  0.87355642  0.74650893  1
  V  V40  1  -0.00192755  0.87493961  0.87535792  1
  V  V41  1  0.74542079  0.74508903  0.00390505  1
  V  V42  1  0.74404787  0.12822617  0.87533956  1
  V  V43  1  0.25438231  0.12489393  0.37214709  1
  V  V44  1  0.24934776  0.62355202  0.88508683  1
  V  V45  1  0.88308442  0.62069011  0.26104355  1
  V  V46  1  0.00237210  0.51474453  0.00185789  1
  V  V47  1  0.12268790  0.12716201  0.50073080  1
  V  V48  1  0.87505452  0.25092376  0.62462267  1
  V  V49  1  0.12682957  0.25329965  0.86981592  1
  V  V50  1  0.72972934  0.74863979  0.49423010  1
  V  V51  1  0.38002227  0.74725940  0.62614721  1
  V  V52  1  0.74467751  0.24834623  0.49099147  1
  V  V53  1  0.12593289  0.74759643  0.88372868  1
  V  V54  1  0.48601563  0.49080426  0.50405335  1
  V  V55  1  0.48853533  0.38278529  0.37245762  1
  V  V56  1  0.38391199  0.24004681  0.63055731  1
  V  V57  1  0.50995604  0.61909900  0.62747514  1
  V  V58  1  0.62345768  0.61240574  0.48228108  1
  V  V59  1  0.12229269  0.37817235  0.25159342  1
  V  V60  1  0.25790237  0.77090603  0.00623678  1
  V  V61  1  0.12384675  0.51494155  0.11896637  1
  V  V62  1  0.87320310  0.50176956  0.87377767  1
  V  V63  1  0.37336078  0.87265104  0.49810633  1
  V  V64  1  0.25716195  0.25992338  0.49896884  1
  V  V65  1  0.12460649  0.87365520  0.75007213  1
  V  V66  1  0.25487673  0.37279071  0.11708651  1
  V  V67  1  0.74377768  0.25072135  -0.00260026  1
  V  V68  1  0.62039653  0.12378431  0.49786448  1
  V  V69  1  0.00371025  0.37582037  0.87817014  1
  V  V70  1  0.61951204  0.35616173  0.75644449  1
  V  V71  1  0.88095250  0.38041955  0.48889969  1
  V  V72  1  0.37783319  0.62424888  0.74882567  1
  V  V73  1  0.88176618  0.86087271  0.50379041  1
  V  V74  1  0.49988502  0.73431052  0.25374291  1
  V  V75  1  0.61212841  0.75653694  0.87413005  1
  V  V76  1  0.50477791  -0.00127678  0.50642742  1
  V  V77  1  0.12189161  0.26027613  0.37437257  1
  V  V78  1  0.87614678  0.12429909  0.74843706  1
  Zn  Zn79  1  0.12221355  0.63376791  0.51171144  1
  Zn  Zn80  1  0.26212331  0.25629778  -0.00886465  1
  Zn  Zn81  1  0.40367391  0.12574824  0.75266426  1
  Zn  Zn82  1  0.87701614  0.87360578  0.00538235  1
  Zn  Zn83  1  0.74427475  0.00490559  0.24730395  1
  Zn  Zn84  1  0.37576347  -0.00175786  0.37163656  1
  Zn  Zn85  1  -0.00551104  0.74690210  0.73922695  1
  Zn  Zn86  1  0.38006652  0.11928079  0.24507427  1
  Zn  Zn87  1  0.75422432  0.86531270  0.62893414  1
  Zn  Zn88  1  0.37444180  0.49240666  0.88316276  1
  Zn  Zn89  1  -0.00195059  0.25947650  0.25498344  1
  Zn  Zn90  1  0.87416202  -0.00150665  0.87461236  1
  Zn  Zn91  1  0.56584891  0.05896627  0.67341090  1
  Zn  Zn92  1  0.74616548  0.12674461  0.37116318  1
  Zn  Zn93  1  0.25342830  0.62962335  0.38014534  1
  Zn  Zn94  1  0.19089038  0.19032405  0.18875835  1
  Zn  Zn95  1  0.19387819  0.19035172  0.68578952  1
  Zn  Zn96  1  0.19233784  0.69607911  0.19209694  1
  Zn  Zn97  1  0.18944819  0.68819950  0.69170010  1
  Zn  Zn98  1  0.68782914  0.19027168  0.18547688  1
  Zn  Zn99  1  0.68936045  0.18602397  0.68254214  1
  Zn  Zn100  1  0.68634025  0.68919517  0.19302699  1
  Zn  Zn101  1  0.69014560  0.69401009  0.68472015  1
  Zn  Zn102  1  0.31069682  0.31692681  0.30673507  1
  Zn  Zn103  1  0.31886641  0.31345288  0.80757796  1
  Zn  Zn104  1  0.31160872  0.81057082  0.31110931  1
  Zn  Zn105  1  0.31164077  0.80794608  0.81100951  1
  Zn  Zn106  1  0.81365337  0.31694466  0.31171231  1
  Zn  Zn107  1  0.81173820  0.31436187  0.81325646  1
  Zn  Zn108  1  0.81736610  0.80612023  0.31488908  1
  Zn  Zn109  1  0.80941828  0.81008729  0.81224436  1
  Zn  Zn110  1  0.19404910  0.45686599  0.44394488  1
  Zn  Zn111  1  0.18817379  0.44194745  0.93729143  1
  Zn  Zn112  1  0.18792780  0.93719950  0.42980967  1
  Zn  Zn113  1  0.18688675  0.94242997  0.93917793  1
  Zn  Zn114  1  0.68311114  0.43007058  0.43203375  1
  Zn  Zn115  1  0.68219379  0.43642846  0.93615877  1
  Zn  Zn116  1  0.69216895  0.93724969  0.43827154  1
  Zn  Zn117  1  0.69106452  0.93426869  0.93408728  1
  Zn  Zn118  1  0.31301553  0.06509252  0.06338737  1
  Zn  Zn119  1  0.31332362  0.06230865  0.55921452  1
  Zn  Zn120  1  0.31903646  0.56355472  0.07052786  1
  Zn  Zn121  1  0.31300728  0.57429189  0.53929889  1
  Zn  Zn122  1  0.81540773  0.06356868  0.06179461  1
  Zn  Zn123  1  0.81034058  0.06350219  0.56173256  1
  Zn  Zn124  1  0.80858445  0.55947776  0.06634401  1
  Zn  Zn125  1  0.80186169  0.56621759  0.55086754  1
  Zn  Zn126  1  0.44314696  0.43488119  0.17860033  1
  Zn  Zn127  1  0.43922603  0.43556429  0.68940902  1
  Zn  Zn128  1  0.42302629  0.92218109  0.19216362  1
  Zn  Zn129  1  0.43181162  0.93606488  0.69232454  1
  Zn  Zn130  1  0.93991891  0.44538236  0.18815807  1
  Zn  Zn131  1  0.89723916  0.47673967  0.64365628  1
  Zn  Zn132  1  0.93441301  0.93599288  0.18507063  1
  Zn  Zn133  1  0.93796702  0.93876103  0.68364413  1
  Zn  Zn134  1  0.06555873  0.06341142  0.31311560  1
  Zn  Zn135  1  0.06446584  0.06344298  0.81430083  1
  Zn  Zn136  1  0.08286402  0.58542283  0.29262487  1
  Zn  Zn137  1  0.05984568  0.56941544  0.81676022  1
  Zn  Zn138  1  0.56447656  0.05740588  0.31855054  1
  Zn  Zn139  1  0.56372318  0.05464075  0.83987288  1
  Zn  Zn140  1  0.56007124  0.55169250  0.31105037  1
  Zn  Zn141  1  0.55963750  0.56143061  0.81845730  1
  Zn  Zn142  1  0.43925276  0.18987035  0.43798243  1
  Zn  Zn143  1  0.44554054  0.17617802  0.94070202  1
  Zn  Zn144  1  0.43504469  0.68574189  0.43582963  1
  Zn  Zn145  1  0.43181353  0.68839085  0.93848531  1
  Zn  Zn146  1  0.93782954  0.18986270  0.43910939  1
  Zn  Zn147  1  0.93547126  0.18852624  0.93491926  1
  Zn  Zn148  1  0.94828395  0.68442535  0.42888111  1
  Zn  Zn149  1  0.92993745  0.69212000  0.93223936  1
  Zn  Zn150  1  0.06347892  0.31455125  0.06335653  1
  Zn  Zn151  1  0.06427539  0.31166596  0.55795194  1
  Zn  Zn152  1  0.06796821  0.81192848  0.06489934  1
  Zn  Zn153  1  0.06701669  0.81396403  0.55498954  1
  Zn  Zn154  1  0.56431779  0.31701528  0.06614948  1
  Zn  Zn155  1  0.56355788  0.31040587  0.56077020  1
  Zn  Zn156  1  0.56794090  0.80580428  0.06873533  1
  Zn  Zn157  1  0.56080267  0.81038398  0.56797847  1
  O  O158  1  0.11540671  0.13859739  0.11434368  1
  O  O159  1  0.13665892  0.11618380  0.61429118  1
  O  O160  1  0.12979829  0.61304355  0.12772662  1
  O  O161  1  0.09525447  0.66186360  0.62881281  1
  O  O162  1  0.63658447  0.11643847  0.11770256  1
  O  O163  1  0.63168671  0.12246937  0.60723558  1
  O  O164  1  0.62437525  0.61219397  0.12971053  1
  O  O165  1  0.61213217  0.63089718  0.62205444  1
  O  O166  1  0.38877743  0.37290128  0.37174048  1
  O  O167  1  0.39340473  0.37703762  0.86647963  1
  O  O168  1  0.38408574  0.87331378  0.38458499  1
  O  O169  1  0.36607639  0.88441865  0.87142588  1
  O  O170  1  0.87076706  0.37927366  0.38877703  1
  O  O171  1  0.88608595  0.37958343  0.88048734  1
  O  O172  1  0.87287621  0.88468229  0.38819588  1
  O  O173  1  0.88860514  0.87158525  0.87631568  1
  O  O174  1  0.25288631  0.01182535  0.36917850  1
  O  O175  1  0.25130082  0.00791121  0.86649720  1
  O  O176  1  0.25414803  0.49372848  0.35117625  1
  O  O177  1  0.25167360  0.50530341  0.86579670  1
  O  O178  1  0.76350857  0.00302959  0.37159894  1
  O  O179  1  0.75524067  0.00762185  0.86394193  1
  O  O180  1  0.74425330  0.49661846  0.35716087  1
  O  O181  1  0.75106357  0.50820969  0.87030671  1
  O  O182  1  0.24132378  0.49067103  0.12468252  1
  O  O183  1  0.25693791  0.49135138  0.63760057  1
  O  O184  1  0.24672552  1.01113545  0.13957713  1
  O  O185  1  0.24325919  0.99302270  0.63171574  1
  O  O186  1  0.73555246  0.49790899  0.13171946  1
  O  O187  1  0.75635808  0.48708421  0.63510739  1
  O  O188  1  0.76579652  0.98102010  0.12894263  1
  O  O189  1  0.75315628  0.99934365  0.63918292  1
  O  O190  1  0.01602939  0.37887523  0.24548548  1
  O  O191  1  0.00962711  0.36819313  0.75903362  1
  O  O192  1  0.00879435  0.88449680  0.25411845  1
  O  O193  1  0.00803717  0.87177382  0.75382625  1
  O  O194  1  0.50396747  0.37193660  0.25884735  1
  O  O195  1  0.51534439  0.37866887  0.75714760  1
  O  O196  1  0.50622337  0.87181263  0.26020002  1
  O  O197  1  0.51184484  0.87694424  0.74916053  1
  O  O198  1  0.50362627  0.13992247  0.25931032  1
  O  O199  1  0.51436174  0.11309164  0.75644126  1
  O  O200  1  0.50256930  0.63565595  0.25773154  1
  O  O201  1  0.48771985  0.61246730  0.74094013  1
  O  O202  1  0.99438658  0.12715719  0.24212456  1
  O  O203  1  0.99046974  0.13340848  0.75646110  1
  O  O204  1  0.98214870  0.60414404  0.24813541  1
  O  O205  1  0.97850132  0.62523114  0.75993625  1
  O  O206  1  0.38009122  0.24589813  0.01270714  1
  O  O207  1  0.36244365  0.24550598  0.50851144  1
  O  O208  1  0.36547957  0.75353671  0.00581793  1
  O  O209  1  0.38087161  0.76582962  0.51189098  1
  O  O210  1  0.87079711  0.25692499  0.00559629  1
  O  O211  1  0.86574958  0.25474165  0.50655063  1
  O  O212  1  0.86517277  0.74991609  0.01143030  1
  O  O213  1  0.88809417  0.76058547  0.49690832  1
  O  O214  1  0.13501306  0.24523293  0.49482864  1
  O  O215  1  0.12256413  0.24266555  0.98616093  1
  O  O216  1  0.13139108  0.75139172  0.48533808  1
  O  O217  1  0.13761768  0.75546521  0.98998505  1
  O  O218  1  0.63170451  0.23697216  0.50220589  1
  O  O219  1  0.64205694  0.24567318  1.01361483  1
  O  O220  1  0.62536498  0.74289272  0.49522816  1
  O  O221  1  0.63357267  0.75832310  0.98720722  1
  O  O222  1  0.48867664  0.26015455  0.13714394  1
  O  O223  1  0.48218432  0.25301629  0.61526056  1
  O  O224  1  0.49362371  0.75053954  0.13553658  1
  O  O225  1  0.48855655  0.73671805  0.62289056  1
  O  O226  1  0.99030593  0.24157543  0.12407250  1
  O  O227  1  0.99272960  0.25629408  0.63720615  1
  O  O228  1  0.98633945  0.74748801  0.11673860  1
  O  O229  1  1.03645668  0.72750445  0.62956968  1
  O  O230  1  0.01692457  0.24679124  0.37495747  1
  O  O231  1  0.00466662  0.25767073  0.86560119  1
  O  O232  1  0.02199041  0.74613982  0.36959967  1
  O  O233  1  0.00893878  0.75840419  0.87428121  1
  O  O234  1  0.49843741  0.26193218  0.36426925  1
  O  O235  1  0.49811219  0.25921662  0.87911106  1
  O  O236  1  0.49286527  0.75586108  0.36457647  1
  O  O237  1  0.51343810  0.74828432  0.88099980  1
  O  O238  1  0.24215254  0.13269291  0.49163760  1
  O  O239  1  0.24152121  0.13060937  0.99015228  1
  O  O240  1  0.20671199  0.55900824  0.50098464  1
  O  O241  1  0.25573053  0.62112991  0.98586975  1
  O  O242  1  0.74278017  0.13170409  0.49715057  1
  O  O243  1  0.74926108  0.13145324  0.99491900  1
  O  O244  1  0.73107119  0.63406297  0.49954525  1
  O  O245  1  0.75227631  0.63236165  0.99078875  1
  O  O246  1  0.24652919  0.37351312  0.01158548  1
  O  O247  1  0.24080357  0.36890000  0.51151832  1
  O  O248  1  0.24817402  0.86974072  0.00033489  1
  O  O249  1  0.25954951  0.88663311  0.51023194  1
  O  O250  1  0.76397212  0.36845702  -0.01091571  1
  O  O251  1  0.75055231  0.36733618  0.50598833  1
  O  O252  1  0.75364352  0.86621186  0.01179654  1
  O  O253  1  0.75977320  0.86512490  0.50311390  1
  O  O254  1  0.13327783  0.49545647  0.23408561  1
  O  O255  1  0.12991606  0.49805465  0.75234664  1
  O  O256  1  0.13528693  0.99035698  0.25817711  1
  O  O257  1  0.13049438  0.99358192  0.74379386  1
  O  O258  1  0.63199369  0.49471856  0.24021149  1
  O  O259  1  0.63579776  0.49713991  0.75436769  1
  O  O260  1  0.62767946  0.98409107  0.25393475  1
  O  O261  1  0.63166334  0.98673024  0.75526810  1
  O  O262  1  0.36469051  0.00260892  0.25095777  1
  O  O263  1  0.36448169  0.00366678  0.75829053  1
  O  O264  1  0.36419380  0.49809208  0.23262195  1
  O  O265  1  0.36731767  0.50783940  0.75213013  1
  O  O266  1  0.87659906  0.00877765  0.25838234  1
  O  O267  1  0.87146027  0.00980768  0.74881248  1
  O  O268  1  0.85864133  0.50735487  0.23989408  1
  O  O269  1  0.86040874  0.50744407  0.75703837  1
  O  O270  1  0.13919078  0.36866980  0.36571786  1
  O  O271  1  0.11583518  0.36559987  0.88270015  1
  O  O272  1  0.12908464  0.86666525  0.36512244  1
  O  O273  1  0.11785496  0.87216206  0.86871708  1
  O  O274  1  0.61166563  0.38118478  0.35511727  1
  O  O275  1  0.61792611  0.37239697  0.86392457  1
  O  O276  1  0.61570425  0.87415145  0.37067691  1
  O  O277  1  0.62817810  0.86464616  0.86559675  1
  O  O278  1  0.37050433  0.14234936  0.12884795  1
  O  O279  1  0.37037763  0.13482985  0.62695188  1
  O  O280  1  0.36903371  0.64702581  0.12412727  1
  O  O281  1  0.37871053  0.63004867  0.62732137  1
  O  O282  1  0.88351730  0.13274629  0.13308202  1
  O  O283  1  0.86745312  0.13926179  0.63575270  1
  O  O284  1  0.87058913  0.63391041  0.12992255  1
  O  O285  1  0.87119107  0.60947551  0.63802115  1
  O  O286  1  0.25955195  0.26011354  0.12370879  1
  O  O287  1  0.25598403  0.25883406  0.61787533  1
  O  O288  1  0.24958204  0.74743140  0.10692088  1
  O  O289  1  0.25787431  0.76164803  0.62795634  1
  O  O290  1  0.76649756  0.24722801  0.11658983  1
  O  O291  1  0.75580356  0.25750821  0.61608004  1
  O  O292  1  0.75277695  0.75413560  0.11819533  1
  O  O293  1  0.75072306  0.74842845  0.60331337  1
  O  O294  1  0.24536016  0.24666726  0.38046315  1
  O  O295  1  0.24481447  0.24468763  0.87176190  1
  O  O296  1  0.23853708  0.74610326  0.36424632  1
  O  O297  1  0.24678373  0.74472630  0.88698879  1
  O  O298  1  0.75439782  0.24976567  0.38695694  1
  O  O299  1  0.75806434  0.24086427  0.88505566  1
  O  O300  1  0.75738351  0.75240086  0.39635093  1
  O  O301  1  0.74681572  0.74459696  0.88600486  1
  O  O302  1  0.00493659  0.12141897  0.00376700  1
  O  O303  1  0.01438018  0.12028235  0.49902747  1
  O  O304  1  -0.00571873  0.61332064  -0.01099684  1
  O  O305  1  0.00706121  0.60224622  0.49006696  1
  O  O306  1  0.52383042  0.12419741  0.00177712  1
  O  O307  1  0.51104042  0.11658921  0.49424291  1
  O  O308  1  0.50243998  0.61480800  -0.00525138  1
  O  O309  1  0.50828594  0.61061677  0.50525399  1
  O  O310  1  0.51368696  0.38461683  0.48608386  1
  O  O311  1  0.50898547  0.37804339  0.98603321  1
  O  O312  1  0.49642606  0.87833927  0.49530360  1
  O  O313  1  0.50151945  0.90617519  1.03531119  1
  O  O314  1  0.97897838  0.36205067  0.50457593  1
  O  O315  1  0.99187493  0.38048973  0.99209464  1
  O  O316  1  0.99073825  0.88650948  0.50330558  1
  O  O317  1  1.00396300  0.88376401  0.99287770  1
  O  O318  1  0.49530919  0.49167145  0.38575432  1
  O  O319  1  0.50209534  0.49343253  0.88994130  1
  O  O320  1  0.49662080  0.98762072  0.38577706  1
  O  O321  1  0.48160508  0.99245923  0.88381388  1
  O  O322  1  1.01429994  0.53116725  0.43538884  1
  O  O323  1  0.99756082  0.49203933  0.88160139  1
  O  O324  1  0.99263630  1.00683926  0.38688080  1
  O  O325  1  1.00034853  0.99129240  0.88080327  1
  O  O326  1  -0.00616767  0.01350746  0.11524055  1
  O  O327  1  0.01414556  -0.00064344  0.61602198  1
  O  O328  1  0.01523838  0.49724300  0.11550684  1
  O  O329  1  0.01168099  0.48366816  0.64218021  1
  O  O330  1  0.49547048  -0.04254365  0.09098454  1
  O  O331  1  0.49534375  -0.00814740  0.61190652  1
  O  O332  1  0.51147378  0.49636859  0.11071566  1
  O  O333  1  0.50030915  0.50336775  0.61330511  1
  O  O334  1  0.24318300  0.38384863  0.23624070  1
  O  O335  1  0.25049335  0.38456790  0.74376330  1
  O  O336  1  0.24989431  0.89117751  0.25087463  1
  O  O337  1  0.24280318  0.88379831  0.74178372  1
  O  O338  1  0.73696795  0.37979149  0.25094950  1
  O  O339  1  0.73874118  0.37935199  0.74748146  1
  O  O340  1  0.74425911  0.86746615  0.24259019  1
  O  O341  1  0.74812355  0.88294544  0.74920752  1
  O  O342  1  0.24765176  0.11836257  0.25936060  1
  O  O343  1  0.24459337  0.11489379  0.75906349  1
  O  O344  1  0.24913936  0.61143332  0.24709126  1
  O  O345  1  0.25623403  0.61579401  0.75379462  1
  O  O346  1  0.76327967  0.12611920  0.24965967  1
  O  O347  1  0.75532451  0.12010471  0.75634016  1
  O  O348  1  0.75405771  0.61440537  0.25050757  1
  O  O349  1  0.75513817  0.62098448  0.75496432  1
  O  O350  1  0.36486006  0.12642272  0.37318291  1
  O  O351  1  0.36522440  0.11918521  0.87425172  1
  O  O352  1  0.34955100  0.61763476  0.43519402  1
  O  O353  1  0.36653166  0.62498731  0.86365581  1
  O  O354  1  0.87736860  0.11994242  0.36602148  1
  O  O355  1  0.86724714  0.12512841  0.86372858  1
  O  O356  1  0.87481529  0.62696322  0.36067890  1
  O  O357  1  0.86004401  0.62200575  0.86655874  1
  O  O358  1  0.13693481  0.37583887  0.13077287  1
  O  O359  1  0.13225326  0.37325803  0.63206689  1
  O  O360  1  0.11993488  0.87779168  0.14053251  1
  O  O361  1  0.13163393  0.88385160  0.63038007  1
  O  O362  1  0.61767015  0.38699621  0.14135849  1
  O  O363  1  0.63249165  0.36849797  0.63744143  1
  O  O364  1  0.64135488  0.87058310  0.13326103  1
  O  O365  1  0.62926053  0.86638510  0.64223025  1
  O  O366  1  0.12620319  0.26012989  0.25758536  1
  O  O367  1  0.11738684  0.24073268  0.76015556  1
  O  O368  1  0.12694273  0.76717798  0.25269895  1
  O  O369  1  0.13274311  0.76444674  0.76455406  1
  O  O370  1  0.61272819  0.26174885  0.24033130  1
  O  O371  1  0.62852999  0.25731165  0.75139489  1
  O  O372  1  0.60893256  0.75996420  0.24467840  1
  O  O373  1  0.63115055  0.76163461  0.76268509  1
  O  O374  1  0.38760016  0.24927659  0.24354478  1
  O  O375  1  0.37163809  0.24073745  0.73625521  1
  O  O376  1  0.38928224  0.75246894  0.24278103  1
  O  O377  1  0.36816096  0.73660757  0.73945666  1
  O  O378  1  0.87810154  0.24594388  0.24399335  1
  O  O379  1  0.88158451  0.24551263  0.74509991  1
  O  O380  1  0.87164799  0.73404640  0.23969807  1
  O  O381  1  0.87131785  0.73687269  0.74497182  1
  O  O382  1  0.38890680  0.48270643  0.50865608  1
  O  O383  1  0.39118684  0.50092283  1.00342636  1
  O  O384  1  0.38388988  0.98952275  0.49922444  1
  O  O385  1  0.36104249  0.99874205  0.98751908  1
  O  O386  1  0.87217723  0.48102816  0.51956143  1
  O  O387  1  0.88081698  0.49370130  0.99658016  1
  O  O388  1  0.88327172  1.00030049  0.49421998  1
  O  O389  1  0.88861890  0.99757153  0.99579375  1
  O  O390  1  0.11472189  0.01572245  -0.00626692  1
  O  O391  1  0.12036377  0.00624316  0.50346729  1
  O  O392  1  0.11836086  0.49929163  0.01011335  1
  O  O393  1  0.06256884  0.47886022  0.46262579  1
  O  O394  1  0.63557036  0.00707876  0.00101133  1
  O  O395  1  0.61790567  0.00758579  0.49808345  1
  O  O396  1  0.62060237  0.49838398  0.01074397  1
  O  O397  1  0.62460775  0.50984572  0.49688555  1
  O  O398  1  0.36248437  0.36441552  0.12750718  1
  O  O399  1  0.36570433  0.36180273  0.63164050  1
  O  O400  1  0.36561821  0.85189287  0.12592577  1
  O  O401  1  0.36805309  0.86786127  0.62201325  1
  O  O402  1  0.88549684  0.36788550  0.11424969  1
  O  O403  1  0.86011258  0.36200754  0.62378080  1
  O  O404  1  0.86629845  0.85718206  0.12985709  1
  O  O405  1  0.87522241  0.87773057  0.60886331  1
  O  O406  1  0.13460671  0.13488377  0.38219971  1
  O  O407  1  0.13304669  0.13320128  0.88112740  1
  O  O408  1  0.13477017  0.63823086  0.37320373  1
  O  O409  1  0.13608312  0.63804447  0.86655526  1
  O  O410  1  0.62990637  0.12072743  0.38963916  1
  O  O411  1  0.64115252  0.12269665  0.89044491  1
  O  O412  1  0.61705592  0.62261310  0.38427830  1
  O  O413  1  0.63507096  0.64079924  0.86462799  1
