# generated using pymatgen
data_V79Zn79O256
_symmetry_space_group_name_H-M   'P 1'
_cell_length_a   16.87431620
_cell_length_b   16.87585445
_cell_length_c   16.89995186
_cell_angle_alpha   90.06899105
_cell_angle_beta   89.96087062
_cell_angle_gamma   89.83271592
_symmetry_Int_Tables_number   1
_chemical_formula_structural   V79Zn79O256
_chemical_formula_sum   'V79 Zn79 O256'
_cell_volume   4812.54887713
_cell_formula_units_Z   1
loop_
 _symmetry_equiv_pos_site_id
 _symmetry_equiv_pos_as_xyz
  1  'x, y, z'
loop_
 _atom_site_type_symbol
 _atom_site_label
 _atom_site_symmetry_multiplicity
 _atom_site_fract_x
 _atom_site_fract_y
 _atom_site_fract_z
 _atom_site_occupancy
  V  V0  1  0.12509787  0.36727415  0.24839894  1
  V  V1  1  0.74876309  0.87450303  0.62515619  1
  V  V2  1  0.37154662  0.87358977  0.50354265  1
  V  V3  1  0.00339734  0.50420791  0.50371748  1
  V  V4  1  -0.01030137  0.88856081  0.87607648  1
  V  V5  1  0.25270189  0.50909006  0.26162644  1
  V  V6  1  0.63033160  0.49736976  0.62400393  1
  V  V7  1  0.74467257  0.12436587  0.37797600  1
  V  V8  1  0.50171582  0.12056561  0.63020704  1
  V  V9  1  0.24793707  0.75051616  0.51015745  1
  V  V10  1  0.75519992  0.62529293  0.85098284  1
  V  V11  1  0.62133157  0.62747857  0.50445447  1
  V  V12  1  0.25151862  0.74595097  -0.01132596  1
  V  V13  1  0.10379077  0.12337808  0.00238502  1
  V  V14  1  0.00921000  0.26103722  0.74421982  1
  V  V15  1  0.37451582  0.74109333  0.62578702  1
  V  V16  1  0.24808266  0.25190285  -0.00404234  1
  V  V17  1  0.87074702  0.28057886  0.12938334  1
  V  V18  1  0.00522218  0.87153054  0.37344518  1
  V  V19  1  0.88017286  0.73716752  0.62827817  1
  V  V20  1  0.12397362  0.00171923  0.62894695  1
  V  V21  1  0.75036667  0.49137994  0.25281321  1
  V  V22  1  0.87332210  -0.00050128  0.37355884  1
  V  V23  1  0.37574176  0.62263977  0.26362415  1
  V  V24  1  0.13864150  0.12224243  0.48761076  1
  V  V25  1  0.49496945  0.62612902  0.11451109  1
  V  V26  1  0.13300855  0.74690980  0.36862858  1
  V  V27  1  0.75167015  0.00366544  0.74594588  1
  V  V28  1  0.74530891  0.87475520  0.12470584  1
  V  V29  1  0.52171700  0.12733812  0.13176971  1
  V  V30  1  -0.01506812  0.49431189  0.00341065  1
  V  V31  1  0.87912520  0.49644333  0.38168970  1
  V  V32  1  0.37759896  0.24883977  0.62306589  1
  V  V33  1  0.62201055  0.24781216  0.36759160  1
  V  V34  1  0.50523489  -0.00861729  0.49887407  1
  V  V35  1  0.75035261  0.63150730  0.38254283  1
  V  V36  1  0.00139641  0.00398921  0.50607004  1
  V  V37  1  0.88358830  0.12695318  0.73762877  1
  V  V38  1  0.25078093  -0.00284013  0.75127333  1
  V  V39  1  0.74418897  -0.00073227  0.24888678  1
  V  V40  1  0.62560864  0.50652304  0.12274199  1
  V  V41  1  0.75702484  0.36135536  0.60359264  1
  V  V42  1  0.38032478  0.24252731  0.13451832  1
  V  V43  1  0.53007756  0.00544417  -0.00011787  1
  V  V44  1  0.25469747  0.87624074  0.13474163  1
  V  V45  1  0.62522027  0.37247102  0.24626997  1
  V  V46  1  0.10381318  -0.00667289  0.12351017  1
  V  V47  1  -0.00079310  0.73211690  0.75430554  1
  V  V48  1  0.36743109  0.89190021  -0.00789524  1
  V  V49  1  0.87039589  0.49829788  0.85112069  1
  V  V50  1  0.49906308  0.37455105  0.36982580  1
  V  V51  1  0.75333709  0.12800276  0.87895597  1
  V  V52  1  0.49548039  0.75082933  0.24949877  1
  V  V53  1  0.63611982  0.36823709  0.74525580  1
  V  V54  1  0.87684977  0.62884147  0.25334497  1
  V  V55  1  0.00937915  0.37009713  0.37430729  1
  V  V56  1  0.37752704  0.11781429  0.75866912  1
  V  V57  1  0.37933199  0.61872214  0.76626502  1
  V  V58  1  0.87187722  0.86891093  0.50368197  1
  V  V59  1  0.24491750  0.12295745  0.87871379  1
  V  V60  1  0.00339189  0.62756961  0.12210529  1
  V  V61  1  0.75173433  0.28515535  -0.00511802  1
  V  V62  1  0.50233049  0.74821067  0.74731115  1
  V  V63  1  0.62032066  0.87433510  0.25147050  1
  V  V64  1  0.13053030  0.50687766  0.12216277  1
  V  V65  1  0.25431207  0.49988629  0.75996134  1
  V  V66  1  0.62355152  0.12850737  0.50347276  1
  V  V67  1  0.73970247  0.73976827  -0.00016092  1
  V  V68  1  0.49857817  0.50145380  0.49874889  1
  V  V69  1  0.37182789  0.00009707  0.36866284  1
  V  V70  1  0.62709727  0.87808710  0.75496421  1
  V  V71  1  0.62114994  0.75268986  0.37917732  1
  V  V72  1  0.37506947  0.37793751  0.49573605  1
  V  V73  1  0.12550866  0.86816191  0.75545956  1
  V  V74  1  0.12670301  0.62734941  0.51100796  1
  V  V75  1  0.87489156  0.74930161  0.11921281  1
  V  V76  1  0.24430567  0.37575512  0.62855984  1
  V  V77  1  0.44441635  0.30379121  0.80696025  1
  V  V78  1  0.62318314  0.25006615  0.87338088  1
  Zn  Zn79  1  0.26005680  0.37906256  0.12206569  1
  Zn  Zn80  1  0.30258449  0.16126112  0.30957750  1
  Zn  Zn81  1  0.88824581  0.24039697  0.59635552  1
  Zn  Zn82  1  0.11868045  0.49881131  0.62902561  1
  Zn  Zn83  1  0.49577481  0.88330205  0.87223968  1
  Zn  Zn84  1  0.90452735  0.15091721  0.22644995  1
  Zn  Zn85  1  0.89042017  0.89508157  0.00757311  1
  Zn  Zn86  1  0.61632594  0.74385947  0.87989675  1
  Zn  Zn87  1  0.24813161  0.24731736  0.47615724  1
  Zn  Zn88  1  0.00053096  0.36499029  0.88312863  1
  Zn  Zn89  1  0.00985423  0.75630523  0.24525215  1
  Zn  Zn90  1  0.48375267  0.49716580  -0.03038422  1
  Zn  Zn91  1  0.23290488  0.00144951  0.25420187  1
  Zn  Zn92  1  0.38390437  0.37269353  -0.00981739  1
  Zn  Zn93  1  0.13446616  0.63144358  -0.02772931  1
  Zn  Zn94  1  0.18367212  0.18055733  0.17607794  1
  Zn  Zn95  1  0.18838594  0.18313566  0.67961830  1
  Zn  Zn96  1  0.19616343  0.69158574  0.18067872  1
  Zn  Zn97  1  0.18926990  0.68209169  0.69775690  1
  Zn  Zn98  1  0.71856817  0.18491686  0.17297218  1
  Zn  Zn99  1  0.68851461  0.18853483  0.68453227  1
  Zn  Zn100  1  0.68657091  0.68531539  0.19151091  1
  Zn  Zn101  1  0.68940067  0.69322694  0.68084309  1
  Zn  Zn102  1  0.31213079  0.32702216  0.30836737  1
  Zn  Zn103  1  0.17884769  0.31988905  0.81376522  1
  Zn  Zn104  1  0.31577096  0.81528418  0.31777388  1
  Zn  Zn105  1  0.31381483  0.81222667  0.81469596  1
  Zn  Zn106  1  0.82089131  0.30552720  0.42728672  1
  Zn  Zn107  1  0.81707659  0.31070350  0.80410678  1
  Zn  Zn108  1  0.81131459  0.81248644  0.31422941  1
  Zn  Zn109  1  0.81667026  0.81064972  0.81173622  1
  Zn  Zn110  1  0.18855417  0.43818857  0.43955463  1
  Zn  Zn111  1  0.18680919  0.44263385  0.94426343  1
  Zn  Zn112  1  0.19041822  0.93405552  0.43867792  1
  Zn  Zn113  1  0.18007346  0.93949674  0.93882850  1
  Zn  Zn114  1  0.68447659  0.44063656  0.43382293  1
  Zn  Zn115  1  0.66513234  0.45814492  0.91938106  1
  Zn  Zn116  1  0.68640395  0.93446608  0.43945104  1
  Zn  Zn117  1  0.73178315  0.95894777  0.95672571  1
  Zn  Zn118  1  0.30442230  0.06648525  0.07994729  1
  Zn  Zn119  1  0.31396966  0.05681064  0.56791617  1
  Zn  Zn120  1  0.32069390  0.56300756  0.06078837  1
  Zn  Zn121  1  0.31143923  0.56445193  0.56089973  1
  Zn  Zn122  1  0.82910816  0.07260636  0.06262964  1
  Zn  Zn123  1  0.81147189  0.05882734  0.56122876  1
  Zn  Zn124  1  0.80760283  0.55975928  0.06721575  1
  Zn  Zn125  1  0.80943631  0.55726867  0.56411254  1
  Zn  Zn126  1  0.43887557  0.43699390  0.17873463  1
  Zn  Zn127  1  0.44026504  0.44150268  0.68094102  1
  Zn  Zn128  1  0.44254728  0.94222170  0.17651444  1
  Zn  Zn129  1  0.43655110  0.93465467  0.68389852  1
  Zn  Zn130  1  0.93900990  0.43969993  0.19275642  1
  Zn  Zn131  1  0.93390399  0.43156494  0.68039254  1
  Zn  Zn132  1  0.93260912  0.93577609  0.19258358  1
  Zn  Zn133  1  0.93763086  0.93649037  0.69059535  1
  Zn  Zn134  1  0.06154892  0.06357469  0.30865374  1
  Zn  Zn135  1  0.06167582  0.06549741  0.81688361  1
  Zn  Zn136  1  0.06700680  0.56675848  0.31525486  1
  Zn  Zn137  1  0.08215592  0.51488286  0.83132741  1
  Zn  Zn138  1  0.55591440  0.05882948  0.31463059  1
  Zn  Zn139  1  0.56865335  0.05926841  0.81370817  1
  Zn  Zn140  1  0.56137264  0.56236156  0.31370239  1
  Zn  Zn141  1  0.56816200  0.56630769  0.80403415  1
  Zn  Zn142  1  0.43953552  0.18672926  0.43770550  1
  Zn  Zn143  1  0.43566119  0.17685741  0.94916553  1
  Zn  Zn144  1  0.43780878  0.68800101  0.43692465  1
  Zn  Zn145  1  0.42921511  0.70143339  0.94036324  1
  Zn  Zn146  1  0.95331652  0.17606209  0.41090230  1
  Zn  Zn147  1  0.92760891  0.19703117  0.93074653  1
  Zn  Zn148  1  0.94356815  0.68720333  0.44153849  1
  Zn  Zn149  1  0.94003437  0.68309258  0.93026738  1
  Zn  Zn150  1  0.05898921  0.30930281  0.07022749  1
  Zn  Zn151  1  0.06131880  0.30445203  0.55446106  1
  Zn  Zn152  1  0.06809237  0.81131015  0.05532595  1
  Zn  Zn153  1  0.06138753  0.81570999  0.56923449  1
  Zn  Zn154  1  0.56097213  0.31588844  0.05887498  1
  Zn  Zn155  1  0.56111679  0.30873218  0.56062855  1
  Zn  Zn156  1  0.55650960  0.81607978  0.06411045  1
  Zn  Zn157  1  0.56250718  0.81139712  0.56853596  1
  O  O158  1  0.11566827  0.11142909  0.11136195  1
  O  O159  1  0.12662357  0.10818047  0.61636867  1
  O  O160  1  0.11439426  0.62206907  0.13143516  1
  O  O161  1  0.12969820  0.62352992  0.61472043  1
  O  O162  1  0.62096246  0.13875756  0.12562751  1
  O  O163  1  0.61308317  0.13067226  0.61693680  1
  O  O164  1  0.61205440  0.61508914  0.13833102  1
  O  O165  1  0.63627808  0.61521460  0.61348783  1
  O  O166  1  0.38640367  0.37235287  0.38467922  1
  O  O167  1  0.38190348  0.35676692  0.86122966  1
  O  O168  1  0.37752019  0.88052053  0.39332431  1
  O  O169  1  0.37589337  0.88016257  0.88687310  1
  O  O170  1  0.89312347  0.38800924  0.37271043  1
  O  O171  1  0.87463941  0.39357939  0.86292394  1
  O  O172  1  0.87788594  0.87807583  0.38536790  1
  O  O173  1  0.88575056  0.87637148  0.87397698  1
  O  O174  1  0.26493859  -0.00997486  0.36964761  1
  O  O175  1  0.24178146  0.01147102  0.86415720  1
  O  O176  1  0.24727389  0.50300652  0.36030029  1
  O  O177  1  0.25544860  0.48953316  0.85825512  1
  O  O178  1  0.75379656  -0.00174952  0.36880546  1
  O  O179  1  0.74154773  0.01992571  0.85899189  1
  O  O180  1  0.75988864  0.50845646  0.37173646  1
  O  O181  1  0.75893859  0.51390040  0.86582656  1
  O  O182  1  0.24107698  0.50201440  0.12833106  1
  O  O183  1  0.25704046  0.48398887  0.62619170  1
  O  O184  1  0.23542747  0.98607163  0.12400081  1
  O  O185  1  0.24202000  1.00001859  0.64201427  1
  O  O186  1  0.73773782  0.51272292  0.14422059  1
  O  O187  1  0.73873317  0.48139210  0.61300424  1
  O  O188  1  0.75377521  0.98667079  0.14220479  1
  O  O189  1  0.75405247  0.98748244  0.63436013  1
  O  O190  1  0.01721022  0.38909754  0.25966153  1
  O  O191  1  -0.00012271  0.36404590  0.74720843  1
  O  O192  1  -0.00772922  0.87125672  0.26782416  1
  O  O193  1  0.00807248  0.87343096  0.75979408  1
  O  O194  1  0.50895499  0.38513025  0.26146093  1
  O  O195  1  0.50243200  0.36703368  0.74689784  1
  O  O196  1  0.50938039  0.86311787  0.23613060  1
  O  O197  1  0.50804664  0.87104509  0.74997179  1
  O  O198  1  0.50535450  0.11707807  0.23126877  1
  O  O199  1  0.49090634  0.11025242  0.74115115  1
  O  O200  1  0.48969190  0.62875331  0.24852645  1
  O  O201  1  0.49012559  0.63300172  0.75092431  1
  O  O202  1  0.97988678  0.13727581  0.30166589  1
  O  O203  1  0.98725223  0.12883435  0.75250861  1
  O  O204  1  0.99122597  0.62677551  0.24324616  1
  O  O205  1  1.00544704  0.63627823  0.74935236  1
  O  O206  1  0.36083576  0.25201704  0.00030413  1
  O  O207  1  0.37283515  0.25750422  0.50640683  1
  O  O208  1  0.36244624  0.76984280  0.00319770  1
  O  O209  1  0.36935434  0.75205027  0.50513589  1
  O  O210  1  0.85585354  0.26063425  -0.00324080  1
  O  O211  1  0.89286234  0.24100575  0.48375361  1
  O  O212  1  0.86909725  0.74545495  0.01398479  1
  O  O213  1  0.88511960  0.76002499  0.51251314  1
  O  O214  1  0.12810452  0.22717627  0.50027795  1
  O  O215  1  0.13591217  0.23507145  1.01694802  1
  O  O216  1  0.13016260  0.74551293  0.50178697  1
  O  O217  1  0.14219439  0.74621295  1.00030162  1
  O  O218  1  0.61815708  0.23600654  0.48822978  1
  O  O219  1  0.63671717  0.26237971  0.98170359  1
  O  O220  1  0.61437783  0.74012675  0.49234467  1
  O  O221  1  0.63590180  0.75453938  0.99849061  1
  O  O222  1  0.49274192  0.23806930  0.11554235  1
  O  O223  1  0.48770138  0.23630557  0.61719565  1
  O  O224  1  0.50909701  0.73529105  0.13708181  1
  O  O225  1  0.49064439  0.75314879  0.63866779  1
  O  O226  1  0.97038447  0.25488399  0.11460099  1
  O  O227  1  0.99948593  0.25377112  0.63659214  1
  O  O228  1  0.99393968  0.74491986  0.12599962  1
  O  O229  1  0.98883924  0.75391531  0.63588116  1
  O  O230  1  0.01191959  0.27328613  0.37430979  1
  O  O231  1  -0.00793168  0.25334815  0.85381389  1
  O  O232  1  0.01087516  0.75574260  0.37546884  1
  O  O233  1  -0.00746027  0.75534126  0.85814768  1
  O  O234  1  0.50980573  0.25964824  0.37656952  1
  O  O235  1  0.50401647  0.24489424  0.87200133  1
  O  O236  1  0.50993912  0.74477975  0.36321139  1
  O  O237  1  0.49859360  0.75730413  0.86300774  1
  O  O238  1  0.24255445  0.12241479  0.50579556  1
  O  O239  1  0.24967064  0.13309554  0.99262133  1
  O  O240  1  0.24150678  0.63670159  0.50059488  1
  O  O241  1  0.25600219  0.64294517  1.01069811  1
  O  O242  1  0.73140190  0.10691826  0.49153836  1
  O  O243  1  0.75017402  0.13151621  0.97824452  1
  O  O244  1  0.73909792  0.61838962  0.48909502  1
  O  O245  1  0.74888238  0.63859407  1.00763385  1
  O  O246  1  0.24440877  0.36002526  0.00137005  1
  O  O247  1  0.25964288  0.37235363  0.50520627  1
  O  O248  1  0.25550256  0.87256371  0.00074334  1
  O  O249  1  0.25773338  0.86245432  0.50241643  1
  O  O250  1  0.74431226  0.38201728  -0.02242909  1
  O  O251  1  0.75003803  0.37010798  0.49745735  1
  O  O252  1  0.75316973  0.85710311  0.01369182  1
  O  O253  1  0.76052915  0.88047326  0.51006146  1
  O  O254  1  0.13818339  0.50655710  0.24237616  1
  O  O255  1  0.15056371  0.50776240  0.73824034  1
  O  O256  1  0.11649558  1.00345027  0.23040063  1
  O  O257  1  0.12897329  0.99563142  0.74633560  1
  O  O258  1  0.63240964  0.49366578  0.25135673  1
  O  O259  1  0.61729471  0.48243476  0.73264166  1
  O  O260  1  0.63035858  0.98363795  0.26234761  1
  O  O261  1  0.63585747  0.98950836  0.74781580  1
  O  O262  1  0.38892094  -0.01346717  0.27022729  1
  O  O263  1  0.36492236  0.00645336  0.74492449  1
  O  O264  1  0.36287354  0.50796745  0.24427728  1
  O  O265  1  0.37372664  0.51212527  0.74400950  1
  O  O266  1  0.86262557  -0.00406658  0.26348298  1
  O  O267  1  0.86664987  0.01409678  0.74536497  1
  O  O268  1  0.87101192  0.51082955  0.26064638  1
  O  O269  1  0.88435693  0.50741133  0.75337957  1
  O  O270  1  0.12303344  0.38505727  0.35818340  1
  O  O271  1  0.11339167  0.39911433  0.86644664  1
  O  O272  1  0.11555357  0.86153428  0.38452473  1
  O  O273  1  0.11270850  0.87918809  0.86180924  1
  O  O274  1  0.61919339  0.36655646  0.36932379  1
  O  O275  1  0.63325177  0.36469170  0.85080109  1
  O  O276  1  0.63050160  0.86158915  0.36789734  1
  O  O277  1  0.62995278  0.86485089  0.85805859  1
  O  O278  1  0.38661026  0.13888497  0.11423727  1
  O  O279  1  0.37845293  0.13128996  0.63584851  1
  O  O280  1  0.39204322  0.62113549  0.13725018  1
  O  O281  1  0.37650722  0.63674540  0.62661190  1
  O  O282  1  0.83538645  0.14854546  0.13851999  1
  O  O283  1  0.87166298  0.12624141  0.63211808  1
  O  O284  1  0.88216423  0.62984051  0.13504791  1
  O  O285  1  0.87050714  0.63858316  0.61677225  1
  O  O286  1  0.26292958  0.24827392  0.11312307  1
  O  O287  1  0.26316365  0.26007480  0.62775812  1
  O  O288  1  0.24342583  0.77197548  0.11696290  1
  O  O289  1  0.25795017  0.74662024  0.61932097  1
  O  O290  1  0.74733353  0.27436941  0.10074907  1
  O  O291  1  0.75009125  0.25885635  0.61418472  1
  O  O292  1  0.75459410  0.75177508  0.12045821  1
  O  O293  1  0.76882899  0.76275211  0.63184978  1
  O  O294  1  0.25674561  0.24775435  0.36422275  1
  O  O295  1  0.23791409  0.24255860  0.88788562  1
  O  O296  1  0.23722180  0.75702866  0.38640095  1
  O  O297  1  0.25357996  0.74832955  0.88751956  1
  O  O298  1  0.73843244  0.23306109  0.37943092  1
  O  O299  1  0.74424196  0.24827609  0.87595536  1
  O  O300  1  0.73959005  0.73981925  0.37154590  1
  O  O301  1  0.76114980  0.73929315  0.88952648  1
  O  O302  1  0.00545487  0.13317691  -0.00934697  1
  O  O303  1  0.01544495  0.10730036  0.49006065  1
  O  O304  1  -0.00247544  0.61739575  0.01241085  1
  O  O305  1  0.01250179  0.61579897  0.49955207  1
  O  O306  1  0.51179353  0.11191077  0.00380262  1
  O  O307  1  0.50496554  0.11471020  0.50823282  1
  O  O308  1  0.49237764  0.63027448  0.01268748  1
  O  O309  1  0.51009638  0.61493431  0.49268032  1
  O  O310  1  0.49440311  0.37949459  0.49207972  1
  O  O311  1  0.49925845  0.38188074  0.99404151  1
  O  O312  1  0.49584356  0.88673743  0.50865499  1
  O  O313  1  0.48811959  0.89069326  1.00631254  1
  O  O314  1  1.02048026  0.38905303  0.48184089  1
  O  O315  1  1.00753994  0.39269721  1.00271003  1
  O  O316  1  0.99267383  0.88100490  0.49378204  1
  O  O317  1  0.99987325  0.86627576  0.98138492  1
  O  O318  1  0.50964025  0.48758324  0.38777055  1
  O  O319  1  0.55959947  0.50008735  0.89113648  1
  O  O320  1  0.48973496  1.00084284  0.39296753  1
  O  O321  1  0.51108929  0.99921413  0.89376864  1
  O  O322  1  0.99563237  0.50150270  0.38186944  1
  O  O323  1  0.98024559  0.50465207  0.89169757  1
  O  O324  1  0.99092616  0.98771458  0.38373925  1
  O  O325  1  0.99710140  0.98864174  0.87317825  1
  O  O326  1  0.00191787  -0.01055684  0.12021007  1
  O  O327  1  0.00629408  -0.00640219  0.61438876  1
  O  O328  1  0.00671867  0.50896276  0.11977328  1
  O  O329  1  0.00250626  0.48711527  0.60791031  1
  O  O330  1  0.50305565  0.01439907  0.11089086  1
  O  O331  1  0.49060448  0.01021308  0.61132655  1
  O  O332  1  0.51131671  0.51318038  0.12713940  1
  O  O333  1  0.51495987  0.49157348  0.60851592  1
  O  O334  1  0.24100932  0.39324726  0.24373418  1
  O  O335  1  0.25283372  0.38263713  0.73655489  1
  O  O336  1  0.25606638  0.87751445  0.23884793  1
  O  O337  1  0.23460893  0.88130932  0.76103919  1
  O  O338  1  0.73931445  0.38900711  0.25945023  1
  O  O339  1  0.73954240  0.36958647  0.73084368  1
  O  O340  1  0.74155848  0.87667767  0.24540547  1
  O  O341  1  0.74859769  0.88227405  0.74601920  1
  O  O342  1  0.25747620  0.10903130  0.22340802  1
  O  O343  1  0.25596970  0.11977853  0.75795591  1
  O  O344  1  0.26423384  0.61986111  0.24391606  1
  O  O345  1  0.26839624  0.61351069  0.74694851  1
  O  O346  1  0.73710203  0.11053969  0.26624475  1
  O  O347  1  0.75794125  0.12047553  0.74624629  1
  O  O348  1  0.75875542  0.61916574  0.26256309  1
  O  O349  1  0.76174089  0.63592480  0.75277562  1
  O  O350  1  0.37827885  0.10743273  0.37916173  1
  O  O351  1  0.36503289  0.13034372  0.86460762  1
  O  O352  1  0.37881156  0.61855323  0.36325750  1
  O  O353  1  0.38042154  0.62340485  0.86507622  1
  O  O354  1  0.85498365  0.10525686  0.38925064  1
  O  O355  1  0.85810806  0.13522016  0.85648883  1
  O  O356  1  0.87074440  0.62315083  0.37155173  1
  O  O357  1  0.86325361  0.61198887  0.88128211  1
  O  O358  1  0.12305887  0.39075001  0.13602692  1
  O  O359  1  0.14314991  0.37222309  0.61416735  1
  O  O360  1  0.13028416  0.88792634  0.11654215  1
  O  O361  1  0.11953531  0.88684868  0.64276178  1
  O  O362  1  0.61402457  0.39022295  0.13948027  1
  O  O363  1  0.63314050  0.37466007  0.62436469  1
  O  O364  1  0.63607595  0.86475206  0.13798590  1
  O  O365  1  0.64008445  0.86363428  0.63577435  1
  O  O366  1  0.13051671  0.26930838  0.23422393  1
  O  O367  1  0.11631721  0.24545002  0.74759791  1
  O  O368  1  0.12942302  0.74350780  0.26527546  1
  O  O369  1  0.11517650  0.76167220  0.74217199  1
  O  O370  1  0.63542898  0.26117904  0.25946670  1
  O  O371  1  0.62202101  0.26135184  0.74893915  1
  O  O372  1  0.61798482  0.75408045  0.25959659  1
  O  O373  1  0.61498565  0.75402266  0.74680357  1
  O  O374  1  0.37163868  0.24936938  0.23574437  1
  O  O375  1  0.38521174  0.23979122  0.74347259  1
  O  O376  1  0.38263553  0.73743546  0.25840841  1
  O  O377  1  0.37840434  0.73985339  0.74600107  1
  O  O378  1  0.86015244  0.26513707  0.22977483  1
  O  O379  1  0.88233719  0.23930511  0.73819595  1
  O  O380  1  0.87299774  0.74047506  0.24197424  1
  O  O381  1  0.88641503  0.75056760  0.73814110  1
  O  O382  1  0.38486385  0.48912845  0.50730445  1
  O  O383  1  0.37474748  0.48907323  0.99715918  1
  O  O384  1  0.37992101  0.99102635  0.49683970  1
  O  O385  1  0.36410661  0.99275570  1.00249543  1
  O  O386  1  0.88665562  0.50822695  0.48994280  1
  O  O387  1  0.88460145  0.49861048  1.01036599  1
  O  O388  1  0.88238304  0.98969131  0.49515892  1
  O  O389  1  0.83801021  0.99203913  0.99267232  1
  O  O390  1  0.12148250  0.01319162  0.00818558  1
  O  O391  1  0.12242856  -0.00049398  0.50914806  1
  O  O392  1  0.11878012  0.51176586  0.01112651  1
  O  O393  1  0.12305665  0.51245915  0.50045947  1
  O  O394  1  0.62810600  -0.01004526  0.00407808  1
  O  O395  1  0.60999332  0.00397601  0.49534465  1
  O  O396  1  0.64140110  0.50220093  0.02623410  1
  O  O397  1  0.61900698  0.50757606  0.50336568  1
  O  O398  1  0.37785418  0.35836625  0.12106491  1
  O  O399  1  0.37219970  0.36654767  0.61548922  1
  O  O400  1  0.36023702  0.88450211  0.11507763  1
  O  O401  1  0.37748576  0.86108528  0.61406784  1
  O  O402  1  0.87030507  0.38268159  0.12502883  1
  O  O403  1  0.85836044  0.37011287  0.61976127  1
  O  O404  1  0.86567447  0.86383771  0.12837368  1
  O  O405  1  0.86984842  0.87108701  0.61891910  1
  O  O406  1  0.13707721  0.10425409  0.38861627  1
  O  O407  1  0.13171428  0.12164458  0.89163505  1
  O  O408  1  0.12173787  0.64174238  0.38829144  1
  O  O409  1  0.11710209  0.61403734  0.86556023  1
  O  O410  1  0.62361802  0.12913667  0.38148161  1
  O  O411  1  0.63897212  0.14245464  0.85616104  1
  O  O412  1  0.63167070  0.63152043  0.38178331  1
  O  O413  1  0.64972355  0.63242880  0.86300699  1
