# generated using pymatgen
data_V79Zn79O256
_symmetry_space_group_name_H-M   'P 1'
_cell_length_a   16.97413324
_cell_length_b   16.93306839
_cell_length_c   16.92812182
_cell_angle_alpha   89.85852675
_cell_angle_beta   90.03537791
_cell_angle_gamma   90.13718016
_symmetry_Int_Tables_number   1
_chemical_formula_structural   V79Zn79O256
_chemical_formula_sum   'V79 Zn79 O256'
_cell_volume   4865.52148819
_cell_formula_units_Z   1
loop_
 _symmetry_equiv_pos_site_id
 _symmetry_equiv_pos_as_xyz
  1  'x, y, z'
loop_
 _atom_site_type_symbol
 _atom_site_label
 _atom_site_symmetry_multiplicity
 _atom_site_fract_x
 _atom_site_fract_y
 _atom_site_fract_z
 _atom_site_occupancy
  V  V0  1  0.75904299  0.62940091  0.87798182  1
  V  V1  1  0.37320193  0.25122311  0.11944294  1
  V  V2  1  0.35697746  0.50455589  0.37997511  1
  V  V3  1  0.24349478  0.86862268  0.61973167  1
  V  V4  1  0.12536062  0.86553674  0.25455978  1
  V  V5  1  0.24756028  0.13126116  0.86524992  1
  V  V6  1  0.75575053  0.87498162  0.14296077  1
  V  V7  1  0.37549544  0.12421094  0.73430329  1
  V  V8  1  0.37720543  0.87696955  0.49981435  1
  V  V9  1  0.61500933  0.12366722  0.51052249  1
  V  V10  1  0.12636703  0.00089688  0.12111505  1
  V  V11  1  0.37793161  0.27516217  0.62029904  1
  V  V12  1  0.36899398  0.86848593  0.00278178  1
  V  V13  1  0.50189313  0.00403676  0.00231377  1
  V  V14  1  0.24958045  0.74654070  0.47030739  1
  V  V15  1  0.37137160  0.12792319  0.24730875  1
  V  V16  1  -0.00659492  0.62524261  0.12569567  1
  V  V17  1  0.23659878  0.12556829  0.38114522  1
  V  V18  1  0.11793403  0.00690493  0.62034911  1
  V  V19  1  -0.00117190  0.12900975  0.13203353  1
  V  V20  1  0.73853492  0.75442009  0.50230560  1
  V  V21  1  0.24660997  -0.00059958  0.24667932  1
  V  V22  1  0.74668622  0.75290188  0.00311564  1
  V  V23  1  0.87752525  -0.00578732  0.87609909  1
  V  V24  1  0.25427776  0.50255079  0.23327314  1
  V  V25  1  0.49513251  0.25795172  0.24995122  1
  V  V26  1  0.59779245  0.86733805  0.25657621  1
  V  V27  1  0.86868512  0.49768111  0.37010706  1
  V  V28  1  0.73439878  0.62845443  0.37838265  1
  V  V29  1  0.12284640  0.49920998  0.11884885  1
  V  V30  1  0.74953284  -0.01124551  0.74229261  1
  V  V31  1  0.12663701  0.63639752  -0.00504221  1
  V  V32  1  0.24525420  0.25183325  -0.00981933  1
  V  V33  1  -0.00280467  0.01565030  0.50212520  1
  V  V34  1  0.24420254  0.37644640  0.11871163  1
  V  V35  1  0.75136955  0.12249947  0.87815953  1
  V  V36  1  0.63147873  0.00099121  0.13239917  1
  V  V37  1  0.87687661  0.87269033  0.50274703  1
  V  V38  1  0.74590672  0.24568183  0.50090041  1
  V  V39  1  0.24698140  -0.00054584  0.75087457  1
  V  V40  1  -0.00110291  0.75186326  0.76233978  1
  V  V41  1  0.75838430  0.49561502  0.76136050  1
  V  V42  1  0.37691153  0.00084450  0.87631885  1
  V  V43  1  0.77602409  0.25008834  -0.00206893  1
  V  V44  1  0.12545355  0.12545398  -0.00986116  1
  V  V45  1  0.74973408  0.37078715  0.62764305  1
  V  V46  1  0.87892435  0.24074849  0.62631944  1
  V  V47  1  0.62619067  0.50417175  0.62483678  1
  V  V48  1  0.01073166  0.24418780  0.74754331  1
  V  V49  1  0.24596677  0.51315147  0.75740415  1
  V  V50  1  0.37394547  0.63211955  0.23187519  1
  V  V51  1  0.61837190  0.24362342  0.88728892  1
  V  V52  1  0.00206801  0.86701207  0.38406460  1
  V  V53  1  0.51176047  0.12686668  0.12261293  1
  V  V54  1  0.88204414  0.62100526  0.74676404  1
  V  V55  1  -0.01707958  0.49734023  -0.00855958  1
  V  V56  1  0.38387448  -0.00100685  0.37080557  1
  V  V57  1  0.00220066  -0.00506019  -0.00552132  1
  V  V58  1  0.00246466  0.74089679  0.25599197  1
  V  V59  1  0.75295191  0.11191744  0.36559042  1
  V  V60  1  0.87954089  0.74866941  0.62509866  1
  V  V61  1  0.62274897  0.36875490  0.75803405  1
  V  V62  1  0.87781449  0.37486214  0.49761621  1
  V  V63  1  0.24926075  0.85602441  0.12247961  1
  V  V64  1  0.38624051  0.37670612  -0.01756589  1
  V  V65  1  0.23699312  0.39356164  0.62062114  1
  V  V66  1  0.62483174  0.49702550  0.13974926  1
  V  V67  1  0.50785707  0.50014480  0.48723759  1
  V  V68  1  -0.00668778  0.37045107  0.87747321  1
  V  V69  1  -0.00478781  0.51273235  0.51424523  1
  V  V70  1  0.49487676  0.00452389  0.51365152  1
  V  V71  1  0.50321642  0.23902598  0.74446593  1
  V  V72  1  0.50228125  0.63933794  0.11997581  1
  V  V73  1  0.88384364  0.25335888  0.14421686  1
  V  V74  1  0.86614658  0.62761160  0.24993235  1
  V  V75  1  0.62284889  0.61305616  -0.00593959  1
  V  V76  1  0.61759584  0.24930614  0.37695633  1
  V  V77  1  0.11855239  0.86814044  0.76144137  1
  V  V78  1  0.87721401  0.87128976  0.00710521  1
  Zn  Zn79  1  0.12407330  0.62574330  0.48501333  1
  Zn  Zn80  1  0.12423347  0.38143376  0.75647922  1
  Zn  Zn81  1  0.04947526  0.32770356  0.30282782  1
  Zn  Zn82  1  0.25304024  0.27355050  0.49001848  1
  Zn  Zn83  1  0.48824505  0.36980171  0.38898217  1
  Zn  Zn84  1  0.38046704  0.73797489  0.65499798  1
  Zn  Zn85  1  0.56437219  0.79796209  0.80554361  1
  Zn  Zn86  1  0.49482612  0.62529870  0.63479643  1
  Zn  Zn87  1  0.88175760  0.11855740  0.74413125  1
  Zn  Zn88  1  0.38915207  0.51273632  0.87404163  1
  Zn  Zn89  1  0.24929740  0.63988942  0.86910278  1
  Zn  Zn90  1  0.61695726  0.00552465  0.63682447  1
  Zn  Zn91  1  0.10133423  0.22687930  0.42448680  1
  Zn  Zn92  1  0.63069813  0.38074053  0.25539984  1
  Zn  Zn93  1  0.75916953  0.38403658  0.12790453  1
  Zn  Zn94  1  0.17857334  0.18820765  0.18541657  1
  Zn  Zn95  1  0.17294209  0.20764966  0.64000400  1
  Zn  Zn96  1  0.18991326  0.67466687  0.30752224  1
  Zn  Zn97  1  0.17838806  0.68139350  0.67499604  1
  Zn  Zn98  1  0.70076085  0.21255585  0.19783661  1
  Zn  Zn99  1  0.69133889  0.17855914  0.69615704  1
  Zn  Zn100  1  0.68567279  0.69402990  0.18411370  1
  Zn  Zn101  1  0.70159432  0.68428169  0.68345024  1
  Zn  Zn102  1  0.21469157  0.31317058  0.30499647  1
  Zn  Zn103  1  0.31013879  0.31760171  0.79940360  1
  Zn  Zn104  1  0.38833384  0.78858467  0.33638999  1
  Zn  Zn105  1  0.32130171  0.81248639  0.80931497  1
  Zn  Zn106  1  0.80737927  0.30971082  0.31219417  1
  Zn  Zn107  1  0.81905322  0.30920038  0.81292675  1
  Zn  Zn108  1  0.81826378  0.80766979  0.32280499  1
  Zn  Zn109  1  0.81403625  0.81175091  0.81633568  1
  Zn  Zn110  1  0.17555255  0.44099464  0.43587354  1
  Zn  Zn111  1  0.17755047  0.44141696  0.93276355  1
  Zn  Zn112  1  0.18511872  0.94071148  0.43613675  1
  Zn  Zn113  1  0.18657796  0.81041474  0.93765723  1
  Zn  Zn114  1  0.68694586  0.43683614  0.43590431  1
  Zn  Zn115  1  0.69563263  0.42943044  0.94151141  1
  Zn  Zn116  1  0.67939293  0.93350724  0.43789252  1
  Zn  Zn117  1  0.69134362  0.93776056  0.94470760  1
  Zn  Zn118  1  0.31042213  0.06454842  0.05848046  1
  Zn  Zn119  1  0.30682246  0.05631928  0.56155146  1
  Zn  Zn120  1  0.32484444  0.57636848  0.03517623  1
  Zn  Zn121  1  0.32000197  0.57243281  0.56616628  1
  Zn  Zn122  1  0.81418388  0.06439749  0.06632878  1
  Zn  Zn123  1  0.81026005  0.05905824  0.55614041  1
  Zn  Zn124  1  0.80776226  0.56063917  0.06601230  1
  Zn  Zn125  1  0.80679653  0.56552950  0.56145214  1
  Zn  Zn126  1  0.44249802  0.44253696  0.17241480  1
  Zn  Zn127  1  0.45168207  0.45547384  0.72474802  1
  Zn  Zn128  1  0.43538988  0.93630988  0.18105583  1
  Zn  Zn129  1  0.42977306  0.91855824  0.69352804  1
  Zn  Zn130  1  0.94041362  0.43795191  0.18967383  1
  Zn  Zn131  1  0.93707587  0.42974659  0.69030391  1
  Zn  Zn132  1  0.93638471  0.93984259  0.19512707  1
  Zn  Zn133  1  0.93631435  0.93297057  0.68481714  1
  Zn  Zn134  1  0.04237043  0.05352222  0.30939958  1
  Zn  Zn135  1  0.06298825  0.05858931  0.80923165  1
  Zn  Zn136  1  0.05655664  0.53315769  0.31182643  1
  Zn  Zn137  1  0.06505701  0.56161275  0.81245544  1
  Zn  Zn138  1  0.56495863  0.06643371  0.31163382  1
  Zn  Zn139  1  0.57290861  -0.03250168  0.82295979  1
  Zn  Zn140  1  0.55148991  0.68799466  0.31268219  1
  Zn  Zn141  1  0.57361686  0.57096392  0.81144223  1
  Zn  Zn142  1  0.42836178  0.18637388  0.43983486  1
  Zn  Zn143  1  0.43651567  0.18338947  0.93293928  1
  Zn  Zn144  1  0.47522062  0.70594134  0.48203497  1
  Zn  Zn145  1  0.42977569  0.68820362  0.92005133  1
  Zn  Zn146  1  0.92862583  0.19224588  0.42419683  1
  Zn  Zn147  1  0.94397037  0.18116001  0.92961437  1
  Zn  Zn148  1  0.93062646  0.68636595  0.43404034  1
  Zn  Zn149  1  0.93464818  0.68814998  0.93865662  1
  Zn  Zn150  1  0.06095913  0.31286582  0.05694920  1
  Zn  Zn151  1  0.06212994  0.31862559  0.56213171  1
  Zn  Zn152  1  0.05674959  0.80957772  0.07278367  1
  Zn  Zn153  1  0.07332596  0.78623467  0.56636877  1
  Zn  Zn154  1  0.56358137  0.31708291  0.06160096  1
  Zn  Zn155  1  0.55832648  0.31928709  0.56528586  1
  Zn  Zn156  1  0.55581033  0.81351037  -0.02494455  1
  Zn  Zn157  1  0.56307490  0.81452968  0.58596651  1
  O  O158  1  0.12043047  0.11947629  0.10968366  1
  O  O159  1  0.12672262  0.10455448  0.63343413  1
  O  O160  1  0.10231088  0.61576095  0.11136969  1
  O  O161  1  0.10977886  0.67417309  0.58866089  1
  O  O162  1  0.61461356  0.12214309  0.13467881  1
  O  O163  1  0.62809003  0.12488126  0.61444489  1
  O  O164  1  0.62387166  0.61764291  0.11567583  1
  O  O165  1  0.64498579  0.60180346  0.62223770  1
  O  O166  1  0.38970417  0.41355643  0.35241375  1
  O  O167  1  0.37181735  0.36974535  0.88120118  1
  O  O168  1  0.36645020  0.89030608  0.38635852  1
  O  O169  1  0.36087979  0.89376681  0.89303999  1
  O  O170  1  0.85371567  0.38829475  0.38378069  1
  O  O171  1  0.89182303  0.37666057  0.86909249  1
  O  O172  1  0.89172640  0.87026595  0.38751580  1
  O  O173  1  0.87004486  0.88688120  0.89019416  1
  O  O174  1  0.25433491  0.00748982  0.36127295  1
  O  O175  1  0.25796081  0.01283926  0.86033539  1
  O  O176  1  0.25415143  0.49617433  0.35713425  1
  O  O177  1  0.24494128  0.50628874  0.86485921  1
  O  O178  1  0.73813206  0.01387487  0.38208065  1
  O  O179  1  0.75846829  0.00622220  0.87444016  1
  O  O180  1  0.75451306  0.51728290  0.38791892  1
  O  O181  1  0.74960461  0.50367372  0.86659455  1
  O  O182  1  0.24248298  0.49209460  0.11441452  1
  O  O183  1  0.25312414  0.49675154  0.63144020  1
  O  O184  1  0.23859787  1.00764562  0.13045904  1
  O  O185  1  0.23616362  0.99328732  0.63172212  1
  O  O186  1  0.73498617  0.49752400  0.12276047  1
  O  O187  1  0.74603795  0.48488169  0.63077642  1
  O  O188  1  0.74185173  0.99181727  0.12012544  1
  O  O189  1  0.75219145  1.00145136  0.63938926  1
  O  O190  1  0.01994248  0.42819162  0.26617477  1
  O  O191  1  0.00246856  0.36578815  0.75860119  1
  O  O192  1  0.00780350  0.86038365  0.25594856  1
  O  O193  1  0.01194628  0.87041580  0.74761833  1
  O  O194  1  0.50024074  0.36181604  0.24206933  1
  O  O195  1  0.51680239  0.35683257  0.74822450  1
  O  O196  1  0.49648749  0.87070709  0.25028279  1
  O  O197  1  0.54293794  0.88991950  0.72738758  1
  O  O198  1  0.48722386  0.13174466  0.24189301  1
  O  O199  1  0.48720161  0.13563757  0.74688921  1
  O  O200  1  0.49316466  0.63102053  0.22719875  1
  O  O201  1  0.54527680  0.65774529  0.73748212  1
  O  O202  1  1.02204127  0.13669161  0.22695626  1
  O  O203  1  0.99827743  0.13912379  0.75725947  1
  O  O204  1  0.99048184  0.62397175  0.24461164  1
  O  O205  1  0.98781206  0.63134884  0.75729011  1
  O  O206  1  0.36500986  0.25106144  0.00155792  1
  O  O207  1  0.36995825  0.25034550  0.51617090  1
  O  O208  1  0.37764245  0.77218253  -0.00151369  1
  O  O209  1  0.36103338  0.77304531  0.49508926  1
  O  O210  1  0.87581850  0.25212383  -0.00513675  1
  O  O211  1  0.86307929  0.25594645  0.50437173  1
  O  O212  1  0.86909028  0.76370810  0.00021485  1
  O  O213  1  0.87052970  0.75479989  0.50813842  1
  O  O214  1  0.14262731  0.24270943  0.52864356  1
  O  O215  1  0.13539837  0.23841174  1.00219270  1
  O  O216  1  0.15041339  0.76770715  0.47432916  1
  O  O217  1  0.11221530  0.74300966  0.99934201  1
  O  O218  1  0.62580053  0.24496215  0.49742227  1
  O  O219  1  0.62582874  0.24995551  0.98849783  1
  O  O220  1  0.64046506  0.76956590  0.51027797  1
  O  O221  1  0.64244042  0.73787476  1.00455803  1
  O  O222  1  0.49247141  0.24423758  0.12886014  1
  O  O223  1  0.48709658  0.25455175  0.63102396  1
  O  O224  1  0.51029244  0.73474184  0.10503236  1
  O  O225  1  0.48408854  0.73828695  0.59153502  1
  O  O226  1  0.99044041  0.24070920  0.11297079  1
  O  O227  1  0.98964714  0.25916898  0.63737312  1
  O  O228  1  1.00054126  0.73696556  0.14207103  1
  O  O229  1  0.98300306  0.75321381  0.63995777  1
  O  O230  1  0.00638453  0.24625081  0.37068416  1
  O  O231  1  -0.00224525  0.25895951  0.86198268  1
  O  O232  1  0.00113820  0.75324216  0.36761331  1
  O  O233  1  -0.00933192  0.75340740  0.86216575  1
  O  O234  1  0.49831898  0.25190051  0.36959063  1
  O  O235  1  0.51490363  0.23955237  0.86732852  1
  O  O236  1  0.48148184  0.74193584  0.37940365  1
  O  O237  1  0.50453597  0.75765997  0.88978551  1
  O  O238  1  0.24890015  0.11258543  0.48059859  1
  O  O239  1  0.24461366  0.13184293  0.98723512  1
  O  O240  1  0.25421605  0.64677366  0.49937859  1
  O  O241  1  0.22413132  0.62916774  1.01391022  1
  O  O242  1  0.73700601  0.13227791  0.49667490  1
  O  O243  1  0.75964300  0.13624395  0.99040134  1
  O  O244  1  0.74861712  0.64009012  0.49106413  1
  O  O245  1  0.75068811  0.63354182  0.99616708  1
  O  O246  1  0.25416337  0.36478200  -0.00070519  1
  O  O247  1  0.25017493  0.38901386  0.51586756  1
  O  O248  1  0.25263276  0.87371823  0.01355967  1
  O  O249  1  0.25433519  0.87481107  0.50182550  1
  O  O250  1  0.74944608  0.35190330  0.00885664  1
  O  O251  1  0.75152274  0.36340581  0.50922829  1
  O  O252  1  0.75863981  0.86973389  0.01063313  1
  O  O253  1  0.76402493  0.86438305  0.48744512  1
  O  O254  1  0.14362385  0.51411422  0.22519839  1
  O  O255  1  0.13600396  0.50035860  0.74933746  1
  O  O256  1  0.12828136  0.99308071  0.23802948  1
  O  O257  1  0.12658821  0.98833618  0.74078238  1
  O  O258  1  0.62595795  0.49784422  0.23944765  1
  O  O259  1  0.64213015  0.48750492  0.74310177  1
  O  O260  1  0.60960317  0.99013774  0.23828376  1
  O  O261  1  0.64743979  1.01595820  0.75358774  1
  O  O262  1  0.36676745  0.00834778  0.25066021  1
  O  O263  1  0.36797217  0.00367759  0.75424893  1
  O  O264  1  0.36155542  0.50716674  0.22154081  1
  O  O265  1  0.34970318  0.49707618  0.75574782  1
  O  O266  1  0.93871276  0.01601587  0.27281971  1
  O  O267  1  0.87018299  -0.00263870  0.75789411  1
  O  O268  1  0.86796627  0.50649123  0.26479200  1
  O  O269  1  0.86540970  0.50651580  0.74160096  1
  O  O270  1  0.14031880  0.34609174  0.38690267  1
  O  O271  1  0.10510467  0.37616653  0.87394893  1
  O  O272  1  0.11754303  0.88415621  0.36058229  1
  O  O273  1  0.12877489  0.87747361  0.85941574  1
  O  O274  1  0.62142968  0.35971789  0.37528334  1
  O  O275  1  0.63899254  0.35578647  0.86684133  1
  O  O276  1  0.62317340  0.88187379  0.35262094  1
  O  O277  1  0.61316092  0.87836179  0.88649148  1
  O  O278  1  0.37707087  0.13389662  0.12923531  1
  O  O279  1  0.36087460  0.12863617  0.63327141  1
  O  O280  1  0.39236132  0.62167201  0.11900526  1
  O  O281  1  0.37993383  0.62571177  0.64353949  1
  O  O282  1  0.89348968  0.12910362  0.12413626  1
  O  O283  1  0.87005620  0.13745428  0.62049492  1
  O  O284  1  0.88196101  0.61399346  0.13802833  1
  O  O285  1  0.86323156  0.63347237  0.63862400  1
  O  O286  1  0.25696526  0.25435866  0.11109114  1
  O  O287  1  0.26628052  0.27492081  0.63164313  1
  O  O288  1  0.24655291  0.76166697  0.13018691  1
  O  O289  1  0.25765437  0.76593492  0.62661060  1
  O  O290  1  0.77730294  0.23236750  0.11036769  1
  O  O291  1  0.75405271  0.25331417  0.61997617  1
  O  O292  1  0.75172558  0.76783590  0.12022900  1
  O  O293  1  0.76088131  0.74999416  0.61106644  1
  O  O294  1  0.25635844  0.22995235  0.37800352  1
  O  O295  1  0.25537493  0.24012664  0.87628332  1
  O  O296  1  0.26683342  0.74515926  0.36936458  1
  O  O297  1  0.25331559  0.75254093  0.86930941  1
  O  O298  1  0.73726945  0.24404863  0.38748046  1
  O  O299  1  0.75318431  0.24392824  0.88600948  1
  O  O300  1  0.75317941  0.74036373  0.38975805  1
  O  O301  1  0.75547317  0.74034085  0.88626380  1
  O  O302  1  0.01033204  0.11720086  0.00108448  1
  O  O303  1  -0.00707577  0.11354922  0.49429408  1
  O  O304  1  -0.00283755  0.61616689  0.00415416  1
  O  O305  1  -0.01606291  0.61355492  0.50448187  1
  O  O306  1  0.49339386  0.11745093  0.01189377  1
  O  O307  1  0.50590701  0.11855586  0.49535945  1
  O  O308  1  0.52123061  0.62152914  -0.00019510  1
  O  O309  1  0.50703446  0.59969432  0.51609114  1
  O  O310  1  0.49487239  0.39177893  0.50436547  1
  O  O311  1  0.48431742  0.36185381  0.99471001  1
  O  O312  1  0.48132076  0.88678677  0.50596818  1
  O  O313  1  0.47835773  0.89363181  1.01297945  1
  O  O314  1  0.98079556  0.37790145  0.50305730  1
  O  O315  1  0.99921785  0.38578519  0.98997987  1
  O  O316  1  0.99679642  0.86056981  0.49517778  1
  O  O317  1  0.99196710  0.88702601  1.01447879  1
  O  O318  1  0.52022827  0.50206248  0.39031208  1
  O  O319  1  0.49066888  0.50194194  0.82621976  1
  O  O320  1  0.48677881  1.00834871  0.37994125  1
  O  O321  1  0.48684971  1.00784899  0.88556874  1
  O  O322  1  0.96910746  0.50318908  0.39397661  1
  O  O323  1  0.99778161  0.49417447  0.88616711  1
  O  O324  1  1.01127015  0.98451913  0.40235046  1
  O  O325  1  0.99247876  1.00376682  0.88510498  1
  O  O326  1  0.00926424  0.01231694  0.11564344  1
  O  O327  1  0.00972191  -0.00507135  0.61706226  1
  O  O328  1  0.00307778  0.50242123  0.11021699  1
  O  O329  1  -0.01220456  0.49528448  0.61309125  1
  O  O330  1  0.50337737  0.01110160  0.12069239  1
  O  O331  1  0.48933851  0.00245382  0.61521854  1
  O  O332  1  0.51877299  0.51080939  0.11963304  1
  O  O333  1  0.52209900  0.49998292  0.64029164  1
  O  O334  1  0.25767431  0.38630645  0.22539590  1
  O  O335  1  0.24276863  0.38687395  0.73934832  1
  O  O336  1  0.24187816  0.88804005  0.23567010  1
  O  O337  1  0.23753593  0.88523007  0.74098751  1
  O  O338  1  0.73238925  0.33125621  0.22999041  1
  O  O339  1  0.74829204  0.37608928  0.74537052  1
  O  O340  1  0.76782852  0.87223446  0.24206715  1
  O  O341  1  0.75174461  0.88933882  0.75837488  1
  O  O342  1  0.25436737  0.11811699  0.25137232  1
  O  O343  1  0.25507125  0.11683305  0.75171615  1
  O  O344  1  0.26505847  0.61716362  0.23675412  1
  O  O345  1  0.23910596  0.61868544  0.74766977  1
  O  O346  1  0.73756854  0.12882740  0.26659597  1
  O  O347  1  0.76297908  0.11726871  0.76226551  1
  O  O348  1  0.75658519  0.63971782  0.26330863  1
  O  O349  1  0.75841508  0.61636564  0.76056177  1
  O  O350  1  0.36572048  0.11779972  0.36230721  1
  O  O351  1  0.36584386  0.12001678  0.86217770  1
  O  O352  1  0.38800816  0.59647810  0.33698832  1
  O  O353  1  0.35268342  0.61251836  0.91996107  1
  O  O354  1  0.85111665  0.12538838  0.38236690  1
  O  O355  1  0.87022761  0.10983212  0.87515910  1
  O  O356  1  0.86271508  0.61556522  0.36818757  1
  O  O357  1  0.86598238  0.62521298  0.86548287  1
  O  O358  1  0.13439109  0.38612282  0.10691010  1
  O  O359  1  0.13550522  0.38140421  0.62737684  1
  O  O360  1  0.13256680  0.88121315  0.13046418  1
  O  O361  1  0.13180594  0.87942047  0.62841133  1
  O  O362  1  0.62298263  0.38876250  0.12441532  1
  O  O363  1  0.63646627  0.37390621  0.63699133  1
  O  O364  1  0.64365677  0.88402729  0.14732287  1
  O  O365  1  0.60218321  0.88914869  0.66264968  1
  O  O366  1  0.13119375  0.27131755  0.23765909  1
  O  O367  1  0.11151311  0.24991280  0.73500573  1
  O  O368  1  0.12021065  0.75790345  0.25349074  1
  O  O369  1  0.11474728  0.76219525  0.74532355  1
  O  O370  1  0.60513322  0.24018729  0.26335615  1
  O  O371  1  0.62185833  0.25079741  0.75584367  1
  O  O372  1  0.61758006  0.76276153  0.24707504  1
  O  O373  1  0.60160131  0.72451329  0.72549047  1
  O  O374  1  0.37879221  0.24116959  0.23612733  1
  O  O375  1  0.38242459  0.24508662  0.73814924  1
  O  O376  1  0.37049331  0.73125675  0.23985209  1
  O  O377  1  0.40279974  0.81262757  0.73650254  1
  O  O378  1  0.88116649  0.24641638  0.24290973  1
  O  O379  1  0.88308280  0.24654664  0.73978952  1
  O  O380  1  0.88781229  0.73570447  0.25982590  1
  O  O381  1  0.87727198  0.74365015  0.74539086  1
  O  O382  1  0.38203502  0.51167731  0.48179673  1
  O  O383  1  0.37403235  0.47726424  0.99637204  1
  O  O384  1  0.37823812  0.99964563  0.48871431  1
  O  O385  1  0.37967325  1.00416608  0.99247281  1
  O  O386  1  0.87123875  0.49070912  0.49899856  1
  O  O387  1  0.88454386  0.50133026  1.00246435  1
  O  O388  1  0.89135181  0.98815370  0.51170251  1
  O  O389  1  0.88397464  0.99468203  0.99571868  1
  O  O390  1  0.11767961  0.00818046  0.00827108  1
  O  O391  1  0.11564576  -0.00310626  0.51379159  1
  O  O392  1  0.11292298  0.51195190  0.00444511  1
  O  O393  1  0.09752984  0.50189708  0.49381789  1
  O  O394  1  0.61203937  -0.00757276  0.01807050  1
  O  O395  1  0.61168425  0.00393971  0.50728831  1
  O  O396  1  0.63637038  0.51117526  0.00001586  1
  O  O397  1  0.61962847  0.48468874  0.51799315  1
  O  O398  1  0.36853763  0.36290062  0.10968739  1
  O  O399  1  0.37716380  0.37415024  0.63050697  1
  O  O400  1  0.35600948  0.88609466  0.11513045  1
  O  O401  1  0.35597145  0.89504823  0.60409947  1
  O  O402  1  0.87917912  0.35843812  0.13274103  1
  O  O403  1  0.86367503  0.36366953  0.61826915  1
  O  O404  1  0.86543477  0.89037124  0.11944701  1
  O  O405  1  0.87628742  0.86453267  0.61328907  1
  O  O406  1  0.13458894  0.11969935  0.36705582  1
  O  O407  1  0.13490329  0.11723079  0.88081337  1
  O  O408  1  0.11937157  0.61145651  0.36992554  1
  O  O409  1  0.12369510  0.62506711  0.89191039  1
  O  O410  1  0.62620897  0.13450217  0.38762278  1
  O  O411  1  0.64345517  0.14122793  0.87333649  1
  O  O412  1  0.63675643  0.62915727  0.36758596  1
  O  O413  1  0.64292276  0.62248923  0.88755308  1
