# generated using pymatgen
data_V79Zn79O256
_symmetry_space_group_name_H-M   'P 1'
_cell_length_a   16.91900352
_cell_length_b   16.89979034
_cell_length_c   16.90374873
_cell_angle_alpha   90.07716695
_cell_angle_beta   90.06276853
_cell_angle_gamma   90.19331484
_symmetry_Int_Tables_number   1
_chemical_formula_structural   V79Zn79O256
_chemical_formula_sum   'V79 Zn79 O256'
_cell_volume   4833.21369412
_cell_formula_units_Z   1
loop_
 _symmetry_equiv_pos_site_id
 _symmetry_equiv_pos_as_xyz
  1  'x, y, z'
loop_
 _atom_site_type_symbol
 _atom_site_label
 _atom_site_symmetry_multiplicity
 _atom_site_fract_x
 _atom_site_fract_y
 _atom_site_fract_z
 _atom_site_occupancy
  V  V0  1  0.61896673  0.00229140  0.62289486  1
  V  V1  1  0.75449992  0.51747793  0.74505433  1
  V  V2  1  0.11994161  0.62056573  0.51303483  1
  V  V3  1  0.76038421  0.38465452  0.13036813  1
  V  V4  1  0.37574640  0.74388388  0.13475580  1
  V  V5  1  0.87446245  0.00086656  0.35940991  1
  V  V6  1  0.62830326  0.24591114  0.87062938  1
  V  V7  1  0.12831703  0.74929130  0.38352303  1
  V  V8  1  0.37967524  0.12517995  0.73313186  1
  V  V9  1  0.37233925  0.87234960  0.49200860  1
  V  V10  1  0.25251532  0.88103029  0.12978737  1
  V  V11  1  -0.00540874  0.73914098  0.74941194  1
  V  V12  1  0.23058758  0.38493311  0.62572020  1
  V  V13  1  0.24924718  0.24329580  0.50890316  1
  V  V14  1  0.62552938  0.37428399  0.74335120  1
  V  V15  1  0.24279594  0.48887873  0.25425213  1
  V  V16  1  0.62333668  0.61674225  -0.00063180  1
  V  V17  1  0.11582093  0.00648706  0.11748806  1
  V  V18  1  0.87326505  0.62034826  0.25148057  1
  V  V19  1  0.62277784  0.62799802  0.49525314  1
  V  V20  1  0.01078212  0.50304243  -0.01021475  1
  V  V21  1  0.36431023  0.62680002  0.75155565  1
  V  V22  1  0.75311831  0.74236764  -0.00522787  1
  V  V23  1  0.87782931  0.74005297  0.62677157  1
  V  V24  1  0.63124238  -0.00733382  0.13298990  1
  V  V25  1  0.87852806  0.23571383  0.12628763  1
  V  V26  1  -0.00124481  0.37481789  0.37167924  1
  V  V27  1  0.62160055  0.12893478  0.50189949  1
  V  V28  1  0.00034101  0.88130472  0.38007906  1
  V  V29  1  0.50029561  0.13591045  0.13114349  1
  V  V30  1  0.75692058  0.12274415  0.36132414  1
  V  V31  1  -0.00333735  0.49638970  0.51543864  1
  V  V32  1  0.00261530  0.88442062  0.87639657  1
  V  V33  1  0.76619735  0.25212465  0.49766172  1
  V  V34  1  0.88117306  0.87933246  0.00087786  1
  V  V35  1  0.75066782  0.25691523  -0.00154062  1
  V  V36  1  0.50202251  0.24031511  0.72929210  1
  V  V37  1  0.76226382  0.37112449  0.61879242  1
  V  V38  1  0.37451160  0.86618661  0.00016999  1
  V  V39  1  0.87419316  0.49468447  0.37679352  1
  V  V40  1  0.50335563  -0.00335172  0.00403754  1
  V  V41  1  0.62298747  0.49773573  0.13402936  1
  V  V42  1  0.11555497  -0.00127909  0.63276462  1
  V  V43  1  0.36389056  0.75596160  0.61978263  1
  V  V44  1  0.37132496  0.50409082  0.37424910  1
  V  V45  1  0.87984611  0.88471503  0.50240042  1
  V  V46  1  0.24502068  0.73785306  -0.00048073  1
  V  V47  1  0.74842499  0.62068047  0.37346129  1
  V  V48  1  0.50292483  -0.00222771  0.48595681  1
  V  V49  1  0.75196590  0.87932785  0.62741197  1
  V  V50  1  0.49789107  0.36778273  0.36823673  1
  V  V51  1  -0.00726980  0.13521205  0.62623816  1
  V  V52  1  0.37592041  0.00135799  0.87442724  1
  V  V53  1  0.11803546  0.12054836  0.49959692  1
  V  V54  1  0.86904770  0.13095510  0.75175030  1
  V  V55  1  0.62877595  0.74189546  0.87285748  1
  V  V56  1  0.13044325  0.88053515  0.25292237  1
  V  V57  1  0.00154686  0.74471689  0.24985045  1
  V  V58  1  0.88048451  0.74343091  0.12421721  1
  V  V59  1  0.12854804  0.25077688  0.36987703  1
  V  V60  1  0.11813489  0.37022343  0.77275828  1
  V  V61  1  0.51260804  0.75408351  0.25729712  1
  V  V62  1  0.63295742  0.12235341  -0.00500285  1
  V  V63  1  0.12490793  0.73660570  0.88116958  1
  V  V64  1  0.25052722  0.13712817  0.88795646  1
  V  V65  1  0.74948199  0.87414096  0.13278812  1
  V  V66  1  0.86714614  0.00096378  0.87483476  1
  V  V67  1  0.35945397  0.00516521  0.36796897  1
  V  V68  1  0.24727802  0.62620116  0.37596763  1
  V  V69  1  0.49942272  0.74940217  0.74330874  1
  V  V70  1  0.50193686  0.86714224  0.87454083  1
  V  V71  1  0.37312733  0.37298496  0.51371953  1
  V  V72  1  -0.00488786  0.24045110  0.24893224  1
  V  V73  1  0.74676625  0.75330981  0.49368956  1
  V  V74  1  0.49832800  0.49993621  0.50549493  1
  V  V75  1  0.11922947  0.51467496  0.12974385  1
  V  V76  1  0.25449096  0.36932579  0.10375380  1
  V  V77  1  0.49890545  0.62048421  0.12920816  1
  V  V78  1  0.86605567  0.50017900  0.87847350  1
  Zn  Zn79  1  0.12793430  0.87675221  0.75630418  1
  Zn  Zn80  1  0.62079679  0.24403085  0.36712451  1
  Zn  Zn81  1  0.62024505  0.36783991  0.24589500  1
  Zn  Zn82  1  0.23470928  0.51205573  0.75449561  1
  Zn  Zn83  1  0.37324857  0.48697696  0.88767641  1
  Zn  Zn84  1  0.49678328  0.62689060  0.62122274  1
  Zn  Zn85  1  0.74490737  0.00586827  0.75497655  1
  Zn  Zn86  1  0.24793350  0.88194206  0.62607752  1
  Zn  Zn87  1  0.62436028  0.49982209  0.62260003  1
  Zn  Zn88  1  0.38547987  0.11737402  0.24924042  1
  Zn  Zn89  1  0.24781082  0.00406561  0.74988425  1
  Zn  Zn90  1  0.00471057  0.25086790  0.77220544  1
  Zn  Zn91  1  0.62651990  0.87601831  0.74930811  1
  Zn  Zn92  1  0.49664666  0.37636169  0.87486092  1
  Zn  Zn93  1  0.62702374  0.87447877  0.28094792  1
  Zn  Zn94  1  0.19305632  0.19430746  0.18293761  1
  Zn  Zn95  1  0.18804075  0.18786237  0.69390246  1
  Zn  Zn96  1  0.19382115  0.68959474  0.19410762  1
  Zn  Zn97  1  0.18247140  0.69695195  0.68918821  1
  Zn  Zn98  1  0.68374739  0.19245096  0.18481940  1
  Zn  Zn99  1  0.69130653  0.18917898  0.68032596  1
  Zn  Zn100  1  0.69074619  0.68601804  0.18596424  1
  Zn  Zn101  1  0.68193436  0.69364017  0.67675260  1
  Zn  Zn102  1  0.31215352  0.31450383  0.32042066  1
  Zn  Zn103  1  0.30565101  0.31354124  0.81294589  1
  Zn  Zn104  1  0.31412154  0.81063367  0.31505388  1
  Zn  Zn105  1  0.30742596  0.81143682  0.80982408  1
  Zn  Zn106  1  0.81034407  0.31182400  0.30721008  1
  Zn  Zn107  1  0.81229610  0.31875433  0.81217757  1
  Zn  Zn108  1  0.81259546  0.81164787  0.31478502  1
  Zn  Zn109  1  0.81504779  0.81171795  0.81190205  1
  Zn  Zn110  1  0.18094890  0.43634601  0.44236531  1
  Zn  Zn111  1  0.19061449  0.45085864  0.93564072  1
  Zn  Zn112  1  0.18856056  0.93934772  0.44108173  1
  Zn  Zn113  1  0.18798008  0.93965138  0.94061495  1
  Zn  Zn114  1  0.68465947  0.43757481  0.43645842  1
  Zn  Zn115  1  0.68858460  0.43685655  0.93216311  1
  Zn  Zn116  1  0.69171896  0.94306026  0.43731444  1
  Zn  Zn117  1  0.69039415  0.92936542  0.94350217  1
  Zn  Zn118  1  0.31408062  0.06405740  0.06442752  1
  Zn  Zn119  1  0.30786046  0.05501409  0.55687251  1
  Zn  Zn120  1  0.31134143  0.55197000  0.06582247  1
  Zn  Zn121  1  0.30882760  0.56539041  0.56422284  1
  Zn  Zn122  1  0.81238619  0.06039259  0.06412767  1
  Zn  Zn123  1  0.81107373  0.06490618  0.55960089  1
  Zn  Zn124  1  0.81912586  0.56143040  0.05838657  1
  Zn  Zn125  1  0.81169058  0.55874560  0.55989675  1
  Zn  Zn126  1  0.43082328  0.44022832  0.18335175  1
  Zn  Zn127  1  0.41936475  0.42167900  0.71559898  1
  Zn  Zn128  1  0.44184622  0.93241790  0.19237276  1
  Zn  Zn129  1  0.43946908  0.93785888  0.68356303  1
  Zn  Zn130  1  0.94158855  0.43550944  0.19232025  1
  Zn  Zn131  1  0.93433853  0.43191790  0.70513958  1
  Zn  Zn132  1  0.94261034  0.93365930  0.18617259  1
  Zn  Zn133  1  0.94013390  0.93971524  0.69267569  1
  Zn  Zn134  1  0.06461673  0.06411567  0.31090664  1
  Zn  Zn135  1  0.04665803  0.09154765  0.84137961  1
  Zn  Zn136  1  0.06138625  0.56233385  0.31690412  1
  Zn  Zn137  1  0.05876038  0.55523781  0.80653515  1
  Zn  Zn138  1  0.56915938  0.06217291  0.31239555  1
  Zn  Zn139  1  0.56271711  0.06029116  0.81120810  1
  Zn  Zn140  1  0.55881461  0.56208361  0.31247253  1
  Zn  Zn141  1  0.55682563  0.55783979  0.81039698  1
  Zn  Zn142  1  0.43318099  0.18465435  0.44215338  1
  Zn  Zn143  1  0.44530742  0.18833339  0.93149501  1
  Zn  Zn144  1  0.43582655  0.68816733  0.43581500  1
  Zn  Zn145  1  0.41786215  0.64587809  0.95643921  1
  Zn  Zn146  1  0.94049328  0.18294300  0.43539305  1
  Zn  Zn147  1  0.92263828  0.20251086  0.93043837  1
  Zn  Zn148  1  0.93797332  0.68700648  0.44144362  1
  Zn  Zn149  1  0.93823763  0.67465300  0.93560319  1
  Zn  Zn150  1  0.05578591  0.33953865  0.08104708  1
  Zn  Zn151  1  0.05386162  0.31143236  0.55805630  1
  Zn  Zn152  1  0.06497581  0.81399799  0.06373377  1
  Zn  Zn153  1  0.06082249  0.81103405  0.56449959  1
  Zn  Zn154  1  0.56249983  0.31443267  0.05948776  1
  Zn  Zn155  1  0.56799992  0.31361350  0.55542734  1
  Zn  Zn156  1  0.56376040  0.80457123  0.06423214  1
  Zn  Zn157  1  0.56219527  0.81855086  0.55294060  1
  O  O158  1  0.14064453  0.10173009  0.14385079  1
  O  O159  1  0.11356005  0.11918334  0.62217678  1
  O  O160  1  0.13489093  0.61512535  0.13029216  1
  O  O161  1  0.12587573  0.63208128  0.61153533  1
  O  O162  1  0.61890779  0.11322264  0.11698242  1
  O  O163  1  0.63520427  0.11454969  0.61210229  1
  O  O164  1  0.62274363  0.61517195  0.11959747  1
  O  O165  1  0.61963421  0.62136232  0.60881838  1
  O  O166  1  0.38007705  0.38317897  0.38809694  1
  O  O167  1  0.38749961  0.38640236  0.82518491  1
  O  O168  1  0.37101728  0.88420429  0.38552790  1
  O  O169  1  0.38343268  0.87666033  0.88208124  1
  O  O170  1  0.87872276  0.38636606  0.36821716  1
  O  O171  1  0.88317971  0.40089541  0.84127754  1
  O  O172  1  0.88106071  0.88071383  0.38126462  1
  O  O173  1  0.88240176  0.87902494  0.88254430  1
  O  O174  1  0.25985134  0.00268573  0.37496961  1
  O  O175  1  0.26916953  -0.00167551  0.87582016  1
  O  O176  1  0.24986500  0.50255310  0.37144107  1
  O  O177  1  0.26168133  0.49795113  0.86332128  1
  O  O178  1  0.75982131  0.01541763  0.37866236  1
  O  O179  1  0.76080939  -0.01249088  0.87311083  1
  O  O180  1  0.76060511  0.50964285  0.38494429  1
  O  O181  1  0.75310451  0.49515362  0.85269010  1
  O  O182  1  0.24765886  0.50080835  0.14448759  1
  O  O183  1  0.24975111  0.48735290  0.62875718  1
  O  O184  1  0.25237146  0.98377553  0.12359896  1
  O  O185  1  0.23322202  1.00459647  0.62755400  1
  O  O186  1  0.74283748  0.48905524  0.11938273  1
  O  O187  1  0.74747419  0.48812174  0.62714786  1
  O  O188  1  0.74262428  0.98731311  0.11843297  1
  O  O189  1  0.74215135  0.99125823  0.62126552  1
  O  O190  1  -0.00211961  0.36225207  0.26299892  1
  O  O191  1  0.01396083  0.36675431  0.74927207  1
  O  O192  1  0.00860314  0.86391646  0.26025399  1
  O  O193  1  0.00162829  0.86789045  0.76379224  1
  O  O194  1  0.49024708  0.38092841  0.26676938  1
  O  O195  1  0.51558168  0.35610206  0.73654716  1
  O  O196  1  0.50966833  0.85939873  0.24644031  1
  O  O197  1  0.49957476  0.86804396  0.75903936  1
  O  O198  1  0.50580400  0.11932522  0.23534045  1
  O  O199  1  0.49505452  0.13146740  0.74964239  1
  O  O200  1  0.50589884  0.63430014  0.23697178  1
  O  O201  1  0.49503562  0.63891601  0.74304640  1
  O  O202  1  0.99979894  0.14024765  0.25459792  1
  O  O203  1  0.98871004  0.12279564  0.73654411  1
  O  O204  1  0.99027239  0.63791233  0.26056986  1
  O  O205  1  1.00343532  0.64040114  0.75158659  1
  O  O206  1  0.41275342  0.28305075  -0.00659908  1
  O  O207  1  0.35653321  0.25656419  0.49384283  1
  O  O208  1  0.36872731  0.75450433  0.00617400  1
  O  O209  1  0.38189369  0.76549656  0.50369726  1
  O  O210  1  0.86426543  0.24902371  0.01130531  1
  O  O211  1  0.86496454  0.24915294  0.49668206  1
  O  O212  1  0.87193221  0.75165211  0.00550901  1
  O  O213  1  0.86994062  0.76013922  0.50697847  1
  O  O214  1  0.12935571  0.24128333  0.49559927  1
  O  O215  1  0.11344750  0.24378821  1.00858462  1
  O  O216  1  0.11377369  0.73681840  0.49169819  1
  O  O217  1  0.12836149  0.75307084  0.98963020  1
  O  O218  1  0.63112526  0.24146060  0.48953217  1
  O  O219  1  0.62999413  0.24189266  0.99101782  1
  O  O220  1  0.63608446  0.74085396  0.50641772  1
  O  O221  1  0.63514968  0.74351873  0.99263895  1
  O  O222  1  0.50846502  0.23410234  0.12299152  1
  O  O223  1  0.51079163  0.24187075  0.63013837  1
  O  O224  1  0.49388576  0.74381001  0.13398073  1
  O  O225  1  0.49384391  0.75720916  0.63241967  1
  O  O226  1  0.98506457  0.26073464  0.13133606  1
  O  O227  1  1.00014912  0.23689949  0.62819889  1
  O  O228  1  0.99052375  0.75730194  0.13572782  1
  O  O229  1  0.99357354  0.75774774  0.64135973  1
  O  O230  1  0.00320142  0.25626682  0.37121735  1
  O  O231  1  0.01459480  0.19952281  0.87467185  1
  O  O232  1  0.00638520  0.75879475  0.36939922  1
  O  O233  1  0.00619227  0.75461370  0.86981931  1
  O  O234  1  0.49252894  0.26547100  0.38104226  1
  O  O235  1  0.51715402  0.25118350  0.86015097  1
  O  O236  1  0.49461588  0.73993896  0.35521762  1
  O  O237  1  0.50845601  0.75715211  0.86486009  1
  O  O238  1  0.24132595  0.13891160  0.50646811  1
  O  O239  1  0.26193870  0.12584506  0.98835619  1
  O  O240  1  0.22966886  0.61343776  0.49042069  1
  O  O241  1  0.25035570  0.63997785  1.00717554  1
  O  O242  1  0.74574176  0.13873357  0.49569762  1
  O  O243  1  0.73896746  0.13610162  1.00851187  1
  O  O244  1  0.74311400  0.63206640  0.49387929  1
  O  O245  1  0.74232797  0.63679180  1.00531410  1
  O  O246  1  0.26164276  0.39434789  0.00638192  1
  O  O247  1  0.25311849  0.37070022  0.51001455  1
  O  O248  1  0.26040567  0.86681429  0.00771280  1
  O  O249  1  0.26767443  0.88342714  0.50474177  1
  O  O250  1  0.73825846  0.36287507  0.01277902  1
  O  O251  1  0.74631031  0.36412195  0.50585593  1
  O  O252  1  0.76255509  0.86140670  0.00784527  1
  O  O253  1  0.76137493  0.86905810  0.50935742  1
  O  O254  1  0.13620076  0.50595394  0.24765493  1
  O  O255  1  0.12238309  0.47980687  0.75265078  1
  O  O256  1  0.12319196  0.98381493  0.25089519  1
  O  O257  1  0.12247153  1.00168916  0.73663488  1
  O  O258  1  0.62234613  0.49590743  0.23818405  1
  O  O259  1  0.63304319  0.48994093  0.74471152  1
  O  O260  1  0.62174613  0.98971737  0.23635099  1
  O  O261  1  0.62711107  0.99741539  0.74014762  1
  O  O262  1  0.37878124  -0.00518651  0.26435066  1
  O  O263  1  0.38572884  0.01117144  0.75852796  1
  O  O264  1  0.36090390  0.49855638  0.26700788  1
  O  O265  1  0.37863306  0.52720159  0.73433875  1
  O  O266  1  0.87514195  -0.00889169  0.25992796  1
  O  O267  1  0.87031475  0.00720338  0.75746484  1
  O  O268  1  0.88141268  0.51290939  0.25892931  1
  O  O269  1  0.85662290  0.51103334  0.73842300  1
  O  O270  1  0.11207664  0.36020227  0.38499404  1
  O  O271  1  0.12784522  0.37162187  0.87207059  1
  O  O272  1  0.12056571  0.86933262  0.37456153  1
  O  O273  1  0.11353403  0.87321252  0.87937284  1
  O  O274  1  0.60602156  0.37821268  0.37448393  1
  O  O275  1  0.62537098  0.36543257  0.86061679  1
  O  O276  1  0.64455608  0.85867884  0.38824224  1
  O  O277  1  0.61634681  0.86477585  0.87651161  1
  O  O278  1  0.39706911  0.11392293  0.12441028  1
  O  O279  1  0.37527920  0.11371011  0.63497050  1
  O  O280  1  0.38468724  0.63625520  0.12153954  1
  O  O281  1  0.37695993  0.64149274  0.62332443  1
  O  O282  1  0.87628310  0.13636326  0.12238469  1
  O  O283  1  0.88513713  0.11777593  0.63328936  1
  O  O284  1  0.86491004  0.63516344  0.13718655  1
  O  O285  1  0.87030755  0.64155082  0.61641244  1
  O  O286  1  0.23035427  0.27049042  0.10902501  1
  O  O287  1  0.24231853  0.26077325  0.61212752  1
  O  O288  1  0.25679070  0.75780345  0.12037645  1
  O  O289  1  0.26030164  0.75836656  0.62540924  1
  O  O290  1  0.76140581  0.25836824  0.11950496  1
  O  O291  1  0.74875611  0.25968089  0.60889322  1
  O  O292  1  0.76039465  0.75469310  0.11592449  1
  O  O293  1  0.75781636  0.75963300  0.61575153  1
  O  O294  1  0.23221164  0.26086339  0.39097781  1
  O  O295  1  0.25608536  0.23706567  0.87516586  1
  O  O296  1  0.23802894  0.74326648  0.37395720  1
  O  O297  1  0.23270395  0.75611397  0.88241570  1
  O  O298  1  0.75397715  0.24095126  0.38339267  1
  O  O299  1  0.74041456  0.25817113  0.88328403  1
  O  O300  1  0.76308213  0.73646395  0.38792109  1
  O  O301  1  0.74049600  0.75740646  0.88230829  1
  O  O302  1  0.07858308  0.17890497  0.00932545  1
  O  O303  1  0.00537326  0.12804860  0.51374868  1
  O  O304  1  -0.03220195  0.59397753  0.01574966  1
  O  O305  1  0.00884966  0.61232736  0.49637915  1
  O  O306  1  0.51058391  0.11384275  0.00720569  1
  O  O307  1  0.51377782  0.11746292  0.49355443  1
  O  O308  1  0.51737444  0.64044444  0.01710539  1
  O  O309  1  0.50682304  0.61862033  0.49576644  1
  O  O310  1  0.49166942  0.38113425  0.49407263  1
  O  O311  1  0.47007695  0.34258922  0.99147167  1
  O  O312  1  0.48638539  0.88655538  0.50089332  1
  O  O313  1  0.49387069  0.87476061  0.99395553  1
  O  O314  1  0.99892028  0.38824892  0.49001632  1
  O  O315  1  0.98667977  0.40824247  1.02084036  1
  O  O316  1  0.99188158  0.86794706  0.48932583  1
  O  O317  1  0.98813738  0.86656896  0.99237079  1
  O  O318  1  0.48899639  0.49524083  0.38392908  1
  O  O319  1  0.49405025  0.49163849  0.87286909  1
  O  O320  1  0.50073899  0.99827831  0.38272519  1
  O  O321  1  0.49699131  0.98979986  0.88444607  1
  O  O322  1  0.99283214  0.49069197  0.37655022  1
  O  O323  1  0.99374239  0.50094277  0.88638383  1
  O  O324  1  0.99407255  0.98765117  0.36991163  1
  O  O325  1  0.98731854  0.99223525  0.87354460  1
  O  O326  1  0.01525432  -0.00266675  0.12850740  1
  O  O327  1  0.00982404  0.00771742  0.62443474  1
  O  O328  1  0.01893991  0.50414510  0.14160942  1
  O  O329  1  -0.01150725  0.49133815  0.61320379  1
  O  O330  1  0.51067420  -0.00637441  0.11369989  1
  O  O331  1  0.51413980  -0.00454990  0.61379361  1
  O  O332  1  0.50673553  0.50880035  0.12850459  1
  O  O333  1  0.49711063  0.50030751  0.60976467  1
  O  O334  1  0.24374677  0.38860235  0.25969208  1
  O  O335  1  0.23500609  0.36892010  0.73334338  1
  O  O336  1  0.24058666  0.86400601  0.24187756  1
  O  O337  1  0.24560750  0.88391240  0.74666621  1
  O  O338  1  0.74445734  0.37303096  0.23300322  1
  O  O339  1  0.74099561  0.37177532  0.73255520  1
  O  O340  1  0.74693907  0.86266746  0.23565079  1
  O  O341  1  0.75036030  0.87414600  0.73642261  1
  O  O342  1  0.27892501  0.16980225  0.25699121  1
  O  O343  1  0.27078385  0.12557649  0.75612582  1
  O  O344  1  0.24800344  0.61746494  0.26968004  1
  O  O345  1  0.25952893  0.62898049  0.73834829  1
  O  O346  1  0.74840997  0.12997453  0.26321891  1
  O  O347  1  0.76537174  0.12428161  0.73911353  1
  O  O348  1  0.76044831  0.63260917  0.26283216  1
  O  O349  1  0.73775013  0.61508321  0.73943896  1
  O  O350  1  0.38139723  0.10789203  0.37435600  1
  O  O351  1  0.37506681  0.11615271  0.87167886  1
  O  O352  1  0.36003863  0.61290810  0.39266405  1
  O  O353  1  0.37615131  0.64336420  0.84995654  1
  O  O354  1  0.86639216  0.11612287  0.37752794  1
  O  O355  1  0.87377096  0.11246089  0.86281479  1
  O  O356  1  0.86942468  0.61761136  0.37029439  1
  O  O357  1  0.87839666  0.60296684  0.86812071  1
  O  O358  1  0.14317908  0.40101635  0.12108485  1
  O  O359  1  0.13126193  0.37812867  0.61484415  1
  O  O360  1  0.13287655  0.88121283  0.13353991  1
  O  O361  1  0.12259697  0.88975395  0.62071735  1
  O  O362  1  0.62625811  0.38458230  0.12250180  1
  O  O363  1  0.63474033  0.37619619  0.62803729  1
  O  O364  1  0.63688769  0.87981303  0.11412378  1
  O  O365  1  0.63518204  0.88330860  0.62165447  1
  O  O366  1  0.11882302  0.24652741  0.26616664  1
  O  O367  1  0.12426102  0.26379137  0.74820257  1
  O  O368  1  0.11834733  0.75654339  0.26007082  1
  O  O369  1  0.11381562  0.75547839  0.76261447  1
  O  O370  1  0.62355865  0.25452941  0.25510557  1
  O  O371  1  0.62190085  0.24926971  0.75097587  1
  O  O372  1  0.61608756  0.74958305  0.24510722  1
  O  O373  1  0.61764507  0.75282695  0.75483755  1
  O  O374  1  0.34058440  0.23277020  0.24683586  1
  O  O375  1  0.39328431  0.23593982  0.74499598  1
  O  O376  1  0.38378623  0.75678214  0.23933395  1
  O  O377  1  0.38008328  0.74898865  0.73774924  1
  O  O378  1  0.87833002  0.25115389  0.23459335  1
  O  O379  1  0.87851387  0.23406432  0.76207252  1
  O  O380  1  0.88278361  0.74408718  0.24444929  1
  O  O381  1  0.88682159  0.75237071  0.74492861  1
  O  O382  1  0.37804729  0.49163257  0.49539756  1
  O  O383  1  0.38531964  0.54025671  0.98678416  1
  O  O384  1  0.38259208  0.99532027  0.48831637  1
  O  O385  1  0.38607579  0.98685661  0.99448305  1
  O  O386  1  0.88818900  0.50826308  0.48862979  1
  O  O387  1  0.85032132  0.48717186  0.97796757  1
  O  O388  1  0.87144146  0.98802576  0.49239732  1
  O  O389  1  0.86933279  0.98775503  0.99346257  1
  O  O390  1  0.12937048  -0.00118717  0.01747047  1
  O  O391  1  0.13018873  0.01462998  0.50743319  1
  O  O392  1  0.11585924  0.51032562  0.00928118  1
  O  O393  1  0.10919532  0.50932003  0.49861810  1
  O  O394  1  0.62080198  0.00366317  0.00350528  1
  O  O395  1  0.62108148  0.00820356  0.50420023  1
  O  O396  1  0.63225925  0.51166319  0.00377460  1
  O  O397  1  0.61506788  0.50777001  0.49880560  1
  O  O398  1  0.35146471  0.37693562  0.13808429  1
  O  O399  1  0.36734957  0.37623369  0.61677021  1
  O  O400  1  0.37233916  0.86669484  0.11742041  1
  O  O401  1  0.37449222  0.87292331  0.61380228  1
  O  O402  1  0.86208697  0.37867253  0.12775286  1
  O  O403  1  0.86034803  0.37490165  0.62924736  1
  O  O404  1  0.87056659  0.86577623  0.11934392  1
  O  O405  1  0.87110226  0.87184044  0.61943863  1
  O  O406  1  0.11481115  0.13902177  0.38634426  1
  O  O407  1  0.15628299  0.10663303  0.86684243  1
  O  O408  1  0.12779956  0.63377299  0.38197756  1
  O  O409  1  0.11801549  0.63841956  0.87344694  1
  O  O410  1  0.64157957  0.12145629  0.38348649  1
  O  O411  1  0.62223326  0.13003202  0.88436640  1
  O  O412  1  0.63522235  0.61733983  0.38371980  1
  O  O413  1  0.61668574  0.63592840  0.88212465  1
