# generated using pymatgen
data_V79Zn79O256
_symmetry_space_group_name_H-M   'P 1'
_cell_length_a   16.86946334
_cell_length_b   16.87079500
_cell_length_c   16.87943549
_cell_angle_alpha   89.98095204
_cell_angle_beta   90.02894583
_cell_angle_gamma   89.92140076
_symmetry_Int_Tables_number   1
_chemical_formula_structural   V79Zn79O256
_chemical_formula_sum   'V79 Zn79 O256'
_cell_volume   4803.90317226
_cell_formula_units_Z   1
loop_
 _symmetry_equiv_pos_site_id
 _symmetry_equiv_pos_as_xyz
  1  'x, y, z'
loop_
 _atom_site_type_symbol
 _atom_site_label
 _atom_site_symmetry_multiplicity
 _atom_site_fract_x
 _atom_site_fract_y
 _atom_site_fract_z
 _atom_site_occupancy
  V  V0  1  0.86131299  0.24262063  0.10737078  1
  V  V1  1  0.75473894  0.75861616  0.00906281  1
  V  V2  1  0.50032816  0.24887395  0.74743280  1
  V  V3  1  0.86291839  0.38490411  -0.00168911  1
  V  V4  1  0.24719038  0.37754898  0.13467864  1
  V  V5  1  0.50340135  -0.00223859  -0.00251805  1
  V  V6  1  0.25336744  -0.00109272  0.25116898  1
  V  V7  1  0.38570216  0.87681960  0.50162136  1
  V  V8  1  0.37614665  0.24756218  0.62166365  1
  V  V9  1  0.63320591  0.12764854  0.49175187  1
  V  V10  1  0.13473135  0.63314595  0.50087784  1
  V  V11  1  0.23975827  0.87218181  0.61596369  1
  V  V12  1  0.64056347  0.88001743  0.74645104  1
  V  V13  1  0.64535712  -0.00538597  0.62017451  1
  V  V14  1  0.00614572  0.00453227  0.49540910  1
  V  V15  1  0.25431266  0.50585815  0.77180744  1
  V  V16  1  0.12018496  0.24639995  0.37808708  1
  V  V17  1  0.12448315  0.87351788  0.25105490  1
  V  V18  1  0.38019013  0.00106435  0.37526552  1
  V  V19  1  0.86968842  0.12095182  0.74518710  1
  V  V20  1  -0.00611717  0.38898774  0.87892795  1
  V  V21  1  0.62861616  0.74898030  0.87428853  1
  V  V22  1  0.75267882  0.61214872  0.87219670  1
  V  V23  1  0.00372416  0.87011029  0.88134885  1
  V  V24  1  0.12927705  0.75287175  0.37823528  1
  V  V25  1  0.86124388  0.25315082  0.62169485  1
  V  V26  1  0.24926946  0.24318870  0.00064210  1
  V  V27  1  0.74499620  -0.01793818  0.24480605  1
  V  V28  1  0.00326977  0.24241331  0.23187976  1
  V  V29  1  0.50983349  0.36163387  0.36303375  1
  V  V30  1  0.62920476  0.12670512  0.00348547  1
  V  V31  1  0.12112653  0.50414229  0.12074254  1
  V  V32  1  0.61721965  0.62833848  0.51702335  1
  V  V33  1  0.85974061  0.13199650  0.25306852  1
  V  V34  1  -0.00074180  0.25008396  0.74722865  1
  V  V35  1  0.87385303  -0.00410590  0.87459284  1
  V  V36  1  0.12406921  0.86949381  0.75521950  1
  V  V37  1  0.62950672  0.24900001  0.87665862  1
  V  V38  1  0.24451828  -0.00234719  0.74615743  1
  V  V39  1  0.50108744  0.10981938  0.62024750  1
  V  V40  1  0.12360222  0.24912628  0.87478347  1
  V  V41  1  0.89183571  0.63074937  0.25827602  1
  V  V42  1  0.12236859  0.00117806  0.12927319  1
  V  V43  1  0.36873793  0.63863577  0.24600124  1
  V  V44  1  0.37764034  0.62482006  0.77025050  1
  V  V45  1  0.37672275  -0.00228668  0.87499557  1
  V  V46  1  0.24470830  0.24377397  0.50067209  1
  V  V47  1  0.11884817  0.12704122  0.00739992  1
  V  V48  1  -0.01104852  0.87348886  0.37401948  1
  V  V49  1  0.87148106  0.61377087  0.75177291  1
  V  V50  1  0.01206775  0.12299642  0.61662680  1
  V  V51  1  0.62734626  0.61853536  0.00594720  1
  V  V52  1  0.12531913  0.37793940  0.75125686  1
  V  V53  1  -0.00224375  0.61454665  0.10893803  1
  V  V54  1  0.75458424  0.76492197  0.50701643  1
  V  V55  1  0.24752747  0.61919143  0.37297212  1
  V  V56  1  0.37486164  0.12347141  0.74861484  1
  V  V57  1  0.49834505  0.12339665  0.13765188  1
  V  V58  1  -0.00009711  0.62763009  0.62882397  1
  V  V59  1  0.49172277  0.64396713  0.12925550  1
  V  V60  1  0.49593712  0.37778236  0.87593039  1
  V  V61  1  -0.00512058  0.00352363  0.00429604  1
  V  V62  1  0.50395963  0.86978307  0.35893543  1
  V  V63  1  0.63457961  0.38648732  0.73686427  1
  V  V64  1  0.75062311  0.12266030  0.87440007  1
  V  V65  1  0.13769783  0.50164060  0.62457411  1
  V  V66  1  0.62418233  0.74741526  0.35788140  1
  V  V67  1  0.37758835  0.37397241  0.49685973  1
  V  V68  1  0.37500365  0.49711218  0.36549692  1
  V  V69  1  0.50069514  0.87465064  0.87144997  1
  V  V70  1  0.25131115  0.12355795  0.37416220  1
  V  V71  1  0.86096677  0.38011389  0.50394183  1
  V  V72  1  0.37213968  0.37517938  0.00049600  1
  V  V73  1  0.00453470  0.49754006  0.49963028  1
  V  V74  1  0.37570021  0.74375262  0.61692631  1
  V  V75  1  0.49605764  0.49792195  0.00520995  1
  V  V76  1  0.88154231  0.76068365  0.12584073  1
  V  V77  1  0.37410998  0.23901771  0.13599725  1
  V  V78  1  0.87828098  0.50337730  0.37675445  1
  Zn  Zn79  1  0.62162195  0.47736861  0.15134660  1
  Zn  Zn80  1  0.00411034  0.74222852  0.76153664  1
  Zn  Zn81  1  0.31446642  0.81544996  0.06965182  1
  Zn  Zn82  1  0.74660464  0.50364686  0.24564428  1
  Zn  Zn83  1  0.86197505  0.00893670  0.38294658  1
  Zn  Zn84  1  0.86732633  0.76665725  0.63400333  1
  Zn  Zn85  1  0.12164130  0.38334070  0.25396436  1
  Zn  Zn86  1  0.74655883  0.62823999  0.37774138  1
  Zn  Zn87  1  0.51163216  0.49922577  0.50731571  1
  Zn  Zn88  1  0.63428875  -0.02889905  0.12394631  1
  Zn  Zn89  1  0.25239613  0.37250388  0.62712641  1
  Zn  Zn90  1  0.74705473  0.24781414  0.46030048  1
  Zn  Zn91  1  0.50627974  0.74014588  0.74071572  1
  Zn  Zn92  1  0.24880402  0.12143636  0.87501923  1
  Zn  Zn93  1  -0.00123541  0.37135747  0.37229122  1
  Zn  Zn94  1  0.18893188  0.18512110  0.19005812  1
  Zn  Zn95  1  0.18888520  0.18724813  0.68918468  1
  Zn  Zn96  1  0.18063442  0.68499945  0.18952450  1
  Zn  Zn97  1  0.19228026  0.68773939  0.69321870  1
  Zn  Zn98  1  0.68288220  0.20428992  0.18929435  1
  Zn  Zn99  1  0.68382194  0.18547891  0.68792821  1
  Zn  Zn100  1  0.69910826  0.66093518  0.18256635  1
  Zn  Zn101  1  0.69308894  0.68899780  0.68678274  1
  Zn  Zn102  1  0.31539299  0.30813894  0.31477864  1
  Zn  Zn103  1  0.31137199  0.31318898  0.81248317  1
  Zn  Zn104  1  0.30845139  0.81379531  0.31658659  1
  Zn  Zn105  1  0.31276673  0.81119266  0.81132628  1
  Zn  Zn106  1  0.79094634  0.32947519  0.29387776  1
  Zn  Zn107  1  0.81286456  0.31342431  0.81212789  1
  Zn  Zn108  1  0.80803873  0.80675492  0.31013590  1
  Zn  Zn109  1  0.81937409  0.80440524  0.81546455  1
  Zn  Zn110  1  0.19106737  0.43509675  0.43551385  1
  Zn  Zn111  1  0.18078870  0.43504510  0.94431561  1
  Zn  Zn112  1  0.18317558  0.94158449  0.43976888  1
  Zn  Zn113  1  0.18548169  0.93949586  0.93852673  1
  Zn  Zn114  1  0.68524043  0.44650511  0.43228180  1
  Zn  Zn115  1  0.68335008  0.43329901  0.93600331  1
  Zn  Zn116  1  0.68573525  0.94062495  0.43063287  1
  Zn  Zn117  1  0.68897201  0.93907653  0.93779610  1
  Zn  Zn118  1  0.33340416  0.02077698  0.08370593  1
  Zn  Zn119  1  0.31086008  0.05820434  0.56095690  1
  Zn  Zn120  1  0.30705536  0.56141550  0.06467175  1
  Zn  Zn121  1  0.34851676  0.54205473  0.58084555  1
  Zn  Zn122  1  0.81297352  0.06256053  0.06592413  1
  Zn  Zn123  1  0.81747822  0.06173945  0.55801016  1
  Zn  Zn124  1  0.80885689  0.56191178  0.06749334  1
  Zn  Zn125  1  0.80577133  0.57246159  0.56293953  1
  Zn  Zn126  1  0.43519889  0.43623118  0.18725738  1
  Zn  Zn127  1  0.44439815  0.43767843  0.68727024  1
  Zn  Zn128  1  0.44182760  0.92690457  0.18129264  1
  Zn  Zn129  1  0.43711980  0.92964879  0.68983663  1
  Zn  Zn130  1  0.91808774  0.42363833  0.19267929  1
  Zn  Zn131  1  0.93668967  0.43765763  0.68419584  1
  Zn  Zn132  1  0.93665120  0.94612969  0.19278656  1
  Zn  Zn133  1  0.93729889  0.94028599  0.68854643  1
  Zn  Zn134  1  0.06004000  0.06652948  0.31460928  1
  Zn  Zn135  1  0.06034870  0.06294193  0.81277793  1
  Zn  Zn136  1  0.06270057  0.56331905  0.30586781  1
  Zn  Zn137  1  0.06875328  0.56911351  0.82049702  1
  Zn  Zn138  1  0.56779050  0.05332331  0.31233897  1
  Zn  Zn139  1  0.56654569  0.06077382  0.80731085  1
  Zn  Zn140  1  0.55546817  0.56297857  0.31773476  1
  Zn  Zn141  1  0.56092511  0.56092025  0.81386362  1
  Zn  Zn142  1  0.44273960  0.18408478  0.43528064  1
  Zn  Zn143  1  0.43774136  0.18486753  0.93950085  1
  Zn  Zn144  1  0.43734588  0.68940382  0.43521629  1
  Zn  Zn145  1  0.43870653  0.69007759  0.94209423  1
  Zn  Zn146  1  0.93120374  0.19109696  0.43744811  1
  Zn  Zn147  1  0.93923575  0.18732945  0.93165700  1
  Zn  Zn148  1  0.94437261  0.69405650  0.44600176  1
  Zn  Zn149  1  0.93400722  0.68284978  0.93717771  1
  Zn  Zn150  1  0.06008023  0.32078143  0.06068214  1
  Zn  Zn151  1  0.06078659  0.31244963  0.56498305  1
  Zn  Zn152  1  0.05932749  0.81480663  0.06549762  1
  Zn  Zn153  1  0.03450745  0.83103989  0.57723926  1
  Zn  Zn154  1  0.55807810  0.30425173  0.06392411  1
  Zn  Zn155  1  0.56600963  0.30989291  0.55553084  1
  Zn  Zn156  1  0.55814559  0.80700951  0.06071754  1
  Zn  Zn157  1  0.56379697  0.81058227  0.56038242  1
  O  O158  1  0.12505220  0.11838035  0.11606549  1
  O  O159  1  0.11094630  0.13039790  0.62738172  1
  O  O160  1  0.10987192  0.61647968  0.12761445  1
  O  O161  1  0.12726861  0.61737011  0.62053256  1
  O  O162  1  0.61256107  0.13762295  0.11497929  1
  O  O163  1  0.62163460  0.10816728  0.62548015  1
  O  O164  1  0.60051210  0.64412386  0.11435164  1
  O  O165  1  0.62118058  0.63436419  0.61772333  1
  O  O166  1  0.38073187  0.37823120  0.37752479  1
  O  O167  1  0.38477328  0.36487689  0.88790874  1
  O  O168  1  0.38332011  0.87579170  0.38208970  1
  O  O169  1  0.38898548  0.88772034  0.86230538  1
  O  O170  1  0.88182459  0.39042371  0.38872217  1
  O  O171  1  0.88558407  0.37031477  0.88273978  1
  O  O172  1  0.88812095  0.87335306  0.36681435  1
  O  O173  1  0.88724518  0.88688800  0.86741305  1
  O  O174  1  0.25502633  0.00593802  0.37147126  1
  O  O175  1  0.26020100  -0.00289630  0.86980833  1
  O  O176  1  0.25341143  0.51106689  0.37105937  1
  O  O177  1  0.24640352  0.49740657  0.87080187  1
  O  O178  1  0.75121489  -0.00441490  0.35510387  1
  O  O179  1  0.76099983  0.00899827  0.87886470  1
  O  O180  1  0.77060531  0.50823599  0.37851960  1
  O  O181  1  0.74248203  0.51334983  0.87777925  1
  O  O182  1  0.23821674  0.48898933  0.12224569  1
  O  O183  1  0.24451353  0.49786652  0.62723777  1
  O  O184  1  0.23318229  1.00739001  0.13846620  1
  O  O185  1  0.25667432  0.98552320  0.63577773  1
  O  O186  1  0.71815761  0.54620302  0.13183682  1
  O  O187  1  0.76693205  0.49566954  0.63340103  1
  O  O188  1  0.74804026  1.00396794  0.13641199  1
  O  O189  1  0.74426647  0.99830808  0.62614738  1
  O  O190  1  -0.00261611  0.35511843  0.25150881  1
  O  O191  1  0.00340762  0.37041296  0.75728854  1
  O  O192  1  0.01088778  0.88863134  0.26667471  1
  O  O193  1  0.01026784  0.87903873  0.76527637  1
  O  O194  1  0.49823174  0.37995847  0.26335921  1
  O  O195  1  0.50088838  0.36656319  0.75851015  1
  O  O196  1  0.49583463  0.86839812  0.25969120  1
  O  O197  1  0.51208301  0.86973267  0.75949153  1
  O  O198  1  0.50617231  0.11785291  0.23594728  1
  O  O199  1  0.49671680  0.13151823  0.74299068  1
  O  O200  1  0.48915948  0.63211610  0.23690199  1
  O  O201  1  0.48330496  0.62263897  0.75473279  1
  O  O202  1  0.99156497  0.13825863  0.25253924  1
  O  O203  1  0.99260984  0.12879151  0.73930745  1
  O  O204  1  0.99571172  0.63659130  0.24121121  1
  O  O205  1  0.99001679  0.62060059  0.74606217  1
  O  O206  1  0.36690786  0.25388106  0.00662455  1
  O  O207  1  0.36724568  0.25389283  0.50174192  1
  O  O208  1  0.35217165  0.76708941  -0.03509384  1
  O  O209  1  0.37339208  0.75775288  0.51003609  1
  O  O210  1  0.87554680  0.24605325  0.00324649  1
  O  O211  1  0.86554161  0.26046653  0.50361272  1
  O  O212  1  0.86256630  0.74528211  0.00880465  1
  O  O213  1  0.85780598  0.74612436  0.49836123  1
  O  O214  1  0.13504207  0.25611416  0.49351767  1
  O  O215  1  0.12978089  0.24570955  0.99698132  1
  O  O216  1  0.11744839  0.73988338  0.49085003  1
  O  O217  1  0.15696468  0.79208583  1.00427096  1
  O  O218  1  0.63510360  0.23323486  0.50774690  1
  O  O219  1  0.61548782  0.24036326  0.98496571  1
  O  O220  1  0.63364524  0.74510208  0.49662356  1
  O  O221  1  0.63364276  0.73940164  0.99275658  1
  O  O222  1  0.48730297  0.23243034  0.11819252  1
  O  O223  1  0.49654387  0.24090337  0.63455490  1
  O  O224  1  0.47117194  0.73956564  0.10242867  1
  O  O225  1  0.48072545  0.75896167  0.62785811  1
  O  O226  1  1.00651829  0.24516013  0.13059997  1
  O  O227  1  0.99133754  0.24021631  0.62712616  1
  O  O228  1  0.98782733  0.73659291  0.11134223  1
  O  O229  1  1.01824521  0.72864522  0.62999665  1
  O  O230  1  0.01027465  0.24914422  0.37494286  1
  O  O231  1  0.00607498  0.25464454  0.86473892  1
  O  O232  1  0.00956643  0.76679167  0.38027940  1
  O  O233  1  -0.00588812  0.76733336  0.88347016  1
  O  O234  1  0.49622967  0.26075925  0.37174889  1
  O  O235  1  0.50528281  0.25387181  0.86581364  1
  O  O236  1  0.50912064  0.76027791  0.37469204  1
  O  O237  1  0.51443784  0.75724997  0.88020230  1
  O  O238  1  0.25446742  0.13398864  0.49141855  1
  O  O239  1  0.23964527  0.13576801  0.99903503  1
  O  O240  1  0.23880827  0.62126596  0.48823317  1
  O  O241  1  0.25062635  0.66089830  1.04189908  1
  O  O242  1  0.73831238  0.12275871  0.49809937  1
  O  O243  1  0.73827596  0.12022425  0.98936217  1
  O  O244  1  0.73749593  0.63885152  0.49641086  1
  O  O245  1  0.74234892  0.63247108  0.99126648  1
  O  O246  1  0.25507270  0.36420972  0.00787800  1
  O  O247  1  0.25827158  0.36034351  0.49929828  1
  O  O248  1  0.21030285  0.85333990  0.01618391  1
  O  O249  1  0.25209770  0.87898264  0.51295002  1
  O  O250  1  0.76290947  0.37128595  -0.01062912  1
  O  O251  1  0.75967241  0.37925992  0.49556005  1
  O  O252  1  0.74429165  0.85772322  -0.00198753  1
  O  O253  1  0.74435207  0.86457898  0.49470089  1
  O  O254  1  0.12144492  0.49800254  0.23419396  1
  O  O255  1  0.13904397  0.49965423  0.74503247  1
  O  O256  1  0.12983908  0.99724562  0.24771757  1
  O  O257  1  0.13724243  0.99248817  0.75691578  1
  O  O258  1  0.63180286  0.50419961  0.26222789  1
  O  O259  1  0.61602052  0.48492151  0.75203975  1
  O  O260  1  0.64006577  0.99921677  0.24456566  1
  O  O261  1  0.62906007  0.98739242  0.74228475  1
  O  O262  1  0.36334024  -0.01007133  0.26249596  1
  O  O263  1  0.36757257  0.00349248  0.75613170  1
  O  O264  1  0.37753313  0.50850864  0.26052206  1
  O  O265  1  0.36208941  0.50929051  0.75089513  1
  O  O266  1  0.86437173  0.01832078  0.24664827  1
  O  O267  1  0.88264366  0.01164471  0.75877754  1
  O  O268  1  0.89912875  0.51857698  0.26668004  1
  O  O269  1  0.87295779  0.51350869  0.74172320  1
  O  O270  1  0.12522006  0.36238645  0.37159312  1
  O  O271  1  0.11393035  0.36984505  0.87109811  1
  O  O272  1  0.12281972  0.86917506  0.37020960  1
  O  O273  1  0.11230047  0.88069770  0.86986919  1
  O  O274  1  0.60724293  0.37824841  0.38699313  1
  O  O275  1  0.61315901  0.36535807  0.87035766  1
  O  O276  1  0.61023455  0.86654487  0.37560013  1
  O  O277  1  0.62331204  0.87030072  0.86433529  1
  O  O278  1  0.38899829  0.12231570  0.11860148  1
  O  O279  1  0.38230314  0.12641915  0.62788371  1
  O  O280  1  0.38362885  0.61213037  0.13872974  1
  O  O281  1  0.35989105  0.64427161  0.62818607  1
  O  O282  1  0.87615091  0.13667279  0.13028539  1
  O  O283  1  0.88044018  0.13274570  0.63129017  1
  O  O284  1  0.88720467  0.62435422  0.13583291  1
  O  O285  1  0.88554832  0.63194324  0.63386904  1
  O  O286  1  0.25327289  0.25314967  0.11705409  1
  O  O287  1  0.25611113  0.24793227  0.61731477  1
  O  O288  1  0.26133929  0.71387815  0.10520626  1
  O  O289  1  0.25964360  0.76667355  0.63353599  1
  O  O290  1  0.76327040  0.25068906  0.11599352  1
  O  O291  1  0.76133433  0.24520002  0.62845535  1
  O  O292  1  0.76250781  0.74106210  0.11487956  1
  O  O293  1  0.75146250  0.75578506  0.61377840  1
  O  O294  1  0.24471137  0.24132011  0.38050690  1
  O  O295  1  0.24335192  0.25053563  0.88419289  1
  O  O296  1  0.23854586  0.73873084  0.37451337  1
  O  O297  1  0.28937346  0.75713391  0.91265469  1
  O  O298  1  0.74056920  0.25486631  0.34998506  1
  O  O299  1  0.73899527  0.23764000  0.86934155  1
  O  O300  1  0.73583396  0.75342539  0.38267456  1
  O  O301  1  0.74370729  0.74239808  0.88568563  1
  O  O302  1  0.01043401  0.11683741  -0.00725527  1
  O  O303  1  -0.00185319  0.12467117  0.50976833  1
  O  O304  1  -0.00777683  0.61662344  0.00923826  1
  O  O305  1  0.01053089  0.61614766  0.50873347  1
  O  O306  1  0.51205882  0.11421508  -0.00280777  1
  O  O307  1  0.51216757  0.13068408  0.51458708  1
  O  O308  1  0.50104627  0.61558839  0.00716538  1
  O  O309  1  0.51355675  0.63190671  0.49814110  1
  O  O310  1  0.48754792  0.37099469  0.49217190  1
  O  O311  1  0.49309333  0.37741482  0.99680367  1
  O  O312  1  0.48905663  0.87353371  0.49365695  1
  O  O313  1  0.51015934  0.88693147  0.98385307  1
  O  O314  1  0.99620963  0.38802538  0.50214183  1
  O  O315  1  0.99640544  0.37385079  0.98185741  1
  O  O316  1  1.00853643  0.89223931  0.48226979  1
  O  O317  1  1.00489464  0.88889007  0.98925054  1
  O  O318  1  0.48597913  0.49552469  0.38600920  1
  O  O319  1  0.50218959  0.48687206  0.88958646  1
  O  O320  1  0.49063051  0.98413854  0.36837846  1
  O  O321  1  0.49850668  0.99473627  0.87624204  1
  O  O322  1  1.00095608  0.50147627  0.38748224  1
  O  O323  1  1.00273780  0.48755365  0.86781892  1
  O  O324  1  0.99441448  0.99725956  0.38119853  1
  O  O325  1  0.99312935  0.99563544  0.88342755  1
  O  O326  1  0.00782680  -0.00102152  0.11548254  1
  O  O327  1  -0.00204088  0.01578059  0.61326069  1
  O  O328  1  0.00502197  0.50760613  0.12753822  1
  O  O329  1  0.01437101  0.50775960  0.62057112  1
  O  O330  1  0.50349375  0.01073855  0.11446527  1
  O  O331  1  0.50303009  0.00686784  0.63280654  1
  O  O332  1  0.50679864  0.49936405  0.11542734  1
  O  O333  1  0.45797117  0.51002487  0.60609193  1
  O  O334  1  0.24808797  0.36524854  0.23728632  1
  O  O335  1  0.24750178  0.38857072  0.75048616  1
  O  O336  1  0.23755317  0.88716028  0.25878037  1
  O  O337  1  0.24351364  0.87992262  0.74619946  1
  O  O338  1  0.80465628  0.40931649  0.22282695  1
  O  O339  1  0.73268377  0.37121874  0.75673247  1
  O  O340  1  0.75852339  0.88315996  0.24152703  1
  O  O341  1  0.73911983  0.86740124  0.75440233  1
  O  O342  1  0.24789531  0.11400896  0.26269712  1
  O  O343  1  0.25534619  0.11483501  0.75067560  1
  O  O344  1  0.26020946  0.62672539  0.25633853  1
  O  O345  1  0.25857405  0.61336433  0.75400115  1
  O  O346  1  0.75819636  0.13324088  0.24327086  1
  O  O347  1  0.75971341  0.12627436  0.75881487  1
  O  O348  1  0.77685012  0.62340190  0.26189554  1
  O  O349  1  0.76246262  0.63188325  0.75770455  1
  O  O350  1  0.36795850  0.11211491  0.38112114  1
  O  O351  1  0.37461981  0.11719870  0.86594787  1
  O  O352  1  0.36925070  0.62141517  0.36512236  1
  O  O353  1  0.37509997  0.62434894  0.86946022  1
  O  O354  1  0.87303660  0.13185980  0.35722936  1
  O  O355  1  0.86943726  0.11923198  0.86536621  1
  O  O356  1  0.88939677  0.62540602  0.36850040  1
  O  O357  1  0.86861231  0.62530742  0.86210510  1
  O  O358  1  0.13033026  0.38322758  0.12730775  1
  O  O359  1  0.12676800  0.38497700  0.63213181  1
  O  O360  1  0.11380771  0.88685526  0.14178095  1
  O  O361  1  0.13514857  0.87289584  0.63170408  1
  O  O362  1  0.63153878  0.35621571  0.13642117  1
  O  O363  1  0.61673498  0.37000995  0.63841929  1
  O  O364  1  0.61333872  0.86330219  0.13416102  1
  O  O365  1  0.62139138  0.88449522  0.63578619  1
  O  O366  1  0.11401758  0.24748012  0.25639744  1
  O  O367  1  0.12151729  0.25732245  0.75409300  1
  O  O368  1  0.12919715  0.76231841  0.25902951  1
  O  O369  1  0.12499141  0.76424098  0.75079127  1
  O  O370  1  0.63810867  0.31250469  0.20736975  1
  O  O371  1  0.61506326  0.25357318  0.75707334  1
  O  O372  1  0.63612749  0.73859345  0.26042594  1
  O  O373  1  0.62501164  0.75707136  0.75854099  1
  O  O374  1  0.36672817  0.24226583  0.23539537  1
  O  O375  1  0.38152436  0.24517316  0.74458041  1
  O  O376  1  0.36871428  0.73901409  0.24897704  1
  O  O377  1  0.37397620  0.73616982  0.74665099  1
  O  O378  1  0.88562617  0.24310157  0.23133899  1
  O  O379  1  0.87965826  0.24242415  0.74293589  1
  O  O380  1  0.87407923  0.74123949  0.23587475  1
  O  O381  1  0.88453479  0.73888691  0.74878907  1
  O  O382  1  0.35783394  0.48208129  0.48194963  1
  O  O383  1  0.37990277  0.48582549  1.00890391  1
  O  O384  1  0.36853969  0.98822677  0.48762535  1
  O  O385  1  0.38942483  1.00956034  0.98223944  1
  O  O386  1  0.88653831  0.50084778  0.49671985  1
  O  O387  1  0.87032103  0.48441576  1.01059863  1
  O  O388  1  0.89250219  1.00877596  0.49376839  1
  O  O389  1  0.88471589  1.01007135  0.98949912  1
  O  O390  1  0.11908994  0.00828878  0.00885529  1
  O  O391  1  0.10847545  0.01023396  0.49290613  1
  O  O392  1  0.12348053  0.49798852  0.01840282  1
  O  O393  1  0.12303586  0.50597266  0.50666638  1
  O  O394  1  0.62015387  0.00812385  0.00271730  1
  O  O395  1  0.62900555  0.00477669  0.51530789  1
  O  O396  1  0.61530668  0.50914676  -0.00064603  1
  O  O397  1  0.62746949  0.52279325  0.49739636  1
  O  O398  1  0.36850165  0.36348658  0.11826898  1
  O  O399  1  0.37375198  0.36401983  0.61527569  1
  O  O400  1  0.36216506  0.90746623  0.10689935  1
  O  O401  1  0.36554125  0.86911163  0.61918443  1
  O  O402  1  0.89152834  0.35462584  0.10030826  1
  O  O403  1  0.88302887  0.36431907  0.61493363  1
  O  O404  1  0.88756594  0.85950093  0.13001458  1
  O  O405  1  0.92747618  0.85912142  0.61594440  1
  O  O406  1  0.13625025  0.13571413  0.37353551  1
  O  O407  1  0.12686498  0.13044216  0.88457887  1
  O  O408  1  0.12839160  0.63169150  0.37928548  1
  O  O409  1  0.12446681  0.65304308  0.86216033  1
  O  O410  1  0.61417986  0.11587565  0.39451811  1
  O  O411  1  0.63155398  0.12843214  0.87784830  1
  O  O412  1  0.62063016  0.64176429  0.38134645  1
  O  O413  1  0.62897529  0.63149090  0.88204205  1
