# generated using pymatgen
data_V79Zn79O256
_symmetry_space_group_name_H-M   'P 1'
_cell_length_a   16.92958257
_cell_length_b   16.95417168
_cell_length_c   16.95994143
_cell_angle_alpha   90.11667679
_cell_angle_beta   90.36045311
_cell_angle_gamma   89.67060889
_symmetry_Int_Tables_number   1
_chemical_formula_structural   V79Zn79O256
_chemical_formula_sum   'V79 Zn79 O256'
_cell_volume   4867.77543300
_cell_formula_units_Z   1
loop_
 _symmetry_equiv_pos_site_id
 _symmetry_equiv_pos_as_xyz
  1  'x, y, z'
loop_
 _atom_site_type_symbol
 _atom_site_label
 _atom_site_symmetry_multiplicity
 _atom_site_fract_x
 _atom_site_fract_y
 _atom_site_fract_z
 _atom_site_occupancy
  V  V0  1  0.00454710  0.87910620  0.37800975  1
  V  V1  1  0.75555676  0.37246526  0.12944955  1
  V  V2  1  0.12352422  0.61766273  0.50356219  1
  V  V3  1  0.12166150  0.36824525  0.25167354  1
  V  V4  1  0.75391604  0.49992505  0.75772649  1
  V  V5  1  0.11946865  0.24977618  0.37447967  1
  V  V6  1  0.12559923  0.50156654  0.12787873  1
  V  V7  1  0.88048830  0.37209140  -0.00096131  1
  V  V8  1  0.37231202  0.37289460  0.50990497  1
  V  V9  1  0.25546102  0.76068925  0.49892642  1
  V  V10  1  0.62019933  0.76518084  0.37556322  1
  V  V11  1  0.12584685  0.12129524  0.51928337  1
  V  V12  1  0.00011045  0.00569819  0.51097658  1
  V  V13  1  0.89385495  0.12883557  0.25151558  1
  V  V14  1  0.89470428  0.24689956  0.13023598  1
  V  V15  1  0.48499187  0.13372574  0.62977881  1
  V  V16  1  0.37903839  0.50183805  0.38276029  1
  V  V17  1  0.62625744  0.37656482  0.25484483  1
  V  V18  1  0.62567449  0.37580999  0.74980387  1
  V  V19  1  0.87355698  0.50755028  0.88276029  1
  V  V20  1  0.75248864  0.75466154  0.49676909  1
  V  V21  1  0.62507527  0.12729243  0.50324277  1
  V  V22  1  0.10889905  0.00744912  0.11347048  1
  V  V23  1  0.37436749  0.37950968  0.00401671  1
  V  V24  1  0.37896665  -0.00825682  0.37951468  1
  V  V25  1  -0.00953473  0.88517533  0.88755039  1
  V  V26  1  0.75521622  0.00147135  0.75452144  1
  V  V27  1  0.74974222  0.25008500  0.00384479  1
  V  V28  1  0.88617512  0.24162102  0.62523456  1
  V  V29  1  0.62038712  0.12552833  -0.00162289  1
  V  V30  1  0.74074656  0.01634107  0.25627706  1
  V  V31  1  0.37286687  0.74895949  0.12299441  1
  V  V32  1  0.25158398  0.73879089  -0.01290723  1
  V  V33  1  0.25572483  0.36415675  0.12343502  1
  V  V34  1  0.12789799  0.37442228  0.75380567  1
  V  V35  1  0.24124963  0.51601840  0.72769062  1
  V  V36  1  0.25015920  -0.00032151  0.23917316  1
  V  V37  1  0.37476703  0.13195240  0.24541973  1
  V  V38  1  0.63315599  0.63414938  -0.00561070  1
  V  V39  1  0.12261799  0.73856965  0.86670307  1
  V  V40  1  0.62238176  0.00232625  0.63296367  1
  V  V41  1  0.50156911  0.38077023  0.38330031  1
  V  V42  1  0.87173173  0.00526824  0.37687024  1
  V  V43  1  0.00521085  0.75750167  0.24023455  1
  V  V44  1  0.25552819  0.25102877  0.51425306  1
  V  V45  1  0.62837011  0.24651423  0.37845771  1
  V  V46  1  0.75654311  0.50033676  0.25625141  1
  V  V47  1  0.61742300  0.49599173  0.11701073  1
  V  V48  1  0.37541552  0.87414345  -0.00529863  1
  V  V49  1  0.38118718  0.62416974  0.25336019  1
  V  V50  1  -0.00282805  0.25593614  0.77745107  1
  V  V51  1  0.49536858  0.76880469  0.25152305  1
  V  V52  1  0.47968216  0.25616788  0.74806236  1
  V  V53  1  0.49495660  -0.00988956  0.50287563  1
  V  V54  1  0.12200700  0.88889426  0.74469762  1
  V  V55  1  0.25065928  0.49811108  0.25468255  1
  V  V56  1  0.87195292  0.64137349  0.24513383  1
  V  V57  1  0.88238762  0.12215100  0.75063339  1
  V  V58  1  0.63178553  0.86213065  0.75414846  1
  V  V59  1  0.61838355  0.62026085  0.50073170  1
  V  V60  1  0.49585318  0.00089564  -0.01296613  1
  V  V61  1  0.75272318  0.24451699  0.50020657  1
  V  V62  1  0.25078506  0.12462150  0.37871984  1
  V  V63  1  0.00002352  0.49871385  0.00090686  1
  V  V64  1  0.49651484  0.63273049  0.64434987  1
  V  V65  1  0.75494574  0.87694936  0.61900069  1
  V  V66  1  0.89803963  0.58233756  0.70548135  1
  V  V67  1  0.49528389  0.25037340  0.24860865  1
  V  V68  1  0.50704304  0.86023936  0.87031848  1
  V  V69  1  0.61844578  0.00368940  0.13045256  1
  V  V70  1  0.49996266  0.38874000  0.88371062  1
  V  V71  1  0.75686262  0.12294788  0.87655758  1
  V  V72  1  0.12914654  0.14646466  -0.01613383  1
  V  V73  1  0.88476350  0.75274577  0.61971952  1
  V  V74  1  0.68044371  0.83271332  0.19632348  1
  V  V75  1  0.75442710  0.37595841  0.62661862  1
  V  V76  1  0.75457923  0.62510772  0.37817021  1
  V  V77  1  0.62535169  0.24766770  0.87291869  1
  V  V78  1  0.88062479  0.38340354  0.49420243  1
  Zn  Zn79  1  0.24643855  0.87535150  0.11527785  1
  Zn  Zn80  1  0.00539569  0.38767211  0.38648929  1
  Zn  Zn81  1  0.32266148  0.55128461  0.90282608  1
  Zn  Zn82  1  0.36521096  0.64548188  0.75222298  1
  Zn  Zn83  1  0.65094214  0.74630625  0.88139027  1
  Zn  Zn84  1  -0.00307436  0.63213434  0.12413792  1
  Zn  Zn85  1  0.12817727  0.62068763  -0.00180756  1
  Zn  Zn86  1  0.25279016  0.02075997  0.74701749  1
  Zn  Zn87  1  -0.00678234  0.74716617  0.75506335  1
  Zn  Zn88  1  0.30702454  0.19690597  0.05853100  1
  Zn  Zn89  1  0.13103450  0.87162352  0.24786913  1
  Zn  Zn90  1  0.49020722  0.13252741  0.11663563  1
  Zn  Zn91  1  0.49512848  0.61778244  0.11613220  1
  Zn  Zn92  1  0.62333887  0.49779507  0.61794847  1
  Zn  Zn93  1  0.24307799  0.64025719  0.37321040  1
  Zn  Zn94  1  0.17844635  0.18152870  0.18873252  1
  Zn  Zn95  1  0.18718642  0.20094787  0.69994608  1
  Zn  Zn96  1  0.18873683  0.68649105  0.18952764  1
  Zn  Zn97  1  0.18083657  0.69445545  0.67294901  1
  Zn  Zn98  1  0.68113671  0.18870215  0.18854498  1
  Zn  Zn99  1  0.68909437  0.18814817  0.68842000  1
  Zn  Zn100  1  0.68399617  0.67181534  0.18485059  1
  Zn  Zn101  1  0.70443148  0.68035450  0.68203680  1
  Zn  Zn102  1  0.30940601  0.31343025  0.32154031  1
  Zn  Zn103  1  0.31653244  0.38751958  0.80452777  1
  Zn  Zn104  1  0.31341101  0.81417775  0.31670081  1
  Zn  Zn105  1  0.31848096  0.89618746  0.80986123  1
  Zn  Zn106  1  0.81501068  0.30659236  0.31376793  1
  Zn  Zn107  1  0.81690290  0.31161055  0.81500900  1
  Zn  Zn108  1  0.81837826  0.81912961  0.31935912  1
  Zn  Zn109  1  0.82201273  0.81496871  0.80366109  1
  Zn  Zn110  1  0.18980852  0.43965503  0.44143030  1
  Zn  Zn111  1  0.18367726  0.42660793  0.93509336  1
  Zn  Zn112  1  0.18622537  0.93945413  0.43528619  1
  Zn  Zn113  1  0.17628413  0.92799078  0.93180806  1
  Zn  Zn114  1  0.69516171  0.43741627  0.43908135  1
  Zn  Zn115  1  0.69093275  0.43595267  0.93927348  1
  Zn  Zn116  1  0.68603809  0.94417460  0.43784402  1
  Zn  Zn117  1  0.68898086  0.94258079  0.94100117  1
  Zn  Zn118  1  0.29659928  0.05141992  -0.05663339  1
  Zn  Zn119  1  0.31068027  0.05242025  0.56914445  1
  Zn  Zn120  1  0.31255688  0.55779602  0.07037283  1
  Zn  Zn121  1  0.31459131  0.57427839  0.56331504  1
  Zn  Zn122  1  0.79496336  0.07805992  0.08466517  1
  Zn  Zn123  1  0.81420846  0.06200382  0.56506943  1
  Zn  Zn124  1  0.81338934  0.56049265  0.06982224  1
  Zn  Zn125  1  0.93915257  0.56341430  0.53580817  1
  Zn  Zn126  1  0.43641733  0.43257779  0.19283629  1
  Zn  Zn127  1  0.43942410  0.45467085  0.68385933  1
  Zn  Zn128  1  0.42928731  0.94572934  0.17974501  1
  Zn  Zn129  1  0.23763890  0.88197679  0.62095833  1
  Zn  Zn130  1  0.96242324  0.46540720  0.22557413  1
  Zn  Zn131  1  0.97227249  0.40931394  0.66224546  1
  Zn  Zn132  1  0.93015049  0.94103241  0.18495567  1
  Zn  Zn133  1  0.94055966  0.93261427  0.69303817  1
  Zn  Zn134  1  0.06800532  0.05877203  0.31712782  1
  Zn  Zn135  1  0.06473856  0.06392440  0.82578836  1
  Zn  Zn136  1  0.04385501  0.57644085  0.34805160  1
  Zn  Zn137  1  0.06222375  0.55231104  0.81428938  1
  Zn  Zn138  1  0.55769595  0.06367280  0.31757415  1
  Zn  Zn139  1  0.43829874  0.04872629  0.79402567  1
  Zn  Zn140  1  0.56586904  0.56558936  0.31341980  1
  Zn  Zn141  1  0.56795519  0.56665228  0.81523633  1
  Zn  Zn142  1  0.43851627  0.18903252  0.43712534  1
  Zn  Zn143  1  0.43673512  0.20004044  0.93261786  1
  Zn  Zn144  1  0.43735308  0.69588302  0.43762109  1
  Zn  Zn145  1  0.44991643  0.68026096  0.93498983  1
  Zn  Zn146  1  0.94025665  0.18491910  0.43744735  1
  Zn  Zn147  1  0.94037932  0.17649566  0.95082339  1
  Zn  Zn148  1  0.93752306  0.70068715  0.43109373  1
  Zn  Zn149  1  0.93617885  0.68893020  0.93803081  1
  Zn  Zn150  1  0.06977855  0.31452117  0.06023182  1
  Zn  Zn151  1  0.06986845  0.30822248  0.56478981  1
  Zn  Zn152  1  0.06884895  0.81871920  0.06113475  1
  Zn  Zn153  1  0.07323906  0.81009200  0.55238799  1
  Zn  Zn154  1  0.56202366  0.31425319  0.06396148  1
  Zn  Zn155  1  0.56016458  0.31291671  0.56560986  1
  Zn  Zn156  1  0.55791422  0.80629154  0.05830153  1
  Zn  Zn157  1  0.56632578  0.80959850  0.56655369  1
  O  O158  1  0.12753068  0.11136601  0.11840069  1
  O  O159  1  0.13130982  0.12979844  0.61719573  1
  O  O160  1  0.12769115  0.61102662  0.12454759  1
  O  O161  1  0.11077541  0.63418407  0.60413770  1
  O  O162  1  0.61743070  0.12069575  0.11667071  1
  O  O163  1  0.62232547  0.11882991  0.62249128  1
  O  O164  1  0.61991073  0.60673213  0.12147245  1
  O  O165  1  0.62770011  0.62587661  0.61076425  1
  O  O166  1  0.38430429  0.38379390  0.38170618  1
  O  O167  1  0.39496576  0.37249675  0.88452687  1
  O  O168  1  0.37664098  0.89323188  0.37224637  1
  O  O169  1  0.39648505  0.85860207  0.88535450  1
  O  O170  1  0.87764823  0.35908457  0.39282088  1
  O  O171  1  0.86831796  0.37822370  0.89561799  1
  O  O172  1  0.88782126  0.89522147  0.37125312  1
  O  O173  1  0.89077882  0.87590094  0.86677411  1
  O  O174  1  0.25802163  0.01048156  0.37271512  1
  O  O175  1  0.25265504  -0.01827350  0.86666330  1
  O  O176  1  0.26232052  0.49608933  0.36415149  1
  O  O177  1  0.24983560  0.47941607  0.85747342  1
  O  O178  1  0.75812042  -0.00083709  0.36916595  1
  O  O179  1  0.74309454  0.01196155  0.86501226  1
  O  O180  1  0.74464036  0.51125685  0.36606159  1
  O  O181  1  0.75722212  0.49127157  0.86592071  1
  O  O182  1  0.24451226  0.49150529  0.13662985  1
  O  O183  1  0.24450143  0.50534723  0.62902234  1
  O  O184  1  0.25675515  1.00013651  0.13996708  1
  O  O185  1  0.24631263  0.99427650  0.63429603  1
  O  O186  1  0.74052839  0.48731849  0.13468551  1
  O  O187  1  0.74974990  0.47964447  0.63675089  1
  O  O188  1  0.72952528  1.00466033  0.13856769  1
  O  O189  1  0.74232387  0.99508242  0.62881539  1
  O  O190  1  0.02193898  0.36507901  0.23947061  1
  O  O191  1  -0.01741649  0.35638037  0.76436687  1
  O  O192  1  -0.00506864  0.86855061  0.25315898  1
  O  O193  1  0.00805555  0.86905238  0.75945707  1
  O  O194  1  0.50527956  0.36792955  0.26305424  1
  O  O195  1  0.51113159  0.37423241  0.75748890  1
  O  O196  1  0.48818814  0.86758256  0.24538369  1
  O  O197  1  0.52029586  0.87365672  0.76823930  1
  O  O198  1  0.49060625  0.13445366  0.25370705  1
  O  O199  1  0.49003866  0.13584826  0.73792927  1
  O  O200  1  0.48951411  0.63006643  0.24705593  1
  O  O201  1  0.50987743  0.63558641  0.74566194  1
  O  O202  1  0.99218508  0.12121867  0.25141456  1
  O  O203  1  0.98658474  0.13201512  0.76426764  1
  O  O204  1  0.98958651  0.64564366  0.25523002  1
  O  O205  1  0.97703895  0.62116437  0.75710664  1
  O  O206  1  0.37853736  0.26714667  0.00328650  1
  O  O207  1  0.37010423  0.26386303  0.49420117  1
  O  O208  1  0.37310560  0.75138194  0.00698818  1
  O  O209  1  0.35785869  0.74363964  0.49945041  1
  O  O210  1  0.87030523  0.25232002  0.01272005  1
  O  O211  1  0.86603258  0.24140782  0.50801821  1
  O  O212  1  0.82390404  0.74272970  -0.04475735  1
  O  O213  1  0.86198897  0.75261843  0.50410814  1
  O  O214  1  0.13379698  0.23959084  0.49695174  1
  O  O215  1  0.13312264  0.24737376  0.99697526  1
  O  O216  1  0.13855910  0.74062814  0.49467617  1
  O  O217  1  0.13597737  0.74526018  0.99473752  1
  O  O218  1  0.63269115  0.24670466  0.49819460  1
  O  O219  1  0.62842261  0.24740421  0.99259666  1
  O  O220  1  0.63147349  0.74400035  0.49192458  1
  O  O221  1  0.63417762  0.73916924  1.00421706  1
  O  O222  1  0.50703885  0.25200172  0.14390748  1
  O  O223  1  0.50563735  0.24046701  0.63471366  1
  O  O224  1  0.48790496  0.74782192  0.13344374  1
  O  O225  1  0.50986182  0.73052853  0.61968171  1
  O  O226  1  0.99245278  0.25307830  0.12336243  1
  O  O227  1  0.98686261  0.24609075  0.62869451  1
  O  O228  1  1.00140436  0.75400514  0.13672543  1
  O  O229  1  0.98375077  0.76396588  0.61199809  1
  O  O230  1  0.01710123  0.25282136  0.38421933  1
  O  O231  1  -0.00948048  0.24975734  0.87528458  1
  O  O232  1  -0.00376573  0.77525415  0.36807445  1
  O  O233  1  0.00782312  0.75300676  0.87674913  1
  O  O234  1  0.51070725  0.25921623  0.37079390  1
  O  O235  1  0.51060935  0.25815518  0.86385813  1
  O  O236  1  0.50882089  0.74566864  0.36183499  1
  O  O237  1  0.51845658  0.76067522  0.88195478  1
  O  O238  1  0.24174451  0.12755030  0.49649117  1
  O  O239  1  0.23994552  0.12391595  1.00677944  1
  O  O240  1  0.24106663  0.63480537  0.49887362  1
  O  O241  1  0.25446941  0.62941713  0.99688174  1
  O  O242  1  0.73738016  0.13390023  0.50951674  1
  O  O243  1  0.74434385  0.12837637  0.99508926  1
  O  O244  1  0.73967172  0.64098492  0.48841178  1
  O  O245  1  0.73116118  0.61267176  1.01325192  1
  O  O246  1  0.25661702  0.37608391  0.01375838  1
  O  O247  1  0.26391730  0.36657348  0.49647329  1
  O  O248  1  0.26209618  0.85957864  -0.00484027  1
  O  O249  1  0.24355031  0.86867581  0.50068850  1
  O  O250  1  0.75770804  0.36952125  0.01166121  1
  O  O251  1  0.75854561  0.36397251  0.50735149  1
  O  O252  1  0.77015730  0.88622728  0.00834611  1
  O  O253  1  0.73981924  0.86892808  0.50952090  1
  O  O254  1  0.13793503  0.48822469  0.24341521  1
  O  O255  1  0.13414602  0.49132285  0.74851658  1
  O  O256  1  0.14075307  1.00772465  0.24019597  1
  O  O257  1  0.12516380  0.99107098  0.75480974  1
  O  O258  1  0.63519645  0.49558428  0.24402426  1
  O  O259  1  0.63728850  0.48906480  0.75369345  1
  O  O260  1  0.62544016  1.00835276  0.24434650  1
  O  O261  1  0.63807520  0.98985726  0.73915159  1
  O  O262  1  0.36907809  0.01161588  0.25804058  1
  O  O263  1  0.36580264  -0.01962725  0.74789319  1
  O  O264  1  0.37067651  0.50600528  0.25744381  1
  O  O265  1  0.34776382  0.48582175  0.74406911  1
  O  O266  1  0.86508148  0.01483658  0.25348005  1
  O  O267  1  0.86278113  0.00760154  0.74199794  1
  O  O268  1  0.85816007  0.51328169  0.24193797  1
  O  O269  1  0.87167331  0.49318146  0.76575200  1
  O  O270  1  0.12789723  0.36738815  0.36994078  1
  O  O271  1  0.11599493  0.37774730  0.85497030  1
  O  O272  1  0.10754313  0.89528613  0.36101328  1
  O  O273  1  0.11174620  0.85922292  0.86432724  1
  O  O274  1  0.62025080  0.36893284  0.37586149  1
  O  O275  1  0.61985216  0.36661731  0.87168147  1
  O  O276  1  0.62477463  0.86473382  0.38046191  1
  O  O277  1  0.62667105  0.87064973  0.87412400  1
  O  O278  1  0.37306656  0.13417282  0.14181774  1
  O  O279  1  0.38816103  0.12831478  0.61374969  1
  O  O280  1  0.37695251  0.63084156  0.13430778  1
  O  O281  1  0.38979797  0.62448067  0.63886535  1
  O  O282  1  0.87526021  0.13227981  0.13912008  1
  O  O283  1  0.86686036  0.13143976  0.64038562  1
  O  O284  1  0.87460751  0.62792654  0.13985054  1
  O  O285  1  0.87884952  0.64253018  0.61474902  1
  O  O286  1  0.24811594  0.26077429  0.13633853  1
  O  O287  1  0.24925042  0.24474833  0.61300777  1
  O  O288  1  0.26098914  0.74960300  0.11824634  1
  O  O289  1  0.24566737  0.76202025  0.60997850  1
  O  O290  1  0.74813307  0.25804025  0.12262564  1
  O  O291  1  0.75640744  0.25750530  0.61979797  1
  O  O292  1  0.73545478  0.76759531  0.14579383  1
  O  O293  1  0.75722653  0.75940846  0.61421184  1
  O  O294  1  0.24462302  0.24003746  0.38827096  1
  O  O295  1  0.29491300  0.17289706  0.83157200  1
  O  O296  1  0.25069939  0.75516964  0.38570026  1
  O  O297  1  0.23058572  0.74898082  0.88185331  1
  O  O298  1  0.73819470  0.25477106  0.38741007  1
  O  O299  1  0.74468296  0.24579519  0.88274937  1
  O  O300  1  0.74237261  0.74944287  0.37852293  1
  O  O301  1  0.77934493  0.74432030  0.88900331  1
  O  O302  1  0.02775576  0.12541462  -0.00330520  1
  O  O303  1  0.01556058  0.11828941  0.50014487  1
  O  O304  1  -0.00167691  0.61367799  0.00791261  1
  O  O305  1  0.00819433  0.62209450  0.47359239  1
  O  O306  1  0.49954902  0.11929325  -0.00501533  1
  O  O307  1  0.51122921  0.13142672  0.51225869  1
  O  O308  1  0.52150948  0.62519828  0.00465971  1
  O  O309  1  0.51712257  0.62876977  0.49497473  1
  O  O310  1  0.49141448  0.36882844  0.49019032  1
  O  O311  1  0.49848090  0.37501420  0.98944749  1
  O  O312  1  0.50507432  0.89267082  0.51336503  1
  O  O313  1  0.49777079  0.88104406  0.99164183  1
  O  O314  1  0.98593921  0.37186023  0.50548788  1
  O  O315  1  0.98934687  0.38621621  1.01488813  1
  O  O316  1  1.01078704  0.89316832  0.48584633  1
  O  O317  1  0.99878553  0.86655605  0.98737866  1
  O  O318  1  0.49335607  0.49088901  0.36873880  1
  O  O319  1  0.50820361  0.48653797  0.87204896  1
  O  O320  1  0.49570254  1.00787060  0.39531832  1
  O  O321  1  0.49973359  0.99169548  0.88335093  1
  O  O322  1  0.98503603  0.48615034  0.33691147  1
  O  O323  1  0.99178995  0.49995233  0.89332436  1
  O  O324  1  0.99102292  0.99871833  0.37971331  1
  O  O325  1  1.00563749  0.98469421  0.87922133  1
  O  O326  1  0.01044104  -0.00232645  0.12714874  1
  O  O327  1  -0.00905307  -0.00510421  0.60822682  1
  O  O328  1  0.01198487  0.50400072  0.12577473  1
  O  O329  1  -0.05021466  0.51774983  0.64151595  1
  O  O330  1  0.50507475  0.00522849  0.11449833  1
  O  O331  1  0.50938413  0.01923702  0.61446103  1
  O  O332  1  0.51524523  0.49226889  0.13321764  1
  O  O333  1  0.51173222  0.52226050  0.63057819  1
  O  O334  1  0.24983937  0.38158065  0.24535839  1
  O  O335  1  0.22680949  0.35835110  0.73808766  1
  O  O336  1  0.25305224  0.89223298  0.25210440  1
  O  O337  1  0.22450787  0.86362471  0.74882298  1
  O  O338  1  0.74813701  0.37988829  0.24861039  1
  O  O339  1  0.74579542  0.37631675  0.74656767  1
  O  O340  1  0.74508013  0.88922966  0.25399460  1
  O  O341  1  0.74909420  0.88522274  0.74241590  1
  O  O342  1  0.25672956  0.11823116  0.26016250  1
  O  O343  1  0.27304484  0.14117436  0.75874029  1
  O  O344  1  0.26256789  0.61614818  0.25081019  1
  O  O345  1  0.24639047  0.61871820  0.73940352  1
  O  O346  1  0.75079788  0.11937945  0.25116054  1
  O  O347  1  0.75728887  0.12075889  0.75846599  1
  O  O348  1  0.75286628  0.62098634  0.25873027  1
  O  O349  1  0.77979029  0.60233384  0.72908631  1
  O  O350  1  0.36714930  0.11967392  0.37177716  1
  O  O351  1  0.36267952  0.12796010  0.86639270  1
  O  O352  1  0.37597817  0.61658566  0.36767783  1
  O  O353  1  0.37843826  0.63691222  0.86199312  1
  O  O354  1  0.87911277  0.12069377  0.36069383  1
  O  O355  1  0.86232296  0.12963164  0.87245944  1
  O  O356  1  0.86068057  0.63598823  0.36504972  1
  O  O357  1  0.87126963  0.60639284  0.88535943  1
  O  O358  1  0.13748768  0.38138008  0.13160973  1
  O  O359  1  0.08555725  0.38071603  0.65014941  1
  O  O360  1  0.13186538  0.88978722  0.13068684  1
  O  O361  1  0.11221891  0.87160212  0.64245416  1
  O  O362  1  0.63413768  0.38021244  0.13262004  1
  O  O363  1  0.63271716  0.37414756  0.63394612  1
  O  O364  1  0.61898057  0.88400951  0.12857181  1
  O  O365  1  0.63413957  0.88006645  0.63482884  1
  O  O366  1  0.13922039  0.25625840  0.26518751  1
  O  O367  1  0.10256060  0.25633944  0.75152559  1
  O  O368  1  0.11106805  0.75201249  0.24835127  1
  O  O369  1  0.11551081  0.74192096  0.76011758  1
  O  O370  1  0.61925944  0.25499053  0.26210724  1
  O  O371  1  0.62677503  0.26067172  0.75801628  1
  O  O372  1  0.61887426  0.76096611  0.25176619  1
  O  O373  1  0.65692932  0.75927245  0.75896084  1
  O  O374  1  0.38534287  0.24407209  0.26647834  1
  O  O375  1  0.38504845  0.27818011  0.75063966  1
  O  O376  1  0.37821527  0.74397419  0.24453779  1
  O  O377  1  0.37699937  0.78184038  0.73133112  1
  O  O378  1  0.87364568  0.23623572  0.24533058  1
  O  O379  1  0.88108623  0.24118818  0.74667308  1
  O  O380  1  0.88346561  0.75001281  0.25345224  1
  O  O381  1  0.87620417  0.74769509  0.72656435  1
  O  O382  1  0.36747931  0.49059882  0.48926867  1
  O  O383  1  0.36749019  0.48737808  0.99583101  1
  O  O384  1  0.38908572  1.00619046  0.49614185  1
  O  O385  1  0.38275796  0.98498994  0.99789971  1
  O  O386  1  0.86827406  0.48191531  0.49670002  1
  O  O387  1  0.87954592  0.49061524  1.00232175  1
  O  O388  1  0.88940370  1.01843580  0.48994668  1
  O  O389  1  0.83080786  0.92707106  1.04349364  1
  O  O390  1  0.13123833  -0.00496657  0.01424319  1
  O  O391  1  0.11654140  0.01446668  0.49874429  1
  O  O392  1  0.11733150  0.49537813  0.00990180  1
  O  O393  1  0.12999927  0.51447234  0.49930949  1
  O  O394  1  0.61579728  0.00581307  0.00831843  1
  O  O395  1  0.61759411  0.00910327  0.50886119  1
  O  O396  1  0.62639779  0.49440257  0.01508034  1
  O  O397  1  0.63445364  0.51634188  0.49749155  1
  O  O398  1  0.36617218  0.38100390  0.11973901  1
  O  O399  1  0.38806461  0.38238139  0.60658455  1
  O  O400  1  0.37310564  0.86566356  0.11253190  1
  O  O401  1  0.38072491  0.80959679  0.66309803  1
  O  O402  1  0.86398291  0.36365790  0.12282947  1
  O  O403  1  0.87078161  0.36064738  0.61287360  1
  O  O404  1  0.86358461  0.88375401  0.10349436  1
  O  O405  1  0.86209262  0.86962738  0.62658601  1
  O  O406  1  0.13650632  0.13102614  0.37984268  1
  O  O407  1  0.13721505  0.12874434  0.88336429  1
  O  O408  1  0.13196140  0.62633060  0.38672707  1
  O  O409  1  0.11546539  0.63457478  0.87831484  1
  O  O410  1  0.61731978  0.13693111  0.38959073  1
  O  O411  1  0.63742529  0.13940731  0.88026109  1
  O  O412  1  0.63357193  0.63598874  0.38023050  1
  O  O413  1  0.63166701  0.62716025  0.88882906  1
