# generated using pymatgen
data_V79Zn79O256
_symmetry_space_group_name_H-M   'P 1'
_cell_length_a   16.81979468
_cell_length_b   16.81741929
_cell_length_c   16.81530458
_cell_angle_alpha   90.02020287
_cell_angle_beta   90.01665744
_cell_angle_gamma   89.99981794
_symmetry_Int_Tables_number   1
_chemical_formula_structural   V79Zn79O256
_chemical_formula_sum   'V79 Zn79 O256'
_cell_volume   4756.46970445
_cell_formula_units_Z   1
loop_
 _symmetry_equiv_pos_site_id
 _symmetry_equiv_pos_as_xyz
  1  'x, y, z'
loop_
 _atom_site_type_symbol
 _atom_site_label
 _atom_site_symmetry_multiplicity
 _atom_site_fract_x
 _atom_site_fract_y
 _atom_site_fract_z
 _atom_site_occupancy
  V  V0  1  0.11233796  0.00120570  0.11996247  1
  V  V1  1  0.62622716  0.36780786  0.75104569  1
  V  V2  1  0.37530065  0.74767264  0.12637763  1
  V  V3  1  0.62371176  0.36511804  0.25419681  1
  V  V4  1  0.00261557  0.75035893  0.25865524  1
  V  V5  1  0.87480556  0.37243269  -0.00427866  1
  V  V6  1  0.63525224  0.74653625  0.37965955  1
  V  V7  1  0.75292022  0.09960204  0.37155095  1
  V  V8  1  0.25347735  0.62640582  0.86684161  1
  V  V9  1  0.87146817  0.49815954  0.86875259  1
  V  V10  1  0.50214047  0.00878617  -0.00063023  1
  V  V11  1  0.74594269  0.11300358  0.86144570  1
  V  V12  1  0.50544151  0.37620485  0.38344459  1
  V  V13  1  0.63410479  0.62607728  0.49708044  1
  V  V14  1  0.62640209  0.49954234  0.62881196  1
  V  V15  1  -0.00959698  0.63336946  0.12310088  1
  V  V16  1  0.12367068  0.50336303  0.12609312  1
  V  V17  1  0.25421697  0.86875615  0.61030900  1
  V  V18  1  0.25611747  0.49113985  0.74420595  1
  V  V19  1  0.38766631  0.74868513  0.62820081  1
  V  V20  1  0.86326968  0.75646166  0.62169952  1
  V  V21  1  0.12436516  0.88038545  0.74776056  1
  V  V22  1  0.63640588  0.87688798  0.24289296  1
  V  V23  1  0.24642590  0.00069460  0.74540297  1
  V  V24  1  0.74815734  0.50456778  0.25610951  1
  V  V25  1  0.61890614  0.49900643  0.12127514  1
  V  V26  1  0.24648582  0.75214564  -0.00657488  1
  V  V27  1  0.86055119  0.87694534  0.49889647  1
  V  V28  1  0.49915698  0.87614649  0.86511902  1
  V  V29  1  0.87183677  0.63050240  0.25468338  1
  V  V30  1  0.88186136  0.48969661  0.37639162  1
  V  V31  1  0.36540740  0.38253045  0.49679079  1
  V  V32  1  0.25009484  0.37745955  0.12460732  1
  V  V33  1  0.00705772  -0.00465902  0.49287534  1
  V  V34  1  0.37705431  0.12366090  0.75506718  1
  V  V35  1  0.62025386  0.74905534  0.86746178  1
  V  V36  1  0.12221260  0.63553592  0.49449268  1
  V  V37  1  0.50113906  0.36901203  0.86981281  1
  V  V38  1  0.25229635  0.88446487  0.12747358  1
  V  V39  1  0.88119680  -0.00730606  0.88007200  1
  V  V40  1  0.49035153  0.00056839  0.50292109  1
  V  V41  1  0.00571845  0.11634235  0.63163616  1
  V  V42  1  0.64012455  -0.00084773  0.62867460  1
  V  V43  1  0.11522387  0.50247277  0.62468532  1
  V  V44  1  0.88405054  0.11266926  0.25307585  1
  V  V45  1  0.74906695  0.37353746  0.12331553  1
  V  V46  1  0.00922644  0.74577034  0.74454775  1
  V  V47  1  0.37782937  0.24292864  0.13066739  1
  V  V48  1  0.75278045  0.25532378  0.49113467  1
  V  V49  1  0.00202336  0.87187527  0.88660776  1
  V  V50  1  0.24202258  0.25092732  -0.00632156  1
  V  V51  1  0.38258049  0.38032967  -0.00078182  1
  V  V52  1  0.74457970  0.23408504  -0.00055020  1
  V  V53  1  0.49487734  0.87590506  0.37903810  1
  V  V54  1  0.36692184  0.25704698  0.62822903  1
  V  V55  1  0.74937471  0.62214583  0.86950913  1
  V  V56  1  0.37807427  0.88007164  -0.00653523  1
  V  V57  1  0.12393431  0.63047783  -0.00728696  1
  V  V58  1  0.88470234  0.25193844  0.62594891  1
  V  V59  1  0.75315485  0.37498386  0.63065520  1
  V  V60  1  0.38216077  0.50390960  0.87538409  1
  V  V61  1  0.50145128  0.13111889  0.63142896  1
  V  V62  1  0.11221316  0.36910731  0.75527073  1
  V  V63  1  0.64768355  0.87837901  0.74580890  1
  V  V64  1  0.62665978  0.12743984  0.49649329  1
  V  V65  1  0.62173519  0.62412799  -0.00093705  1
  V  V66  1  0.25454029  0.13076362  0.35969630  1
  V  V67  1  0.49657413  0.62250761  0.12471426  1
  V  V68  1  0.12829147  0.13246033  0.49601152  1
  V  V69  1  0.37449308  0.00600166  0.35313229  1
  V  V70  1  0.49603163  0.74628985  0.25327296  1
  V  V71  1  -0.00200038  0.49814886  -0.00709365  1
  V  V72  1  0.13085808  0.87739593  0.25962222  1
  V  V73  1  0.87477036  0.62351215  0.74135984  1
  V  V74  1  0.76100308  0.75962224  0.01045819  1
  V  V75  1  0.11546405  0.36854774  0.25620506  1
  V  V76  1  0.24650298  0.12419112  0.87373376  1
  V  V77  1  0.26365634  0.51318588  0.25368768  1
  V  V78  1  0.63797223  0.00213679  0.12381122  1
  Zn  Zn79  1  0.08477736  0.25315555  0.86844852  1
  Zn  Zn80  1  0.50062133  0.63045278  0.63644009  1
  Zn  Zn81  1  -0.00850874  0.49543152  0.50686993  1
  Zn  Zn82  1  0.49096626  0.51464583  0.49535783  1
  Zn  Zn83  1  0.00278870  0.34980568  0.39138239  1
  Zn  Zn84  1  0.88018381  0.12057180  0.75107928  1
  Zn  Zn85  1  0.00099746  0.86996419  0.37930274  1
  Zn  Zn86  1  0.25556532  0.62784583  0.38402146  1
  Zn  Zn87  1  -0.00185988  0.13309414  0.12334336  1
  Zn  Zn88  1  0.49467038  0.24048772  0.26712477  1
  Zn  Zn89  1  0.88447035  0.25245301  0.13748613  1
  Zn  Zn90  1  0.24370848  0.25715467  0.49637217  1
  Zn  Zn91  1  0.11021747  0.11767575  -0.01007740  1
  Zn  Zn92  1  0.61646937  0.23702001  0.87423464  1
  Zn  Zn93  1  0.50389309  0.12252966  0.13482677  1
  Zn  Zn94  1  0.18463120  0.18880362  0.18382945  1
  Zn  Zn95  1  0.18466573  0.18970711  0.68606546  1
  Zn  Zn96  1  0.18467391  0.69303108  0.18515140  1
  Zn  Zn97  1  0.19169173  0.68718010  0.67985393  1
  Zn  Zn98  1  0.69534797  0.18221137  0.19130117  1
  Zn  Zn99  1  0.68967845  0.19039271  0.68392837  1
  Zn  Zn100  1  0.68600333  0.68966548  0.18887011  1
  Zn  Zn101  1  0.68475133  0.68744926  0.68723802  1
  Zn  Zn102  1  0.30867217  0.32027044  0.31418526  1
  Zn  Zn103  1  0.31221288  0.31238068  0.81128610  1
  Zn  Zn104  1  0.31389485  0.81151735  0.31768417  1
  Zn  Zn105  1  0.31534980  0.81293562  0.80713754  1
  Zn  Zn106  1  0.81651581  0.30693552  0.31071802  1
  Zn  Zn107  1  0.82221990  0.30229380  0.81387712  1
  Zn  Zn108  1  0.81795530  0.81513529  0.31239388  1
  Zn  Zn109  1  0.81680574  0.80633786  0.81845763  1
  Zn  Zn110  1  0.18624180  0.44706350  0.43362353  1
  Zn  Zn111  1  0.18790854  0.43834970  0.93274288  1
  Zn  Zn112  1  0.19143073  0.94926776  0.43723604  1
  Zn  Zn113  1  0.18562356  0.93690778  0.93402871  1
  Zn  Zn114  1  0.68914469  0.43906327  0.44020360  1
  Zn  Zn115  1  0.68676945  0.43657914  0.93606168  1
  Zn  Zn116  1  0.67735031  0.93325604  0.44230497  1
  Zn  Zn117  1  0.68653557  0.93775212  0.93896761  1
  Zn  Zn118  1  0.31011117  0.06352341  0.05820939  1
  Zn  Zn119  1  0.30987115  0.06257493  0.56823050  1
  Zn  Zn120  1  0.31130942  0.56351752  0.05915620  1
  Zn  Zn121  1  0.30948858  0.57032368  0.56619481  1
  Zn  Zn122  1  0.82518933  0.04977283  0.06747866  1
  Zn  Zn123  1  0.82057276  0.06458412  0.55611763  1
  Zn  Zn124  1  0.80796415  0.56493471  0.06119226  1
  Zn  Zn125  1  0.80913069  0.56423261  0.55867038  1
  Zn  Zn126  1  0.43946046  0.43231092  0.19307953  1
  Zn  Zn127  1  0.44234229  0.43983585  0.68703419  1
  Zn  Zn128  1  0.44553458  0.93347291  0.18387384  1
  Zn  Zn129  1  0.43396243  0.94309674  0.68480731  1
  Zn  Zn130  1  0.93598568  0.44234242  0.18546223  1
  Zn  Zn131  1  0.93686605  0.43274393  0.68784201  1
  Zn  Zn132  1  0.93172957  0.93307073  0.19127416  1
  Zn  Zn133  1  0.93168550  0.93824608  0.69104072  1
  Zn  Zn134  1  0.06701724  0.06327748  0.31199138  1
  Zn  Zn135  1  0.06284023  0.06023689  0.81710652  1
  Zn  Zn136  1  0.06302501  0.56358076  0.31411321  1
  Zn  Zn137  1  0.06352348  0.56123251  0.80858669  1
  Zn  Zn138  1  0.56543718  0.06378418  0.30993821  1
  Zn  Zn139  1  0.56300044  0.05710395  0.81224447  1
  Zn  Zn140  1  0.55677220  0.55920668  0.31322573  1
  Zn  Zn141  1  0.56298999  0.55573200  0.80669817  1
  Zn  Zn142  1  0.43517398  0.19031416  0.44109038  1
  Zn  Zn143  1  0.43114596  0.19039055  0.94032563  1
  Zn  Zn144  1  0.43256312  0.69458415  0.45424386  1
  Zn  Zn145  1  0.43730690  0.69018499  0.93427364  1
  Zn  Zn146  1  0.93486702  0.18449217  0.43659485  1
  Zn  Zn147  1  0.93226530  0.18243087  0.94251820  1
  Zn  Zn148  1  0.93980094  0.68029244  0.44257724  1
  Zn  Zn149  1  0.93817734  0.68922537  0.93092661  1
  Zn  Zn150  1  0.05934369  0.31154290  0.06309129  1
  Zn  Zn151  1  0.06659123  0.32029273  0.56661349  1
  Zn  Zn152  1  0.06148214  0.81434673  0.07062264  1
  Zn  Zn153  1  0.06369878  0.81248722  0.57026302  1
  Zn  Zn154  1  0.56278648  0.30926072  0.05991025  1
  Zn  Zn155  1  0.56276487  0.31101532  0.56262468  1
  Zn  Zn156  1  0.56591803  0.81165301  0.05770349  1
  Zn  Zn157  1  0.56362070  0.81429229  0.56458131  1
  O  O158  1  0.12590672  0.10826983  0.12867238  1
  O  O159  1  0.11348769  0.13014687  0.61299452  1
  O  O160  1  0.11690724  0.61967962  0.11347934  1
  O  O161  1  0.12779676  0.61040901  0.62119402  1
  O  O162  1  0.62727335  0.10694897  0.13082075  1
  O  O163  1  0.61875318  0.11874866  0.62213062  1
  O  O164  1  0.61713258  0.61863185  0.11908426  1
  O  O165  1  0.63082824  0.61752539  0.61451395  1
  O  O166  1  0.38337619  0.37391863  0.39010499  1
  O  O167  1  0.38112775  0.38105550  0.87968264  1
  O  O168  1  0.38535262  0.89181413  0.36790439  1
  O  O169  1  0.38294097  0.86874979  0.88586374  1
  O  O170  1  0.87765703  0.38609748  0.36631841  1
  O  O171  1  0.86161562  0.38658226  0.88445050  1
  O  O172  1  0.88114355  0.86413023  0.39527472  1
  O  O173  1  0.88761714  0.88249529  0.86860805  1
  O  O174  1  0.26807438  0.00962142  0.37422248  1
  O  O175  1  0.24450990  0.01529937  0.86757654  1
  O  O176  1  0.25172700  0.50598763  0.35727305  1
  O  O177  1  0.25944385  0.50742210  0.86746847  1
  O  O178  1  0.75063162  0.00059571  0.38282190  1
  O  O179  1  0.75545532  0.00781096  0.87701823  1
  O  O180  1  0.75705902  0.49324436  0.36184239  1
  O  O181  1  0.75825141  0.51169747  0.88088508  1
  O  O182  1  0.24263025  0.49549821  0.12583861  1
  O  O183  1  0.24608947  0.50369940  0.64242623  1
  O  O184  1  0.24958109  0.98809192  0.12336937  1
  O  O185  1  0.25074706  0.98984037  0.63779844  1
  O  O186  1  0.73962553  0.49241937  0.13128441  1
  O  O187  1  0.74182837  0.48543038  0.61427368  1
  O  O188  1  0.73647753  0.99291627  0.11593722  1
  O  O189  1  0.73902983  1.00953964  0.61966082  1
  O  O190  1  0.01447101  0.38095218  0.24115057  1
  O  O191  1  0.01182497  0.37793090  0.75397711  1
  O  O192  1  0.01020955  0.86810689  0.25570289  1
  O  O193  1  0.00859892  0.86679349  0.75081358  1
  O  O194  1  0.50646550  0.36958366  0.26213485  1
  O  O195  1  0.50978183  0.37663931  0.75891684  1
  O  O196  1  0.50788406  0.86512816  0.25831427  1
  O  O197  1  0.49818682  0.88620674  0.76350275  1
  O  O198  1  0.50165014  0.13080904  0.24857819  1
  O  O199  1  0.49143816  0.11759809  0.74344609  1
  O  O200  1  0.50675765  0.63559908  0.23866647  1
  O  O201  1  0.51563062  0.63454040  0.74789352  1
  O  O202  1  0.98855789  0.12116530  0.25153952  1
  O  O203  1  1.00653627  0.12258505  0.73441188  1
  O  O204  1  0.99472798  0.63029409  0.24158094  1
  O  O205  1  0.99098053  0.63853655  0.75928519  1
  O  O206  1  0.36435566  0.26101450  0.00890417  1
  O  O207  1  0.37241172  0.26002189  0.51199339  1
  O  O208  1  0.36877436  0.75870510  0.00755067  1
  O  O209  1  0.38265632  0.76956402  0.52370674  1
  O  O210  1  0.85878530  0.26048721  0.00689650  1
  O  O211  1  0.86013678  0.24143235  0.51054453  1
  O  O212  1  0.85987580  0.73929568  -0.00441498  1
  O  O213  1  0.88375183  0.75689372  0.51430466  1
  O  O214  1  0.12489830  0.23767988  0.50021713  1
  O  O215  1  0.13555976  0.25395217  0.99584420  1
  O  O216  1  0.11509154  0.73530110  0.50438756  1
  O  O217  1  0.13543898  0.74245226  1.00768971  1
  O  O218  1  0.63844387  0.23605255  0.51095002  1
  O  O219  1  0.63984136  0.25384131  0.99454657  1
  O  O220  1  0.62223903  0.74515661  0.48790164  1
  O  O221  1  0.63244327  0.74210738  0.98871057  1
  O  O222  1  0.48505090  0.24808144  0.12011609  1
  O  O223  1  0.49155892  0.23721635  0.62037096  1
  O  O224  1  0.49566884  0.74369601  0.13045219  1
  O  O225  1  0.49373779  0.75864009  0.63344047  1
  O  O226  1  0.99749713  0.24840677  0.12878146  1
  O  O227  1  0.98898485  0.24116991  0.61511402  1
  O  O228  1  1.00170253  0.73895301  0.13358729  1
  O  O229  1  0.99074881  0.75125121  0.64091598  1
  O  O230  1  -0.00242999  0.24214386  0.36716930  1
  O  O231  1  -0.02673395  0.25788301  0.87292356  1
  O  O232  1  0.00104165  0.74623240  0.36306895  1
  O  O233  1  -0.00875997  0.76368022  0.85925740  1
  O  O234  1  0.49753636  0.26666134  0.38089756  1
  O  O235  1  0.49980806  0.26227137  0.88067484  1
  O  O236  1  0.50522176  0.75955898  0.36915747  1
  O  O237  1  0.51215661  0.76039814  0.88073586  1
  O  O238  1  0.23605056  0.12279806  0.50156550  1
  O  O239  1  0.24605587  0.13314846  0.99064633  1
  O  O240  1  0.22912533  0.61499998  0.50201639  1
  O  O241  1  0.24254988  0.63228649  0.99309808  1
  O  O242  1  0.74599813  0.12991678  0.49077213  1
  O  O243  1  0.75441021  0.13327233  1.00240046  1
  O  O244  1  0.73475663  0.62918869  0.49701489  1
  O  O245  1  0.73898776  0.63062465  0.99231690  1
  O  O246  1  0.25614158  0.37155364  0.00593046  1
  O  O247  1  0.26148491  0.37594881  0.49225614  1
  O  O248  1  0.25691965  0.87022491  0.00352957  1
  O  O249  1  0.24621143  0.88367703  0.51214045  1
  O  O250  1  0.75554015  0.37380035  0.00762179  1
  O  O251  1  0.74240742  0.36089989  0.50914739  1
  O  O252  1  0.74758341  0.85832112  -0.00878778  1
  O  O253  1  0.76114777  0.87797890  0.50085601  1
  O  O254  1  0.12989403  0.49731289  0.23569999  1
  O  O255  1  0.13398460  0.49413110  0.74635905  1
  O  O256  1  0.12221083  0.98474531  0.23942813  1
  O  O257  1  0.13210580  0.99262691  0.75136988  1
  O  O258  1  0.63023789  0.49322544  0.24229665  1
  O  O259  1  0.63025715  0.48577237  0.73903763  1
  O  O260  1  0.62082040  0.98457582  0.24014477  1
  O  O261  1  0.62602464  0.98660506  0.74411531  1
  O  O262  1  0.38107291  0.00324972  0.25397673  1
  O  O263  1  0.36330857  0.01481552  0.74785019  1
  O  O264  1  0.36294755  0.50243474  0.23979686  1
  O  O265  1  0.36444360  0.49487732  0.75782146  1
  O  O266  1  0.87429484  0.01020628  0.25381522  1
  O  O267  1  0.87858194  0.00438479  0.76602053  1
  O  O268  1  0.86660078  0.50650461  0.25558743  1
  O  O269  1  0.88190362  0.50823245  0.75908769  1
  O  O270  1  0.12169560  0.38464974  0.35967444  1
  O  O271  1  0.12685346  0.37343885  0.86271829  1
  O  O272  1  0.13094360  0.88169949  0.36216715  1
  O  O273  1  0.11158707  0.87788192  0.86503710  1
  O  O274  1  0.61559957  0.37872895  0.36923582  1
  O  O275  1  0.61791859  0.37667189  0.86808924  1
  O  O276  1  0.61708740  0.86646997  0.36581490  1
  O  O277  1  0.62085609  0.87012592  0.86259534  1
  O  O278  1  0.36925426  0.14093335  0.12134364  1
  O  O279  1  0.38122341  0.13405862  0.63215856  1
  O  O280  1  0.38457843  0.63531474  0.11341575  1
  O  O281  1  0.38024812  0.64079086  0.61863883  1
  O  O282  1  0.87352152  0.12086796  0.14065180  1
  O  O283  1  0.88889616  0.13160023  0.62278123  1
  O  O284  1  0.88379264  0.61415916  0.13484534  1
  O  O285  1  0.86897625  0.63252633  0.63349734  1
  O  O286  1  0.25598817  0.25956468  0.11632178  1
  O  O287  1  0.26320327  0.24714459  0.61971891  1
  O  O288  1  0.25759119  0.75787818  0.11460639  1
  O  O289  1  0.25399246  0.76379790  0.62259891  1
  O  O290  1  0.74485619  0.25988269  0.11461403  1
  O  O291  1  0.75971885  0.25500253  0.61619558  1
  O  O292  1  0.74266006  0.74611457  0.10982191  1
  O  O293  1  0.76353982  0.75165031  0.62801701  1
  O  O294  1  0.26174293  0.23496960  0.37920186  1
  O  O295  1  0.25458131  0.24250746  0.88351362  1
  O  O296  1  0.26297554  0.74186744  0.38473576  1
  O  O297  1  0.25755409  0.74291796  0.88634989  1
  O  O298  1  0.74944137  0.25004420  0.38968331  1
  O  O299  1  0.75388294  0.23489790  0.88639497  1
  O  O300  1  0.73370237  0.75137294  0.36924067  1
  O  O301  1  0.74106185  0.73917600  0.88084333  1
  O  O302  1  -0.00140561  0.12175318  0.00812250  1
  O  O303  1  0.00834963  0.11499803  0.50401769  1
  O  O304  1  0.00481647  0.62179310  0.00307519  1
  O  O305  1  0.01398588  0.61048974  0.49761087  1
  O  O306  1  0.49400513  0.11168737  0.00025234  1
  O  O307  1  0.50817821  0.12004413  0.50752206  1
  O  O308  1  0.51162244  0.63247036  0.00933695  1
  O  O309  1  0.51352963  0.62888604  0.51014939  1
  O  O310  1  0.49682316  0.37782066  0.49272629  1
  O  O311  1  0.48948679  0.37466496  0.99319079  1
  O  O312  1  0.51349040  0.88828676  0.48760695  1
  O  O313  1  0.49395770  0.87957445  0.99286716  1
  O  O314  1  1.00214169  0.38264052  0.49938940  1
  O  O315  1  0.98781847  0.38830535  1.00685196  1
  O  O316  1  1.00666427  0.88666948  0.50182162  1
  O  O317  1  1.00414986  0.86397186  0.98560529  1
  O  O318  1  0.49767144  0.48525823  0.37731597  1
  O  O319  1  0.48968899  0.48989796  0.87243350  1
  O  O320  1  0.49121308  0.99790796  0.38058699  1
  O  O321  1  0.50834958  0.99090407  0.89161492  1
  O  O322  1  0.98590615  0.49570085  0.36846677  1
  O  O323  1  0.98912084  0.50873062  0.88556001  1
  O  O324  1  1.00202545  0.99893584  0.38959838  1
  O  O325  1  0.99349166  0.98748143  0.87616073  1
  O  O326  1  0.01152841  -0.00417669  0.12582532  1
  O  O327  1  -0.00347850  0.01181865  0.61738465  1
  O  O328  1  0.00617348  0.51076478  0.11397050  1
  O  O329  1  0.01085121  0.50186759  0.63123046  1
  O  O330  1  0.50672024  0.00070586  0.11341427  1
  O  O331  1  0.50671270  0.00972904  0.61968988  1
  O  O332  1  0.50825216  0.50822057  0.13268049  1
  O  O333  1  0.51618995  0.49901316  0.61986259  1
  O  O334  1  0.24277780  0.39003887  0.24079489  1
  O  O335  1  0.24395160  0.38802360  0.75454631  1
  O  O336  1  0.23992630  0.86653128  0.24049394  1
  O  O337  1  0.24015954  0.88599801  0.75777580  1
  O  O338  1  0.74360043  0.38162226  0.24071605  1
  O  O339  1  0.74613520  0.36716567  0.73876051  1
  O  O340  1  0.73561648  0.86870077  0.25168481  1
  O  O341  1  0.74607757  0.87777305  0.75516598  1
  O  O342  1  0.24822670  0.12850850  0.26086161  1
  O  O343  1  0.25322283  0.12073136  0.75338951  1
  O  O344  1  0.24526858  0.61411547  0.23995109  1
  O  O345  1  0.24080512  0.61632518  0.76232457  1
  O  O346  1  0.74386297  0.11392503  0.26897725  1
  O  O347  1  0.75183461  0.12599311  0.75952511  1
  O  O348  1  0.75685955  0.61485589  0.24152645  1
  O  O349  1  0.75887015  0.62968614  0.75979084  1
  O  O350  1  0.36875197  0.11580976  0.37753432  1
  O  O351  1  0.36471806  0.13263902  0.86401236  1
  O  O352  1  0.36694332  0.65493356  0.37170544  1
  O  O353  1  0.36635410  0.61591077  0.88334967  1
  O  O354  1  0.85977446  0.12094876  0.37023113  1
  O  O355  1  0.86246245  0.11279267  0.87469551  1
  O  O356  1  0.87866629  0.61494315  0.36056050  1
  O  O357  1  0.86744863  0.61837929  0.86543641  1
  O  O358  1  0.13398205  0.38539215  0.12573783  1
  O  O359  1  0.12724395  0.38822489  0.64133114  1
  O  O360  1  0.13324928  0.88410054  0.12997434  1
  O  O361  1  0.13934100  0.87100351  0.63899683  1
  O  O362  1  0.62783208  0.38191187  0.13002608  1
  O  O363  1  0.63130923  0.37778306  0.63099199  1
  O  O364  1  0.61893039  0.87789580  0.13712263  1
  O  O365  1  0.62680185  0.88135886  0.63848507  1
  O  O366  1  0.13455553  0.27037268  0.24480386  1
  O  O367  1  0.12793657  0.26491354  0.74987513  1
  O  O368  1  0.11612970  0.76503742  0.24220099  1
  O  O369  1  0.11380585  0.75335190  0.74668026  1
  O  O370  1  0.62702032  0.26365908  0.24327836  1
  O  O371  1  0.62849781  0.26139596  0.75381816  1
  O  O372  1  0.61640671  0.75614089  0.25846684  1
  O  O373  1  0.63268087  0.76520240  0.75735117  1
  O  O374  1  0.37205778  0.26285836  0.23277775  1
  O  O375  1  0.37103763  0.24300906  0.73697908  1
  O  O376  1  0.38442494  0.76005561  0.23498507  1
  O  O377  1  0.36725553  0.75114569  0.73253663  1
  O  O378  1  0.85390439  0.22519036  0.24579910  1
  O  O379  1  0.87183544  0.24022820  0.73044146  1
  O  O380  1  0.88412446  0.74089845  0.25239301  1
  O  O381  1  0.88105463  0.74388656  0.74031904  1
  O  O382  1  0.37517583  0.48553763  0.51367231  1
  O  O383  1  0.36765703  0.48994016  0.98963250  1
  O  O384  1  0.38805927  1.00633209  0.50114027  1
  O  O385  1  0.38768614  0.99006531  1.00683544  1
  O  O386  1  0.87022963  0.50665888  0.47991585  1
  O  O387  1  0.87897608  0.49588603  0.99198158  1
  O  O388  1  0.88775919  0.98375906  0.50660854  1
  O  O389  1  0.87186420  0.99552900  0.98133567  1
  O  O390  1  0.13054105  -0.00141436  0.01497292  1
  O  O391  1  0.11423382  0.01139337  0.50133589  1
  O  O392  1  0.11842610  0.50662662  0.00526325  1
  O  O393  1  0.12685367  0.49485088  0.51962141  1
  O  O394  1  0.61266813  -0.00979806  0.01294727  1
  O  O395  1  0.61657998  0.00811301  0.51044400  1
  O  O396  1  0.62959225  0.50888668  0.01099350  1
  O  O397  1  0.62411787  0.51327531  0.50282868  1
  O  O398  1  0.36766780  0.37260720  0.11705750  1
  O  O399  1  0.38373708  0.36280202  0.61735376  1
  O  O400  1  0.37141213  0.86752485  0.11590140  1
  O  O401  1  0.35896381  0.87431502  0.63294351  1
  O  O402  1  0.86270079  0.37989567  0.11657018  1
  O  O403  1  0.86948310  0.36209398  0.62676925  1
  O  O404  1  0.87737290  0.86740289  0.12119462  1
  O  O405  1  0.87817895  0.86440617  0.61745236  1
  O  O406  1  0.14262223  0.11687229  0.38410303  1
  O  O407  1  0.13175809  0.13677119  0.87232207  1
  O  O408  1  0.12988118  0.61757480  0.38792039  1
  O  O409  1  0.13335550  0.61922612  0.88663976  1
  O  O410  1  0.63591000  0.11569516  0.38839046  1
  O  O411  1  0.63937442  0.12065634  0.87331687  1
  O  O412  1  0.61735951  0.63627388  0.38225773  1
  O  O413  1  0.62979145  0.62788214  0.88033876  1
