# generated using pymatgen
data_V79Zn79O256
_symmetry_space_group_name_H-M   'P 1'
_cell_length_a   16.83593586
_cell_length_b   16.84312538
_cell_length_c   16.84098296
_cell_angle_alpha   89.99915019
_cell_angle_beta   89.91315260
_cell_angle_gamma   89.94612271
_symmetry_Int_Tables_number   1
_chemical_formula_structural   V79Zn79O256
_chemical_formula_sum   'V79 Zn79 O256'
_cell_volume   4775.58621424
_cell_formula_units_Z   1
loop_
 _symmetry_equiv_pos_site_id
 _symmetry_equiv_pos_as_xyz
  1  'x, y, z'
loop_
 _atom_site_type_symbol
 _atom_site_label
 _atom_site_symmetry_multiplicity
 _atom_site_fract_x
 _atom_site_fract_y
 _atom_site_fract_z
 _atom_site_occupancy
  V  V0  1  0.87675709  0.37419288  -0.01203053  1
  V  V1  1  0.26467632  0.00573061  0.74587013  1
  V  V2  1  0.88661674  0.00238549  0.37339222  1
  V  V3  1  0.48803799  -0.01993011  0.49190721  1
  V  V4  1  0.50404597  0.36606702  0.87519949  1
  V  V5  1  0.24628584  0.36569681  0.12212989  1
  V  V6  1  0.50086607  0.00270733  0.01283297  1
  V  V7  1  0.11963935  0.50692250  0.12300883  1
  V  V8  1  0.12539022  0.76229812  0.86996787  1
  V  V9  1  -0.00096145  0.24944590  0.74926819  1
  V  V10  1  0.88223878  0.63363318  0.24019720  1
  V  V11  1  0.87647306  0.24739643  0.12731319  1
  V  V12  1  -0.00301258  0.50424061  0.00001313  1
  V  V13  1  0.39195254  0.62447608  0.24539755  1
  V  V14  1  0.75295256  0.24927293  0.50898374  1
  V  V15  1  0.50316110  0.87520898  0.87390428  1
  V  V16  1  0.87830544  0.11843810  0.74111532  1
  V  V17  1  0.24712087  0.87633749  0.12920719  1
  V  V18  1  0.37156171  0.36566260  0.00141851  1
  V  V19  1  0.00454035  0.00525274  0.49912693  1
  V  V20  1  0.75392747  0.87986472  0.62634442  1
  V  V21  1  0.12277020  0.12957356  0.51201827  1
  V  V22  1  0.12049366  0.87028517  0.26491026  1
  V  V23  1  0.37408580  0.87369017  -0.00035450  1
  V  V24  1  0.87250153  0.38711159  0.50409242  1
  V  V25  1  0.50245431  0.50868400  0.00293565  1
  V  V26  1  0.61205628  0.75432472  0.37497426  1
  V  V27  1  0.24903836  0.50017780  0.75019844  1
  V  V28  1  0.50213430  0.62154195  0.62300348  1
  V  V29  1  0.75088752  0.51933275  0.75511696  1
  V  V30  1  0.86714307  -0.00211666  0.87125497  1
  V  V31  1  0.88055683  0.73979689  0.62573958  1
  V  V32  1  0.00660516  0.74804197  0.24515297  1
  V  V33  1  0.25084075  0.75184769  0.49650659  1
  V  V34  1  0.24767828  0.50278139  0.25048794  1
  V  V35  1  0.37590107  0.62600011  0.74964785  1
  V  V36  1  0.24695863  0.62822498  0.87935211  1
  V  V37  1  0.11209830  0.62646042  0.49739087  1
  V  V38  1  0.62078174  0.36154511  0.25202197  1
  V  V39  1  -0.00202036  0.12628950  0.13381070  1
  V  V40  1  0.87511813  0.51687979  0.87063133  1
  V  V41  1  0.10965185  0.50629198  0.62212030  1
  V  V42  1  0.11694000  0.37676380  0.75656513  1
  V  V43  1  0.37653276  0.01503453  0.87189536  1
  V  V44  1  0.12563382  -0.00064531  0.12927345  1
  V  V45  1  0.38752760  0.24117514  0.14034777  1
  V  V46  1  -0.00109875  0.00360496  0.00044645  1
  V  V47  1  0.86600820  0.87176815  0.01323887  1
  V  V48  1  0.13369942  0.24254450  0.87645268  1
  V  V49  1  0.74837135  0.37304322  0.12162446  1
  V  V50  1  0.00021825  0.87661540  0.86631728  1
  V  V51  1  0.61836246  0.51146377  0.12336361  1
  V  V52  1  0.50243995  0.36447496  0.37065792  1
  V  V53  1  0.62221560  0.00130142  0.62220121  1
  V  V54  1  0.37739263  0.37471220  0.50313684  1
  V  V55  1  0.12309216  0.25122016  0.37557509  1
  V  V56  1  0.63517702  0.36466471  0.75307673  1
  V  V57  1  0.75484254  0.50252665  0.25523597  1
  V  V58  1  0.63557611  0.73761577  0.87633674  1
  V  V59  1  0.37542103  0.49905753  0.87820210  1
  V  V60  1  0.38836439  0.74701601  0.12565567  1
  V  V61  1  -0.00805926  0.38903746  0.37923701  1
  V  V62  1  0.63334833  0.88254229  0.75131849  1
  V  V63  1  0.74981350  0.73858324  0.01093297  1
  V  V64  1  -0.00113309  0.73568267  0.74515092  1
  V  V65  1  0.61890785  0.12685988  0.49830740  1
  V  V66  1  0.75937195  -0.01130147  0.24704597  1
  V  V67  1  0.25040316  0.24888393  0.50242977  1
  V  V68  1  0.75433886  0.13104539  0.36742144  1
  V  V69  1  0.25392987  0.37438356  0.62680253  1
  V  V70  1  0.63141534  0.49595217  0.62663101  1
  V  V71  1  0.62373811  0.13167374  0.00792259  1
  V  V72  1  0.88512836  0.87460391  0.49293621  1
  V  V73  1  0.12157684  -0.00595751  0.63659647  1
  V  V74  1  0.75393526  0.75050372  0.49332565  1
  V  V75  1  0.61015700  0.87268729  0.25001162  1
  V  V76  1  0.37613551  0.75694238  0.62249436  1
  V  V77  1  0.74387615  0.12892777  0.86847269  1
  V  V78  1  0.48742538  0.24202312  0.73513633  1
  Zn  Zn79  1  0.63271071  -0.00508222  0.12691586  1
  Zn  Zn80  1  0.11870135  0.37745935  0.24931498  1
  Zn  Zn81  1  0.88247341  0.25020007  0.62380977  1
  Zn  Zn82  1  0.74661090  0.25225036  -0.00461089  1
  Zn  Zn83  1  0.24853586  0.87214451  0.62689019  1
  Zn  Zn84  1  0.14427519  0.14332592  0.00473823  1
  Zn  Zn85  1  0.38041815  0.50200354  0.37387466  1
  Zn  Zn86  1  0.11243025  0.63238417  0.00229290  1
  Zn  Zn87  1  0.24765352  0.62360462  0.37563128  1
  Zn  Zn88  1  -0.00894871  0.24712331  0.25770739  1
  Zn  Zn89  1  0.50374908  0.75039297  0.74983976  1
  Zn  Zn90  1  0.24502132  0.75284024  0.00026648  1
  Zn  Zn91  1  0.62671606  0.62306198  0.49585468  1
  Zn  Zn92  1  0.75627343  0.62048534  0.37794385  1
  Zn  Zn93  1  0.50437752  0.49795133  0.49708684  1
  Zn  Zn94  1  0.19995817  0.18194199  0.19346034  1
  Zn  Zn95  1  0.19218438  0.18697258  0.69089070  1
  Zn  Zn96  1  0.19024462  0.68895087  0.18478213  1
  Zn  Zn97  1  0.18520934  0.68916418  0.68649792  1
  Zn  Zn98  1  0.69016675  0.18364679  0.18594159  1
  Zn  Zn99  1  0.68589907  0.18434969  0.68647989  1
  Zn  Zn100  1  0.68483342  0.68978221  0.19078611  1
  Zn  Zn101  1  0.68825440  0.69354235  0.68509788  1
  Zn  Zn102  1  0.30876968  0.31605803  0.31475955  1
  Zn  Zn103  1  0.31211534  0.30939473  0.81328699  1
  Zn  Zn104  1  0.29730635  0.79177485  0.29780216  1
  Zn  Zn105  1  0.30995927  0.81936140  0.80804432  1
  Zn  Zn106  1  0.81152228  0.31623191  0.31393436  1
  Zn  Zn107  1  0.81310658  0.30813984  0.80987384  1
  Zn  Zn108  1  0.81947135  0.81089912  0.30951396  1
  Zn  Zn109  1  0.81546820  0.80849774  0.81291389  1
  Zn  Zn110  1  0.18476797  0.43900665  0.43930333  1
  Zn  Zn111  1  0.18548699  0.43603007  0.93881440  1
  Zn  Zn112  1  0.19783505  0.94182823  0.44160519  1
  Zn  Zn113  1  0.20360328  0.97323506  0.95219562  1
  Zn  Zn114  1  0.68674018  0.43237756  0.43815698  1
  Zn  Zn115  1  0.68742548  0.44287989  0.93523342  1
  Zn  Zn116  1  0.69062716  0.93837096  0.43452406  1
  Zn  Zn117  1  0.68761473  0.93947355  0.94050101  1
  Zn  Zn118  1  0.30981030  0.06870101  0.06699701  1
  Zn  Zn119  1  0.31510822  0.06880601  0.56458073  1
  Zn  Zn120  1  0.31358466  0.55857651  0.06564855  1
  Zn  Zn121  1  0.30813878  0.56198886  0.56099080  1
  Zn  Zn122  1  0.81278626  0.06376092  0.06021430  1
  Zn  Zn123  1  0.81006113  0.06148570  0.55675084  1
  Zn  Zn124  1  0.80974591  0.55966261  0.06272637  1
  Zn  Zn125  1  0.80967793  0.56329918  0.56617870  1
  Zn  Zn126  1  0.43501934  0.43359160  0.18617375  1
  Zn  Zn127  1  0.44153535  0.43380812  0.69006479  1
  Zn  Zn128  1  0.43094269  0.93588837  0.19609154  1
  Zn  Zn129  1  0.44430437  0.94304695  0.68455620  1
  Zn  Zn130  1  0.93833693  0.43420822  0.18616968  1
  Zn  Zn131  1  0.93138451  0.43661372  0.68802724  1
  Zn  Zn132  1  0.94293882  0.93438711  0.19037464  1
  Zn  Zn133  1  0.93913304  0.93584530  0.68333564  1
  Zn  Zn134  1  0.09804283  0.07522091  0.30279452  1
  Zn  Zn135  1  0.06034706  0.06404851  0.81253031  1
  Zn  Zn136  1  0.06037555  0.56629460  0.31331886  1
  Zn  Zn137  1  0.06077073  0.56204493  0.81614971  1
  Zn  Zn138  1  0.56983976  0.05243948  0.32369339  1
  Zn  Zn139  1  0.56215163  0.06398772  0.81262196  1
  Zn  Zn140  1  0.57011680  0.55773863  0.31623205  1
  Zn  Zn141  1  0.56120270  0.55683832  0.81332472  1
  Zn  Zn142  1  0.43929306  0.19077575  0.44002377  1
  Zn  Zn143  1  0.44115652  0.18991059  0.94166595  1
  Zn  Zn144  1  0.43313051  0.68448707  0.43697785  1
  Zn  Zn145  1  0.43972996  0.69169676  0.93699060  1
  Zn  Zn146  1  0.93888662  0.18670489  0.43855201  1
  Zn  Zn147  1  0.93951207  0.18955001  0.93304582  1
  Zn  Zn148  1  0.93606024  0.68296476  0.42396392  1
  Zn  Zn149  1  0.93494593  0.69194565  0.93926927  1
  Zn  Zn150  1  0.05846539  0.31774502  0.05953431  1
  Zn  Zn151  1  0.05860794  0.31939432  0.56615509  1
  Zn  Zn152  1  0.05700605  0.81314665  0.06114852  1
  Zn  Zn153  1  0.06481963  0.81239150  0.56015147  1
  Zn  Zn154  1  0.55782326  0.31382324  0.06526350  1
  Zn  Zn155  1  0.56561018  0.31123787  0.56381914  1
  Zn  Zn156  1  0.57020978  0.81268318  0.06126167  1
  Zn  Zn157  1  0.56258159  0.81137474  0.56226260  1
  O  O158  1  0.11399731  0.11573456  0.11677175  1
  O  O159  1  0.12863766  0.11486411  0.61857467  1
  O  O160  1  0.13592822  0.61158149  0.11729242  1
  O  O161  1  0.12724525  0.61226207  0.62047569  1
  O  O162  1  0.62968320  0.11802291  0.11210730  1
  O  O163  1  0.63743741  0.11269104  0.61011116  1
  O  O164  1  0.62389499  0.61020486  0.13041443  1
  O  O165  1  0.61780961  0.61796636  0.62727275  1
  O  O166  1  0.38796554  0.37683369  0.37968108  1
  O  O167  1  0.37996312  0.37944054  0.88278119  1
  O  O168  1  0.33124861  0.95753836  0.33372761  1
  O  O169  1  0.38709989  0.87473701  0.88223075  1
  O  O170  1  0.88400501  0.36989202  0.38560824  1
  O  O171  1  0.86479285  0.37919821  0.88489085  1
  O  O172  1  0.87253067  0.88587526  0.38519360  1
  O  O173  1  0.87964235  0.88328811  0.87782676  1
  O  O174  1  0.27932526  0.00196741  0.37605762  1
  O  O175  1  0.26987861  -0.00964195  0.85905593  1
  O  O176  1  0.25279210  0.49487242  0.36179376  1
  O  O177  1  0.25393614  0.50830005  0.87058073  1
  O  O178  1  0.76200442  0.00769098  0.36839261  1
  O  O179  1  0.76023346  0.00880266  0.87797498  1
  O  O180  1  0.73822798  0.49925075  0.35799190  1
  O  O181  1  0.75775853  0.50242326  0.86473402  1
  O  O182  1  0.24228700  0.49022269  0.13106198  1
  O  O183  1  0.24334455  0.49232047  0.63233988  1
  O  O184  1  0.23995512  0.98600758  0.12431278  1
  O  O185  1  0.24050727  0.99780257  0.63072101  1
  O  O186  1  0.73788029  0.48981945  0.12947228  1
  O  O187  1  0.74373623  0.50408227  0.64231553  1
  O  O188  1  0.75488727  1.00689155  0.14386206  1
  O  O189  1  0.74182043  0.98618154  0.61465882  1
  O  O190  1  -0.00166052  0.37122754  0.26487966  1
  O  O191  1  0.00910884  0.36924067  0.74523346  1
  O  O192  1  0.00961920  0.86150666  0.24940102  1
  O  O193  1  -0.00304172  0.87328730  0.76252786  1
  O  O194  1  0.51026979  0.37756062  0.25786699  1
  O  O195  1  0.50940401  0.36771555  0.75722286  1
  O  O196  1  0.51066695  0.88097802  0.25903780  1
  O  O197  1  0.51107430  0.87428311  0.75872642  1
  O  O198  1  0.47562289  0.12479545  0.28626088  1
  O  O199  1  0.50925658  0.14463016  0.75651480  1
  O  O200  1  0.49050542  0.61584309  0.24855793  1
  O  O201  1  0.49133984  0.62357792  0.74356032  1
  O  O202  1  1.00635140  0.12609217  0.23768097  1
  O  O203  1  0.98417350  0.12920970  0.75152718  1
  O  O204  1  0.99111539  0.62958729  0.24651735  1
  O  O205  1  0.99823369  0.63650036  0.75119247  1
  O  O206  1  0.37963055  0.26056083  0.01023222  1
  O  O207  1  0.36379362  0.26080870  0.49171076  1
  O  O208  1  0.37337739  0.76060441  0.00433984  1
  O  O209  1  0.36247202  0.73966944  0.51073276  1
  O  O210  1  0.87523809  0.25845524  0.00647342  1
  O  O211  1  0.86450520  0.24923750  0.50357038  1
  O  O212  1  0.86248581  0.76247967  -0.00583600  1
  O  O213  1  0.87427198  0.75722207  0.50299692  1
  O  O214  1  0.12863066  0.24902292  0.50058420  1
  O  O215  1  0.11631906  0.25520961  0.98185743  1
  O  O216  1  0.13777978  0.73578771  0.51283196  1
  O  O217  1  0.12406899  0.74888856  0.98752710  1
  O  O218  1  0.63783543  0.23767499  0.50449495  1
  O  O219  1  0.62285004  0.23582190  1.00408901  1
  O  O220  1  0.63538023  0.75269581  0.48991149  1
  O  O221  1  0.63762100  0.75701924  0.98637638  1
  O  O222  1  0.48805354  0.25150433  0.13146107  1
  O  O223  1  0.50034042  0.25208339  0.63481742  1
  O  O224  1  0.48814641  0.75323245  0.11639530  1
  O  O225  1  0.49635090  0.73798635  0.62728392  1
  O  O226  1  0.99460789  0.24390930  0.12531721  1
  O  O227  1  1.00163267  0.25079943  0.63995884  1
  O  O228  1  1.00578183  0.74821709  0.13956853  1
  O  O229  1  0.99666614  0.75713551  0.63825891  1
  O  O230  1  0.00757802  0.25768908  0.37737648  1
  O  O231  1  0.00690124  0.24886261  0.85841800  1
  O  O232  1  -0.00601289  0.74692284  0.34972528  1
  O  O233  1  0.00315962  0.75571260  0.86438235  1
  O  O234  1  0.50440937  0.26518006  0.37754659  1
  O  O235  1  0.49810956  0.26278141  0.87076423  1
  O  O236  1  0.51302971  0.74902447  0.38274884  1
  O  O237  1  0.51392224  0.76079322  0.87699590  1
  O  O238  1  0.24157959  0.14002344  0.50472211  1
  O  O239  1  0.23457850  0.08095836  0.98709986  1
  O  O240  1  0.24258286  0.63276371  0.49842911  1
  O  O241  1  0.25515834  0.62612829  0.98585259  1
  O  O242  1  0.74687862  0.13333445  0.49050712  1
  O  O243  1  0.73962727  0.12423611  0.99159360  1
  O  O244  1  0.74920893  0.63764460  0.49957251  1
  O  O245  1  0.75611473  0.63881710  0.99947970  1
  O  O246  1  0.26059913  0.38226844  0.00894617  1
  O  O247  1  0.25641047  0.37191266  0.50835538  1
  O  O248  1  0.26240100  0.87915441  0.00544961  1
  O  O249  1  0.24495828  0.85736079  0.50578381  1
  O  O250  1  0.75337864  0.37493163  0.00722196  1
  O  O251  1  0.75888613  0.35686247  0.48798154  1
  O  O252  1  0.76165117  0.87329307  -0.00098418  1
  O  O253  1  0.76090806  0.86870842  0.50568222  1
  O  O254  1  0.12988256  0.50107550  0.24140569  1
  O  O255  1  0.12708289  0.49602713  0.74340750  1
  O  O256  1  0.10514508  0.97724695  0.23586924  1
  O  O257  1  0.13043829  1.00349870  0.74012669  1
  O  O258  1  0.63212568  0.49113401  0.23707114  1
  O  O259  1  0.63719097  0.49480397  0.74832707  1
  O  O260  1  0.63626426  0.98811041  0.25364812  1
  O  O261  1  0.62123056  0.99067555  0.74007557  1
  O  O262  1  0.35702722  -0.00348009  0.26735282  1
  O  O263  1  0.37697202  0.00113201  0.76004120  1
  O  O264  1  0.36709200  0.51044095  0.24380470  1
  O  O265  1  0.37122820  0.50719225  0.75604631  1
  O  O266  1  0.86850189  -0.00765179  0.25911858  1
  O  O267  1  0.87958368  0.00945140  0.75631957  1
  O  O268  1  0.85726858  0.49459322  0.24581658  1
  O  O269  1  0.86222062  0.49596692  0.75972985  1
  O  O270  1  0.10834905  0.36823624  0.38457715  1
  O  O271  1  0.12863912  0.36886664  0.86241619  1
  O  O272  1  0.13207664  0.88502176  0.36256232  1
  O  O273  1  0.11453953  0.86734545  0.88121359  1
  O  O274  1  0.61730339  0.37700425  0.36177522  1
  O  O275  1  0.61798313  0.38122230  0.86285211  1
  O  O276  1  0.63085502  0.86345920  0.36759185  1
  O  O277  1  0.62062263  0.87580298  0.86812678  1
  O  O278  1  0.36874427  0.14104580  0.12531687  1
  O  O279  1  0.36664428  0.11668118  0.65074745  1
  O  O280  1  0.37073497  0.63216390  0.13543441  1
  O  O281  1  0.38209124  0.62736296  0.63341235  1
  O  O282  1  0.88448528  0.13575270  0.11633657  1
  O  O283  1  0.86604558  0.12058850  0.63911403  1
  O  O284  1  0.87222787  0.61139261  0.14127863  1
  O  O285  1  0.87486736  0.64030736  0.61995234  1
  O  O286  1  0.24608353  0.26087410  0.12737844  1
  O  O287  1  0.24122989  0.26529908  0.61793387  1
  O  O288  1  0.25883850  0.76024622  0.12018656  1
  O  O289  1  0.25969470  0.74866748  0.62048308  1
  O  O290  1  0.75636823  0.25768230  0.12118792  1
  O  O291  1  0.75342890  0.24658957  0.61189709  1
  O  O292  1  0.73985129  0.75036882  0.11024325  1
  O  O293  1  0.75840544  0.75957502  0.61571779  1
  O  O294  1  0.23267898  0.26551968  0.38925481  1
  O  O295  1  0.23447025  0.24973194  0.87016673  1
  O  O296  1  0.25543212  0.74837324  0.39139529  1
  O  O297  1  0.24248211  0.74639353  0.87206304  1
  O  O298  1  0.75653339  0.23534682  0.37876896  1
  O  O299  1  0.75386367  0.23362169  0.87861216  1
  O  O300  1  0.75102789  0.75178913  0.38524549  1
  O  O301  1  0.73993455  0.75146499  0.87895283  1
  O  O302  1  -0.00137678  0.11203462  0.00295348  1
  O  O303  1  0.00603591  0.11563004  0.50510653  1
  O  O304  1  -0.00570665  0.61087380  -0.00376222  1
  O  O305  1  0.01237885  0.63589159  0.49934207  1
  O  O306  1  0.51614400  0.11553469  -0.00979454  1
  O  O307  1  0.51689254  0.12533053  0.49489407  1
  O  O308  1  0.49348260  0.60846233  -0.00554297  1
  O  O309  1  0.50182861  0.62077298  0.51155673  1
  O  O310  1  0.49609728  0.37351350  0.49151569  1
  O  O311  1  0.49338871  0.38157182  0.99360455  1
  O  O312  1  0.49513668  0.87909637  0.50187559  1
  O  O313  1  0.49546079  0.88302216  0.99352330  1
  O  O314  1  0.98430419  0.37398569  0.49242184  1
  O  O315  1  0.98568903  0.38907038  1.00192495  1
  O  O316  1  0.99340433  0.88607054  0.50268552  1
  O  O317  1  0.98437990  0.87916219  0.98964105  1
  O  O318  1  0.50194061  0.48817765  0.37904802  1
  O  O319  1  0.49537342  0.48941386  0.88167813  1
  O  O320  1  0.50226682  0.99433654  0.39213372  1
  O  O321  1  0.49240325  0.99258471  0.87974581  1
  O  O322  1  0.99904296  0.48808708  0.37443761  1
  O  O323  1  0.98297622  0.50022707  0.87834434  1
  O  O324  1  0.99381765  1.00974113  0.38410731  1
  O  O325  1  0.99172146  0.99543038  0.88117161  1
  O  O326  1  0.00091612  0.00707126  0.11905431  1
  O  O327  1  0.01323445  -0.00136885  0.61734725  1
  O  O328  1  0.00923020  0.49491980  0.11702021  1
  O  O329  1  0.01041592  0.49996438  0.62971397  1
  O  O330  1  0.49123363  -0.00252038  0.11474048  1
  O  O331  1  0.51577791  -0.00446895  0.61167494  1
  O  O332  1  0.51139216  0.49162498  0.11903846  1
  O  O333  1  0.51072205  0.50659671  0.62702705  1
  O  O334  1  0.24561556  0.38572612  0.24071126  1
  O  O335  1  0.24213943  0.38026580  0.74392862  1
  O  O336  1  0.23369284  0.86597273  0.24131847  1
  O  O337  1  0.25609279  0.89314141  0.74164558  1
  O  O338  1  0.73970400  0.38186313  0.24396780  1
  O  O339  1  0.73764695  0.37630246  0.75371357  1
  O  O340  1  0.74773134  0.88628534  0.25426691  1
  O  O341  1  0.74502030  0.87030049  0.73928941  1
  O  O342  1  0.20204612  0.09602825  0.25843281  1
  O  O343  1  0.24986836  0.10684897  0.74841522  1
  O  O344  1  0.25279278  0.61612776  0.25262934  1
  O  O345  1  0.25741424  0.62167126  0.75789837  1
  O  O346  1  0.74324775  0.11430699  0.26319655  1
  O  O347  1  0.75827871  0.12775844  0.76111258  1
  O  O348  1  0.75447609  0.61203997  0.24593880  1
  O  O349  1  0.74903469  0.61851770  0.75144467  1
  O  O350  1  0.41641829  0.12869913  0.33498487  1
  O  O351  1  0.37970536  0.11328077  0.87972966  1
  O  O352  1  0.37291051  0.62279096  0.35858997  1
  O  O353  1  0.36985260  0.62267244  0.86680481  1
  O  O354  1  0.86476473  0.11590189  0.37892745  1
  O  O355  1  0.86596674  0.11651060  0.86853882  1
  O  O356  1  0.86928714  0.62202508  0.35172840  1
  O  O357  1  0.87282306  0.61579236  0.87361363  1
  O  O358  1  0.13027148  0.38440075  0.12449166  1
  O  O359  1  0.13167099  0.38899787  0.63141270  1
  O  O360  1  0.13130532  0.87820104  0.12899914  1
  O  O361  1  0.12621626  0.89094169  0.62086731  1
  O  O362  1  0.63113693  0.37661559  0.13464363  1
  O  O363  1  0.62000700  0.38659965  0.63981216  1
  O  O364  1  0.62125770  0.87546729  0.14389525  1
  O  O365  1  0.63389550  0.87793517  0.63165913  1
  O  O366  1  0.12551996  0.25482886  0.26952695  1
  O  O367  1  0.12037980  0.25654428  0.75603595  1
  O  O368  1  0.11958479  0.75630703  0.25140245  1
  O  O369  1  0.11178812  0.74861432  0.75655725  1
  O  O370  1  0.62968579  0.26242986  0.24648893  1
  O  O371  1  0.62136805  0.26241547  0.74458389  1
  O  O372  1  0.62941331  0.76118092  0.26262958  1
  O  O373  1  0.62646386  0.76152416  0.76082855  1
  O  O374  1  0.36738343  0.25463199  0.23946632  1
  O  O375  1  0.38769581  0.25658902  0.74954334  1
  O  O376  1  0.37668682  0.73610087  0.24222722  1
  O  O377  1  0.37708989  0.73928159  0.74463066  1
  O  O378  1  0.87268038  0.25802962  0.23273023  1
  O  O379  1  0.87953085  0.23824992  0.74707780  1
  O  O380  1  0.87955196  0.74048222  0.23970896  1
  O  O381  1  0.88876571  0.75476990  0.74173345  1
  O  O382  1  0.37560493  0.48696477  0.49746169  1
  O  O383  1  0.38290592  0.48884569  0.99895053  1
  O  O384  1  0.39000574  1.00555926  0.50652323  1
  O  O385  1  0.38262120  0.99230991  0.98859902  1
  O  O386  1  0.85831181  0.48598178  0.49800299  1
  O  O387  1  0.87437878  0.49547496  0.98730835  1
  O  O388  1  0.88442690  0.99486467  0.49477763  1
  O  O389  1  0.87918657  0.99057782  0.99264832  1
  O  O390  1  0.10575164  -0.01720419  0.01438601  1
  O  O391  1  0.12288989  0.00961921  0.50406257  1
  O  O392  1  0.11350517  0.50102835  0.00287218  1
  O  O393  1  0.12635353  0.50928425  0.51409957  1
  O  O394  1  0.61752454  0.00401762  0.00635800  1
  O  O395  1  0.62093262  0.00681881  0.50307142  1
  O  O396  1  0.61898225  0.49378167  0.01404495  1
  O  O397  1  0.63049903  0.50013375  0.51322505  1
  O  O398  1  0.36657753  0.36519459  0.12033051  1
  O  O399  1  0.36594450  0.38141300  0.61735895  1
  O  O400  1  0.36835619  0.86940207  0.12096735  1
  O  O401  1  0.38225154  0.85886244  0.63228571  1
  O  O402  1  0.86489155  0.37104599  0.11435781  1
  O  O403  1  0.87581173  0.37237319  0.60905472  1
  O  O404  1  0.87791183  0.87807422  0.11171421  1
  O  O405  1  0.87061937  0.86985977  0.61481026  1
  O  O406  1  0.11704188  0.14477488  0.39503690  1
  O  O407  1  0.12098407  0.13878580  0.87411152  1
  O  O408  1  0.12723173  0.61639048  0.39290460  1
  O  O409  1  0.13362406  0.63417814  0.87522588  1
  O  O410  1  0.64174835  0.11835556  0.38912980  1
  O  O411  1  0.63990875  0.11518417  0.88329006  1
  O  O412  1  0.63251665  0.64019898  0.37370313  1
  O  O413  1  0.62057471  0.63920613  0.86941920  1
