# generated using pymatgen
data_V79Zn79O256
_symmetry_space_group_name_H-M   'P 1'
_cell_length_a   16.87353181
_cell_length_b   16.88147719
_cell_length_c   16.87028228
_cell_angle_alpha   89.93138408
_cell_angle_beta   90.03300980
_cell_angle_gamma   89.96377240
_symmetry_Int_Tables_number   1
_chemical_formula_structural   V79Zn79O256
_chemical_formula_sum   'V79 Zn79 O256'
_cell_volume   4805.49710486
_cell_formula_units_Z   1
loop_
 _symmetry_equiv_pos_site_id
 _symmetry_equiv_pos_as_xyz
  1  'x, y, z'
loop_
 _atom_site_type_symbol
 _atom_site_label
 _atom_site_symmetry_multiplicity
 _atom_site_fract_x
 _atom_site_fract_y
 _atom_site_fract_z
 _atom_site_occupancy
  V  V0  1  0.62722415  0.50642154  0.61755690  1
  V  V1  1  0.86834214  0.12469897  0.75082312  1
  V  V2  1  0.62934338  0.88256234  0.75347307  1
  V  V3  1  0.50058952  -0.00057782  0.00549930  1
  V  V4  1  0.36778495  0.00803580  0.37150205  1
  V  V5  1  0.75217926  0.62042290  0.35563002  1
  V  V6  1  0.75127134  0.74219472  0.00823209  1
  V  V7  1  0.23610811  0.74954401  0.50221565  1
  V  V8  1  0.49882674  0.37711175  0.38253098  1
  V  V9  1  0.37565173  0.62582009  0.25044582  1
  V  V10  1  0.24966954  0.00101811  0.74516315  1
  V  V11  1  0.13133718  0.88155476  0.74109755  1
  V  V12  1  0.36734813  0.75519314  0.12710628  1
  V  V13  1  0.37723010  0.49988418  0.38291978  1
  V  V14  1  0.89172400  0.24888145  0.62680274  1
  V  V15  1  0.50339461  0.62765148  0.61718856  1
  V  V16  1  0.23501168  0.63095193  0.37559521  1
  V  V17  1  0.12280071  0.75054832  0.87889580  1
  V  V18  1  0.87605029  0.63143950  0.74913305  1
  V  V19  1  0.49407715  0.12848302  0.13111118  1
  V  V20  1  0.74611626  0.74291896  0.50806237  1
  V  V21  1  0.87380623  0.87213444  0.00479042  1
  V  V22  1  0.49452734  0.00205369  0.50377376  1
  V  V23  1  0.11913774  0.37346782  0.25068585  1
  V  V24  1  0.49933132  0.87386420  0.87832166  1
  V  V25  1  0.62264334  0.12427053  0.50246486  1
  V  V26  1  0.36745123  0.00698719  0.87969797  1
  V  V27  1  0.26637812  0.24940028  -0.00663591  1
  V  V28  1  -0.00251366  0.75270125  0.74560259  1
  V  V29  1  0.49291062  0.25049650  0.24944828  1
  V  V30  1  0.88648504  0.37807403  0.48998888  1
  V  V31  1  0.00346199  0.50195553  -0.00373490  1
  V  V32  1  0.00943323  0.61948471  0.61889726  1
  V  V33  1  0.88066916  0.87496125  0.50700287  1
  V  V34  1  0.36604039  0.87737303  0.00641292  1
  V  V35  1  0.12785315  0.51193572  0.11163000  1
  V  V36  1  0.49815483  0.74857872  0.75055901  1
  V  V37  1  0.12574515  -0.01937572  0.12340934  1
  V  V38  1  0.50237196  0.75036247  0.25064294  1
  V  V39  1  0.62174952  0.37211213  0.76093685  1
  V  V40  1  0.62669543  0.25153065  0.37202747  1
  V  V41  1  0.49927930  0.87543102  0.37683470  1
  V  V42  1  0.37535288  0.48504195  0.88204482  1
  V  V43  1  0.12369732  0.13208891  0.00757108  1
  V  V44  1  0.49469045  0.12847668  0.62832049  1
  V  V45  1  0.37098802  0.86997773  0.50704576  1
  V  V46  1  0.50531144  0.49155325  -0.00261566  1
  V  V47  1  0.63883020  0.38723492  0.24104461  1
  V  V48  1  0.26341547  0.36738265  0.11966333  1
  V  V49  1  0.85987585  0.00268168  0.87000135  1
  V  V50  1  0.11641169  0.37378137  0.75220739  1
  V  V51  1  0.00812239  0.86283623  0.36243287  1
  V  V52  1  0.50974920  0.62206961  0.11613159  1
  V  V53  1  0.75115388  0.88116099  0.62962410  1
  V  V54  1  -0.00078404  0.00846279  0.00065985  1
  V  V55  1  0.88505062  -0.00181164  0.37702231  1
  V  V56  1  0.75120928  0.50344486  0.75398021  1
  V  V57  1  0.63122228  0.13490069  -0.00841069  1
  V  V58  1  0.24912691  0.62584291  0.87870465  1
  V  V59  1  0.01162114  0.10434465  0.62524208  1
  V  V60  1  0.25409969  0.24254241  0.49251745  1
  V  V61  1  0.63264978  0.87866060  0.25380345  1
  V  V62  1  0.24334580  0.74767042  0.00454718  1
  V  V63  1  0.24653904  0.49885489  0.74839352  1
  V  V64  1  0.10816075  0.24956855  0.87364651  1
  V  V65  1  0.75306243  0.24757386  0.50065698  1
  V  V66  1  0.50339022  0.25459414  0.76380262  1
  V  V67  1  0.24524544  -0.00950619  0.24554918  1
  V  V68  1  0.63198301  -0.00110100  0.13185580  1
  V  V69  1  -0.01558554  0.71864959  0.20997999  1
  V  V70  1  0.88742757  0.48754962  0.87456373  1
  V  V71  1  0.25567514  0.37842507  0.61753416  1
  V  V72  1  0.62612424  0.74091798  0.88117237  1
  V  V73  1  0.24951676  0.50110611  0.24561218  1
  V  V74  1  0.75073846  0.37416698  0.62304673  1
  V  V75  1  0.86824075  0.27154876  0.11059850  1
  V  V76  1  0.36959436  0.13028170  0.75634854  1
  V  V77  1  0.75027849  0.11420238  0.37002825  1
  V  V78  1  0.87922151  0.12043762  0.23895982  1
  Zn  Zn79  1  0.36897176  0.75011385  0.62780819  1
  Zn  Zn80  1  -0.00086242  0.24470298  0.24915254  1
  Zn  Zn81  1  0.76010101  0.87372456  0.13959989  1
  Zn  Zn82  1  0.87836982  0.50874828  0.37487534  1
  Zn  Zn83  1  0.11311789  0.10350465  0.48677083  1
  Zn  Zn84  1  0.00079351  0.87886097  0.87484274  1
  Zn  Zn85  1  0.62820438  0.00552129  0.63299970  1
  Zn  Zn86  1  0.50312460  0.50308688  0.49989206  1
  Zn  Zn87  1  0.12019552  0.24552503  0.37941439  1
  Zn  Zn88  1  0.75180900  0.62126134  0.88420930  1
  Zn  Zn89  1  0.62141134  0.73657496  0.38547880  1
  Zn  Zn90  1  0.36042909  0.13471525  0.25108906  1
  Zn  Zn91  1  0.38174203  0.26223694  0.61936086  1
  Zn  Zn92  1  0.37408935  0.62389372  0.74926414  1
  Zn  Zn93  1  0.02639957  0.50406090  0.49119072  1
  Zn  Zn94  1  0.18788508  0.18477911  0.18691723  1
  Zn  Zn95  1  0.18902631  0.19354611  0.68530286  1
  Zn  Zn96  1  0.17528278  0.69840971  0.19376712  1
  Zn  Zn97  1  0.18586054  0.68902408  0.68946462  1
  Zn  Zn98  1  0.68987347  0.18832723  0.18242481  1
  Zn  Zn99  1  0.68763824  0.18723261  0.69094106  1
  Zn  Zn100  1  0.68764009  0.68989837  0.18510871  1
  Zn  Zn101  1  0.68748200  0.69274957  0.68859295  1
  Zn  Zn102  1  0.30996824  0.31826616  0.31583517  1
  Zn  Zn103  1  0.30875528  0.31083805  0.81127834  1
  Zn  Zn104  1  0.30733376  0.81645001  0.31510482  1
  Zn  Zn105  1  0.31204170  0.81597700  0.81692776  1
  Zn  Zn106  1  0.81678425  0.30635468  0.30740244  1
  Zn  Zn107  1  0.82127254  0.31382760  0.80234134  1
  Zn  Zn108  1  0.82201191  0.79769919  0.31825819  1
  Zn  Zn109  1  0.81082980  0.81339081  0.81929107  1
  Zn  Zn110  1  0.18621343  0.43981778  0.43465954  1
  Zn  Zn111  1  0.18780421  0.42973166  0.93562003  1
  Zn  Zn112  1  0.18289713  0.93438660  0.43382300  1
  Zn  Zn113  1  0.18405483  0.93815680  0.93575157  1
  Zn  Zn114  1  0.69382532  0.44071778  0.42963148  1
  Zn  Zn115  1  0.68696608  0.43384129  0.94455382  1
  Zn  Zn116  1  0.68688788  0.93563713  0.44452512  1
  Zn  Zn117  1  0.68589616  0.93536000  0.94180345  1
  Zn  Zn118  1  0.30533530  0.06790013  0.06857821  1
  Zn  Zn119  1  0.27255724  0.03499254  0.53991360  1
  Zn  Zn120  1  0.31668369  0.56404100  0.06201742  1
  Zn  Zn121  1  0.30713752  0.56853920  0.56441255  1
  Zn  Zn122  1  0.80747145  0.06264037  0.05671154  1
  Zn  Zn123  1  0.81761736  0.06101488  0.56294206  1
  Zn  Zn124  1  0.79553323  0.52924821  0.05340869  1
  Zn  Zn125  1  0.82118495  0.56369160  0.56727578  1
  Zn  Zn126  1  0.44611954  0.43630217  0.18884054  1
  Zn  Zn127  1  0.43767436  0.44400517  0.69136001  1
  Zn  Zn128  1  0.43756791  0.93964117  0.19088586  1
  Zn  Zn129  1  0.43647129  0.93951140  0.69043505  1
  Zn  Zn130  1  0.94741084  0.43012072  0.16522629  1
  Zn  Zn131  1  0.93877016  0.44186560  0.68088915  1
  Zn  Zn132  1  0.93764146  0.94535540  0.18904726  1
  Zn  Zn133  1  0.94065840  0.93861997  0.69010894  1
  Zn  Zn134  1  0.06559097  0.06111805  0.30936426  1
  Zn  Zn135  1  0.05841564  0.06888009  0.81380516  1
  Zn  Zn136  1  0.05112727  0.56226864  0.30775327  1
  Zn  Zn137  1  0.06426175  0.56602182  0.81105744  1
  Zn  Zn138  1  0.56019160  0.06273441  0.31517524  1
  Zn  Zn139  1  0.55746508  0.06440619  0.81646765  1
  Zn  Zn140  1  0.56871903  0.56174801  0.31184754  1
  Zn  Zn141  1  0.56070998  0.55961897  0.81274821  1
  Zn  Zn142  1  0.43242215  0.19230796  0.43978283  1
  Zn  Zn143  1  0.44784304  0.18860006  0.94120946  1
  Zn  Zn144  1  0.43352792  0.68741455  0.43862461  1
  Zn  Zn145  1  0.43199952  0.68716634  0.93705524  1
  Zn  Zn146  1  0.94897371  0.18700115  0.43434279  1
  Zn  Zn147  1  0.93454756  0.18819006  0.93670313  1
  Zn  Zn148  1  0.93313880  0.69137970  0.43708607  1
  Zn  Zn149  1  0.93884555  0.68127524  0.94065758  1
  Zn  Zn150  1  0.05738498  0.31571117  0.06564638  1
  Zn  Zn151  1  0.07414678  0.31892233  0.56195244  1
  Zn  Zn152  1  0.05164182  0.80416771  0.06702274  1
  Zn  Zn153  1  0.06008762  0.81537053  0.56295899  1
  Zn  Zn154  1  0.56306367  0.31331193  0.06478502  1
  Zn  Zn155  1  0.56504161  0.31388093  0.56641851  1
  Zn  Zn156  1  0.56378731  0.81199950  0.06602831  1
  Zn  Zn157  1  0.56508442  0.81575201  0.56616987  1
  O  O158  1  0.12176425  0.12328197  0.11068357  1
  O  O159  1  0.11142440  0.12849718  0.63304169  1
  O  O160  1  0.14219812  0.60936609  0.12499316  1
  O  O161  1  0.10880677  0.62676034  0.63370004  1
  O  O162  1  0.61517369  0.11586083  0.12257305  1
  O  O163  1  0.61465816  0.12590136  0.62280873  1
  O  O164  1  0.60856964  0.62935796  0.12746916  1
  O  O165  1  0.61699208  0.61631820  0.63522711  1
  O  O166  1  0.38667695  0.38983169  0.36593427  1
  O  O167  1  0.37141720  0.38645895  0.87644650  1
  O  O168  1  0.38521381  0.88023963  0.38021783  1
  O  O169  1  0.37969715  0.88394421  0.88747941  1
  O  O170  1  0.87053043  0.37207275  0.38864110  1
  O  O171  1  0.87485401  0.38846933  0.86706455  1
  O  O172  1  0.87665221  0.88541805  0.38323218  1
  O  O173  1  0.87570046  0.88956567  0.88225822  1
  O  O174  1  0.25653721  -0.00698535  0.35781201  1
  O  O175  1  0.26274681  -0.00118446  0.87228980  1
  O  O176  1  0.25870315  0.51183085  0.36419438  1
  O  O177  1  0.25830309  0.50593748  0.87404321  1
  O  O178  1  0.75377611  0.00948952  0.38362401  1
  O  O179  1  0.76100375  0.00062139  0.88036444  1
  O  O180  1  0.75927254  0.51267395  0.37147286  1
  O  O181  1  0.75921231  0.50066974  0.86518341  1
  O  O182  1  0.24834156  0.49322579  0.12721910  1
  O  O183  1  0.25577358  0.49346982  0.63756053  1
  O  O184  1  0.23591407  0.99534780  0.12650443  1
  O  O185  1  0.26271745  0.99761840  0.64749065  1
  O  O186  1  0.73495878  0.43948381  0.04171316  1
  O  O187  1  0.74764307  0.49366259  0.63498224  1
  O  O188  1  0.73499208  0.99363187  0.12162407  1
  O  O189  1  0.74699043  0.98786639  0.62087025  1
  O  O190  1  0.01886888  0.39115899  0.24591160  1
  O  O191  1  0.01764395  0.38189286  0.74052267  1
  O  O192  1  -0.00452089  0.88268657  0.26335215  1
  O  O193  1  0.01082296  0.87021318  0.75420179  1
  O  O194  1  0.51028279  0.36769917  0.26002441  1
  O  O195  1  0.51518964  0.37186556  0.74471979  1
  O  O196  1  0.50372050  0.86761379  0.25838755  1
  O  O197  1  0.50598165  0.86766096  0.75692298  1
  O  O198  1  0.49928756  0.13361080  0.24680961  1
  O  O199  1  0.49613985  0.13483823  0.74688387  1
  O  O200  1  0.49366392  0.63151635  0.24251056  1
  O  O201  1  0.49945306  0.63590060  0.74512396  1
  O  O202  1  0.98215397  0.11751265  0.25072760  1
  O  O203  1  0.98643526  0.11747602  0.73562508  1
  O  O204  1  0.98699843  0.61966205  0.23519470  1
  O  O205  1  0.99542844  0.63296743  0.74478772  1
  O  O206  1  0.36582133  0.24564403  -0.00337399  1
  O  O207  1  0.36386078  0.25764259  0.50173140  1
  O  O208  1  0.36638745  0.75858256  0.00817974  1
  O  O209  1  0.36920105  0.75712234  0.50143128  1
  O  O210  1  0.87869827  0.24709426  0.01178405  1
  O  O211  1  0.86910454  0.25827964  0.50716644  1
  O  O212  1  0.86533184  0.76401498  -0.01131639  1
  O  O213  1  0.85924740  0.76848127  0.49584807  1
  O  O214  1  0.14334075  0.25384754  0.50073399  1
  O  O215  1  0.12380147  0.24824008  0.99099268  1
  O  O216  1  0.13725809  0.75644453  0.50033431  1
  O  O217  1  0.13502444  0.75936942  0.99354118  1
  O  O218  1  0.63301919  0.24630110  0.49269531  1
  O  O219  1  0.61016821  0.23367739  1.00133525  1
  O  O220  1  0.63960479  0.75920755  0.49966416  1
  O  O221  1  0.63916170  0.75760098  0.99403682  1
  O  O222  1  0.50465504  0.24124049  0.13955735  1
  O  O223  1  0.50093452  0.24488951  0.63460018  1
  O  O224  1  0.49023177  0.74198204  0.13163671  1
  O  O225  1  0.50353433  0.74445601  0.63556808  1
  O  O226  1  0.98076104  0.26348479  0.13493517  1
  O  O227  1  0.99149466  0.25428598  0.62351521  1
  O  O228  1  0.98073446  0.72751234  0.10619634  1
  O  O229  1  1.00324838  0.74641004  0.64104709  1
  O  O230  1  0.00500864  0.25328402  0.36439362  1
  O  O231  1  0.00869092  0.25198078  0.87300528  1
  O  O232  1  -0.00648433  0.76238244  0.37205144  1
  O  O233  1  0.01010657  0.74916436  0.86880946  1
  O  O234  1  0.50890568  0.25637053  0.37216233  1
  O  O235  1  0.50113432  0.25276686  0.86353196  1
  O  O236  1  0.49996177  0.75609461  0.36749454  1
  O  O237  1  0.50510257  0.75347530  0.87205377  1
  O  O238  1  0.25586856  0.14368423  0.50928022  1
  O  O239  1  0.24181310  0.14297121  1.00729592  1
  O  O240  1  0.25290005  0.63509513  0.48382039  1
  O  O241  1  0.25595537  0.63875124  0.99351199  1
  O  O242  1  0.74605044  0.13319346  0.49756895  1
  O  O243  1  0.73103822  0.12526082  1.00452291  1
  O  O244  1  0.75511996  0.64219805  0.51551971  1
  O  O245  1  0.76323104  0.63832990  1.00584674  1
  O  O246  1  0.24959443  0.36465307  0.01113961  1
  O  O247  1  0.25031921  0.37494954  0.51496030  1
  O  O248  1  0.26019781  0.86706573  -0.00358296  1
  O  O249  1  0.25995756  0.85693052  0.48565854  1
  O  O250  1  0.74085179  0.29584209  -0.05504440  1
  O  O251  1  0.75455968  0.36474919  0.50639639  1
  O  O252  1  0.76178668  0.86844901  0.00109444  1
  O  O253  1  0.75616887  0.86957932  0.50966913  1
  O  O254  1  0.13786264  0.49774368  0.23936132  1
  O  O255  1  0.13712578  0.48705576  0.76422054  1
  O  O256  1  0.13154286  0.99886081  0.23311597  1
  O  O257  1  0.13350120  0.98910824  0.76287425  1
  O  O258  1  0.62216254  0.48728776  0.24581640  1
  O  O259  1  0.63247708  0.49130766  0.74304786  1
  O  O260  1  0.61714598  0.99014229  0.24489662  1
  O  O261  1  0.61721407  0.98653338  0.75586703  1
  O  O262  1  0.36525168  0.00093362  0.25464046  1
  O  O263  1  0.37197976  0.00690972  0.76243591  1
  O  O264  1  0.36852346  0.50955985  0.25248541  1
  O  O265  1  0.36659156  0.50207100  0.76576921  1
  O  O266  1  0.87003432  0.00668067  0.26695583  1
  O  O267  1  0.87576905  0.00435415  0.76296658  1
  O  O268  1  0.86476087  0.51289566  0.20848322  1
  O  O269  1  0.86977037  0.50508910  0.75617155  1
  O  O270  1  0.13955329  0.37606753  0.35268058  1
  O  O271  1  0.12722727  0.36341975  0.86494788  1
  O  O272  1  0.10687417  0.87748541  0.37760309  1
  O  O273  1  0.12330461  0.86455462  0.86984688  1
  O  O274  1  0.61990616  0.36775693  0.36971442  1
  O  O275  1  0.63106653  0.38209733  0.85948578  1
  O  O276  1  0.61096811  0.87789356  0.37125902  1
  O  O277  1  0.61960046  0.86649095  0.87233341  1
  O  O278  1  0.39047119  0.11834564  0.12868727  1
  O  O279  1  0.38872689  0.12909944  0.64017719  1
  O  O280  1  0.37978957  0.63480599  0.13539887  1
  O  O281  1  0.38747767  0.62704445  0.63000832  1
  O  O282  1  0.87081102  0.10792790  0.13968324  1
  O  O283  1  0.88555332  0.12885115  0.63078629  1
  O  O284  1  0.84569232  0.56536857  0.15546038  1
  O  O285  1  0.88479382  0.62416194  0.64317042  1
  O  O286  1  0.24975363  0.26220241  0.11769880  1
  O  O287  1  0.25671721  0.26448177  0.62091879  1
  O  O288  1  0.25942070  0.74461048  0.12166477  1
  O  O289  1  0.25178542  0.73867358  0.60758129  1
  O  O290  1  0.77003579  0.24364095  0.12854136  1
  O  O291  1  0.75521228  0.25604920  0.61714053  1
  O  O292  1  0.74651023  0.75661697  0.11146010  1
  O  O293  1  0.74645821  0.76463074  0.61782061  1
  O  O294  1  0.24909112  0.25582919  0.38789658  1
  O  O295  1  0.24448427  0.25652183  0.89160752  1
  O  O296  1  0.25176879  0.73711644  0.37757102  1
  O  O297  1  0.24439090  0.74572369  0.88392045  1
  O  O298  1  0.74457917  0.24099365  0.38495069  1
  O  O299  1  0.75321170  0.25334337  0.88461258  1
  O  O300  1  0.74683415  0.73891699  0.38812432  1
  O  O301  1  0.74235609  0.74672871  0.88663161  1
  O  O302  1  0.00645700  0.11553195  -0.00374724  1
  O  O303  1  0.00034053  0.12793051  0.51968264  1
  O  O304  1  0.01003231  0.60577004  -0.01487132  1
  O  O305  1  -0.00701070  0.63841188  0.51895334  1
  O  O306  1  0.50486196  0.11406846  0.01063908  1
  O  O307  1  0.50146876  0.12406279  0.50943668  1
  O  O308  1  0.49325128  0.62689394  0.01346635  1
  O  O309  1  0.50121575  0.62744685  0.51194852  1
  O  O310  1  0.50704148  0.37706891  0.48699176  1
  O  O311  1  0.50197912  0.39192234  1.00844853  1
  O  O312  1  0.49282595  0.87910746  0.49394082  1
  O  O313  1  0.49062769  0.88175755  1.00009635  1
  O  O314  1  0.98771131  0.37628328  0.50717531  1
  O  O315  1  1.01172385  0.39816565  0.99865877  1
  O  O316  1  0.98401743  0.86815669  0.49368404  1
  O  O317  1  0.98571716  0.88147467  0.99757331  1
  O  O318  1  0.49507810  0.49565797  0.37640911  1
  O  O319  1  0.48312352  0.50741851  0.88207353  1
  O  O320  1  0.48996804  0.99277908  0.38120379  1
  O  O321  1  0.48994615  0.99429618  0.88852765  1
  O  O322  1  0.98943974  0.51002309  0.38432376  1
  O  O323  1  0.99332614  0.49791115  0.87383926  1
  O  O324  1  0.98751153  0.99293562  0.37777199  1
  O  O325  1  0.99430357  0.99930787  0.88680114  1
  O  O326  1  0.01380905  -0.00430041  0.11316883  1
  O  O327  1  0.00541287  0.00402256  0.62236226  1
  O  O328  1  0.01790179  0.50504690  0.11041725  1
  O  O329  1  -0.00413598  0.51522046  0.61583726  1
  O  O330  1  0.50648154  0.00471076  0.12105319  1
  O  O331  1  0.49953550  0.01137775  0.62199733  1
  O  O332  1  0.49143475  0.51403545  0.11326137  1
  O  O333  1  0.50908813  0.50864646  0.62421432  1
  O  O334  1  0.24805707  0.38494072  0.23876468  1
  O  O335  1  0.24470929  0.38358963  0.74610134  1
  O  O336  1  0.25443037  0.88820788  0.24386545  1
  O  O337  1  0.23881252  0.88145513  0.75660532  1
  O  O338  1  0.73750941  0.37254269  0.26108372  1
  O  O339  1  0.74343031  0.38081226  0.74179714  1
  O  O340  1  0.73528630  0.86192007  0.25709891  1
  O  O341  1  0.74045688  0.86661102  0.74404005  1
  O  O342  1  0.25128768  0.10542853  0.23681545  1
  O  O343  1  0.26364560  0.12215919  0.74869088  1
  O  O344  1  0.25701161  0.62368314  0.25672380  1
  O  O345  1  0.24982162  0.61663761  0.75762654  1
  O  O346  1  0.75824717  0.12826577  0.26425167  1
  O  O347  1  0.76744429  0.12081443  0.73894659  1
  O  O348  1  0.75347269  0.63424124  0.25660533  1
  O  O349  1  0.75640745  0.61682929  0.74851193  1
  O  O350  1  0.38060083  0.11099627  0.37341914  1
  O  O351  1  0.38617904  0.11632655  0.86841019  1
  O  O352  1  0.37445315  0.61975445  0.36248462  1
  O  O353  1  0.36021296  0.62514630  0.87117343  1
  O  O354  1  0.86944454  0.11251873  0.37692152  1
  O  O355  1  0.87822328  0.11630541  0.86169202  1
  O  O356  1  0.85586076  0.62801806  0.38291621  1
  O  O357  1  0.87348609  0.61397529  0.86314522  1
  O  O358  1  0.13871890  0.38850472  0.13262372  1
  O  O359  1  0.14209194  0.36979738  0.64323430  1
  O  O360  1  0.12346635  0.88213603  0.11536111  1
  O  O361  1  0.12350769  0.87364792  0.64233724  1
  O  O362  1  0.62569891  0.36377609  0.14402923  1
  O  O363  1  0.63655095  0.38303712  0.63133086  1
  O  O364  1  0.62237558  0.88177651  0.13777630  1
  O  O365  1  0.63069035  0.88056127  0.63708498  1
  O  O366  1  0.12461652  0.26638313  0.24087444  1
  O  O367  1  0.13208995  0.25959518  0.76478994  1
  O  O368  1  0.08420485  0.75035425  0.22931461  1
  O  O369  1  0.12143723  0.76239829  0.75908929  1
  O  O370  1  0.61950206  0.25032575  0.26313679  1
  O  O371  1  0.62250775  0.26453091  0.74776151  1
  O  O372  1  0.61164200  0.75781286  0.25046588  1
  O  O373  1  0.61648785  0.75936420  0.76055029  1
  O  O374  1  0.38815059  0.24999208  0.26217690  1
  O  O375  1  0.38375157  0.24448162  0.75164976  1
  O  O376  1  0.38205344  0.74659167  0.24608936  1
  O  O377  1  0.38659396  0.75496361  0.75053548  1
  O  O378  1  0.87519416  0.23159427  0.24405147  1
  O  O379  1  0.87382015  0.23573589  0.74115031  1
  O  O380  1  0.89226465  0.75805377  0.24082609  1
  O  O381  1  0.88593315  0.74432569  0.76364384  1
  O  O382  1  0.37497470  0.50984762  0.48546543  1
  O  O383  1  0.37995315  0.50469648  0.98748983  1
  O  O384  1  0.37211995  0.98982436  0.49060615  1
  O  O385  1  0.37877034  0.99639892  1.00030826  1
  O  O386  1  0.86747789  0.48022395  0.50401144  1
  O  O387  1  0.88934436  0.50394241  0.98322894  1
  O  O388  1  0.86993802  0.98745750  0.48911799  1
  O  O389  1  0.87924728  0.99721915  0.98913544  1
  O  O390  1  0.12160846  0.00732416  0.00633440  1
  O  O391  1  0.16420801  0.00698951  0.51424366  1
  O  O392  1  0.12808599  0.50164131  0.00548794  1
  O  O393  1  0.13553766  0.50027337  0.50933320  1
  O  O394  1  0.61363193  0.00019881  0.00992802  1
  O  O395  1  0.61277855  0.00756577  0.50205398  1
  O  O396  1  0.60173609  0.51103408  -0.01933672  1
  O  O397  1  0.63039387  0.49501269  0.51444681  1
  O  O398  1  0.36248835  0.37983855  0.13077029  1
  O  O399  1  0.36185541  0.37932747  0.63425412  1
  O  O400  1  0.38226947  0.86571443  0.11809280  1
  O  O401  1  0.38034754  0.87397868  0.61171574  1
  O  O402  1  0.86394309  0.37354928  0.11828746  1
  O  O403  1  0.86576696  0.36722630  0.62271754  1
  O  O404  1  0.87364629  0.88862024  0.10886970  1
  O  O405  1  0.87023391  0.88300891  0.61430438  1
  O  O406  1  0.12239691  0.12862329  0.37636952  1
  O  O407  1  0.12222245  0.14075310  0.88405568  1
  O  O408  1  0.13774918  0.62227882  0.36457240  1
  O  O409  1  0.13818609  0.63784894  0.86833255  1
  O  O410  1  0.63029233  0.13190647  0.38121747  1
  O  O411  1  0.61896214  0.11841166  0.89203555  1
  O  O412  1  0.64232658  0.62227439  0.37438112  1
  O  O413  1  0.62838613  0.63707063  0.86931771  1
