# generated using pymatgen
data_V79Zn79O256
_symmetry_space_group_name_H-M   'P 1'
_cell_length_a   16.83705922
_cell_length_b   16.83449739
_cell_length_c   16.84735718
_cell_angle_alpha   89.97413607
_cell_angle_beta   89.91924754
_cell_angle_gamma   90.00677825
_symmetry_Int_Tables_number   1
_chemical_formula_structural   V79Zn79O256
_chemical_formula_sum   'V79 Zn79 O256'
_cell_volume   4775.26743468
_cell_formula_units_Z   1
loop_
 _symmetry_equiv_pos_site_id
 _symmetry_equiv_pos_as_xyz
  1  'x, y, z'
loop_
 _atom_site_type_symbol
 _atom_site_label
 _atom_site_symmetry_multiplicity
 _atom_site_fract_x
 _atom_site_fract_y
 _atom_site_fract_z
 _atom_site_occupancy
  V  V0  1  0.89121227  0.86953133  0.49828985  1
  V  V1  1  0.87565388  0.87838706  -0.00484550  1
  V  V2  1  0.37384421  0.73744289  0.62968417  1
  V  V3  1  0.75595995  0.50509688  0.26027677  1
  V  V4  1  0.87728450  0.23474305  0.62708662  1
  V  V5  1  0.25088545  0.00942045  0.24736727  1
  V  V6  1  0.60997077  0.25896609  0.37457979  1
  V  V7  1  0.62762083  0.11476650  0.49890591  1
  V  V8  1  0.37247138  -0.00504648  0.87716423  1
  V  V9  1  0.62623310  0.74493395  0.37427508  1
  V  V10  1  0.88119644  0.74094922  0.12890119  1
  V  V11  1  0.13955238  0.37895316  0.24316371  1
  V  V12  1  0.12156524  0.25815922  0.87491165  1
  V  V13  1  0.88318680  0.37668481  0.00061918  1
  V  V14  1  0.25382731  0.26220073  0.00975848  1
  V  V15  1  0.12445969  0.25675712  0.37646669  1
  V  V16  1  0.62315602  0.12910343  -0.02076198  1
  V  V17  1  0.74190543  0.74252804  0.00083886  1
  V  V18  1  0.13031538  -0.00433398  0.12101371  1
  V  V19  1  0.25461712  0.88350143  0.64485545  1
  V  V20  1  0.62516492  0.01396447  0.12290827  1
  V  V21  1  0.12160115  0.12214540  0.49643734  1
  V  V22  1  0.62744346  0.87777639  0.24653762  1
  V  V23  1  0.36693991  0.62688400  0.25119767  1
  V  V24  1  0.39982167  0.12434289  0.24059539  1
  V  V25  1  0.12504544  0.50435450  0.61476941  1
  V  V26  1  0.87296829  0.24494278  0.12813136  1
  V  V27  1  0.50374702  0.62911929  0.11766456  1
  V  V28  1  0.50038032  0.11514098  0.62154357  1
  V  V29  1  0.12417189  0.74643527  0.87753609  1
  V  V30  1  0.61558037  0.62421705  0.50219074  1
  V  V31  1  0.24945039  0.62391924  0.88467506  1
  V  V32  1  0.49867444  0.73446557  0.74842241  1
  V  V33  1  0.62074722  0.49878349  0.63120507  1
  V  V34  1  0.49693468  0.88504921  0.38495761  1
  V  V35  1  0.75029833  0.87960228  0.12487760  1
  V  V36  1  0.88350799  0.38322604  0.49419506  1
  V  V37  1  0.12551744  0.75705514  0.37971297  1
  V  V38  1  0.37137395  0.12035166  0.74942184  1
  V  V39  1  0.25478235  0.76283215  0.50026564  1
  V  V40  1  0.50146393  0.50386837  0.00069925  1
  V  V41  1  0.00210956  0.51636410  0.01675550  1
  V  V42  1  0.63099635  -0.01642414  0.63320317  1
  V  V43  1  0.37417764  0.49952782  0.87750137  1
  V  V44  1  0.12364280  -0.00041739  0.64263837  1
  V  V45  1  0.12404279  0.87970148  0.24856975  1
  V  V46  1  -0.00098303  0.23811060  0.74505681  1
  V  V47  1  0.88863506  0.50320160  0.87067219  1
  V  V48  1  0.24935700  0.12391007  0.87201007  1
  V  V49  1  0.74445718  0.61840729  0.87313273  1
  V  V50  1  0.25443857  0.50715403  0.74931776  1
  V  V51  1  0.24725539  0.62867702  0.38115467  1
  V  V52  1  0.50837796  0.24990032  0.75071182  1
  V  V53  1  0.24938157  0.76713124  0.00465239  1
  V  V54  1  0.49503680  0.48398717  0.49899755  1
  V  V55  1  -0.00238606  0.74664296  0.25280456  1
  V  V56  1  0.11944963  0.37861901  0.75005658  1
  V  V57  1  0.49701974  0.75095843  0.24983807  1
  V  V58  1  0.38699424  0.25803743  0.12602707  1
  V  V59  1  -0.00768545  0.25432744  0.25806049  1
  V  V60  1  0.74731663  0.24822884  -0.01643943  1
  V  V61  1  0.74942189  0.75356440  0.50122799  1
  V  V62  1  0.50803815  0.87597064  0.86488686  1
  V  V63  1  0.00095197  0.62084531  0.61627747  1
  V  V64  1  0.37486267  0.25671582  0.62397186  1
  V  V65  1  0.37096825  0.76630396  0.12097554  1
  V  V66  1  0.37564082  0.49169245  0.37408716  1
  V  V67  1  0.86681812  0.74512059  0.63509254  1
  V  V68  1  0.14321698  0.50813784  0.12571998  1
  V  V69  1  0.75967315  -0.00932951  0.75693174  1
  V  V70  1  0.37564218  0.00517794  0.38493004  1
  V  V71  1  0.49798444  -0.00224676  0.00041276  1
  V  V72  1  0.00285534  0.74090000  0.75309926  1
  V  V73  1  -0.00052225  0.87402190  0.86964903  1
  V  V74  1  0.12216911  0.12745741  0.00471388  1
  V  V75  1  0.25769989  0.25167024  0.49323411  1
  V  V76  1  0.75312983  0.24554656  0.49254942  1
  V  V77  1  0.74302422  0.37589933  0.12983129  1
  V  V78  1  0.50056389  0.36817416  0.88108245  1
  Zn  Zn79  1  0.25310465  0.37929026  0.62242050  1
  Zn  Zn80  1  -0.01218315  0.11626855  0.13731975  1
  Zn  Zn81  1  0.79401231  0.07187028  0.28952027  1
  Zn  Zn82  1  0.62691746  0.74811680  0.87039227  1
  Zn  Zn83  1  0.87630955  0.02841387  0.86274515  1
  Zn  Zn84  1  0.75407678  0.37273587  0.62989396  1
  Zn  Zn85  1  0.62398138  0.50477133  0.12587783  1
  Zn  Zn86  1  0.77881870  0.61934592  0.37547194  1
  Zn  Zn87  1  -0.00226812  0.00299729  -0.00250323  1
  Zn  Zn88  1  0.00156652  0.00242787  0.50253754  1
  Zn  Zn89  1  0.00568740  0.49947358  0.47092253  1
  Zn  Zn90  1  0.88938088  -0.00750339  0.36787888  1
  Zn  Zn91  1  0.76403561  0.50219123  0.74307888  1
  Zn  Zn92  1  0.60782807  0.37778629  0.25599176  1
  Zn  Zn93  1  0.63365262  0.36708816  0.75666416  1
  Zn  Zn94  1  0.18658535  0.18715096  0.19103337  1
  Zn  Zn95  1  0.18617133  0.18611744  0.68252429  1
  Zn  Zn96  1  0.18546877  0.69167586  0.18658424  1
  Zn  Zn97  1  0.18661619  0.68872543  0.68974475  1
  Zn  Zn98  1  0.68103173  0.19651531  0.18394077  1
  Zn  Zn99  1  0.69431784  0.17546622  0.68846179  1
  Zn  Zn100  1  0.69175997  0.68695366  0.18904371  1
  Zn  Zn101  1  0.68297202  0.68177223  0.69092003  1
  Zn  Zn102  1  0.31970747  0.30725155  0.30724502  1
  Zn  Zn103  1  0.31203942  0.31494054  0.81148639  1
  Zn  Zn104  1  0.30980036  0.82238660  0.30896929  1
  Zn  Zn105  1  0.31531620  0.81021972  0.81466961  1
  Zn  Zn106  1  0.80680982  0.31702717  0.31409922  1
  Zn  Zn107  1  0.82011086  0.31939409  0.80995869  1
  Zn  Zn108  1  0.81093595  0.82369915  0.31619239  1
  Zn  Zn109  1  0.80621062  0.81489547  0.80984790  1
  Zn  Zn110  1  0.19432786  0.43390295  0.43451614  1
  Zn  Zn111  1  0.18421488  0.44021098  0.94163147  1
  Zn  Zn112  1  0.19214269  0.93870871  0.43357981  1
  Zn  Zn113  1  0.18358498  0.93820943  0.93032794  1
  Zn  Zn114  1  0.69183021  0.43475346  0.44466358  1
  Zn  Zn115  1  0.68620975  0.43608773  0.93977956  1
  Zn  Zn116  1  0.69781067  0.93927857  0.43248932  1
  Zn  Zn117  1  0.68888160  0.93674448  0.93580383  1
  Zn  Zn118  1  0.31231814  0.06845504  0.06182324  1
  Zn  Zn119  1  0.30406687  0.06724059  0.56348278  1
  Zn  Zn120  1  0.31977913  0.56706734  0.06090250  1
  Zn  Zn121  1  0.31059510  0.56499554  0.55701094  1
  Zn  Zn122  1  0.80790757  0.06401166  0.05460252  1
  Zn  Zn123  1  0.81031350  0.05467462  0.56506725  1
  Zn  Zn124  1  0.81221881  0.56050034  0.06491370  1
  Zn  Zn125  1  0.80820654  0.56676300  0.56000703  1
  Zn  Zn126  1  0.43379117  0.43865670  0.18765548  1
  Zn  Zn127  1  0.44182920  0.44017352  0.69100442  1
  Zn  Zn128  1  0.44328117  0.94266746  0.18989304  1
  Zn  Zn129  1  0.43563104  0.93382993  0.68514470  1
  Zn  Zn130  1  0.94055111  0.43446535  0.19573838  1
  Zn  Zn131  1  0.93945795  0.42891305  0.68091793  1
  Zn  Zn132  1  0.93902755  0.93801280  0.18700605  1
  Zn  Zn133  1  0.93862496  0.93118588  0.68294940  1
  Zn  Zn134  1  0.05549411  0.06541070  0.31484374  1
  Zn  Zn135  1  0.06000723  0.06352225  0.81794383  1
  Zn  Zn136  1  0.06326997  0.56761794  0.30336460  1
  Zn  Zn137  1  0.06478307  0.56398064  0.81282470  1
  Zn  Zn138  1  0.59828317  0.08154444  0.29739095  1
  Zn  Zn139  1  0.56422286  0.06006922  0.80496011  1
  Zn  Zn140  1  0.56126408  0.55605537  0.30972735  1
  Zn  Zn141  1  0.56173005  0.56315981  0.81839222  1
  Zn  Zn142  1  0.43849768  0.17972583  0.43667202  1
  Zn  Zn143  1  0.43523596  0.18592392  0.94121427  1
  Zn  Zn144  1  0.43488811  0.69056285  0.44041589  1
  Zn  Zn145  1  0.43018406  0.68855858  0.93526179  1
  Zn  Zn146  1  0.93542090  0.17713319  0.43163145  1
  Zn  Zn147  1  0.93933513  0.19291876  0.93683745  1
  Zn  Zn148  1  0.94243380  0.68921735  0.43773719  1
  Zn  Zn149  1  0.93164884  0.68634277  0.94033109  1
  Zn  Zn150  1  0.06248991  0.31464140  0.06982012  1
  Zn  Zn151  1  0.06302130  0.31565970  0.56292546  1
  Zn  Zn152  1  0.06347904  0.81319649  0.06029292  1
  Zn  Zn153  1  0.07140150  0.81091787  0.57164539  1
  Zn  Zn154  1  0.56308534  0.31273694  0.05814882  1
  Zn  Zn155  1  0.56398319  0.30981524  0.56473074  1
  Zn  Zn156  1  0.55868861  0.81718983  0.05782345  1
  Zn  Zn157  1  0.55438905  0.80651794  0.56222653  1
  O  O158  1  0.12599877  0.11960845  0.11497690  1
  O  O159  1  0.13297363  0.10776961  0.61642894  1
  O  O160  1  0.12935267  0.60769999  0.13319665  1
  O  O161  1  0.11405328  0.61719005  0.63033120  1
  O  O162  1  0.62353516  0.11656585  0.10828246  1
  O  O163  1  0.61779927  0.11308077  0.61769764  1
  O  O164  1  0.60740654  0.62934124  0.13066753  1
  O  O165  1  0.62828526  0.61198338  0.61391612  1
  O  O166  1  0.36730055  0.39309157  0.36958543  1
  O  O167  1  0.38707395  0.38622243  0.86807293  1
  O  O168  1  0.38828108  0.88828654  0.36593194  1
  O  O169  1  0.38114232  0.88927569  0.87088756  1
  O  O170  1  0.87007025  0.36549368  0.39542731  1
  O  O171  1  0.86844918  0.39197173  0.89005903  1
  O  O172  1  0.88270516  0.86308500  0.39519737  1
  O  O173  1  0.88389737  0.86224920  0.88551011  1
  O  O174  1  0.26971253  -0.00563068  0.36460181  1
  O  O175  1  0.25719928  0.01355378  0.88080417  1
  O  O176  1  0.26525517  0.51440051  0.38801154  1
  O  O177  1  0.25324707  0.50449785  0.87158663  1
  O  O178  1  0.77104370  -0.02732599  0.35652103  1
  O  O179  1  0.75828346  -0.00952533  0.86450327  1
  O  O180  1  0.74449612  0.49968081  0.36507267  1
  O  O181  1  0.75829484  0.50932559  0.88218829  1
  O  O182  1  0.24284660  0.49994584  0.11558150  1
  O  O183  1  0.24285153  0.50355890  0.63037636  1
  O  O184  1  0.24004742  1.00652600  0.12968912  1
  O  O185  1  0.24511845  0.99036210  0.62691679  1
  O  O186  1  0.74620769  0.49090051  0.12922557  1
  O  O187  1  0.73542905  0.50008457  0.62471000  1
  O  O188  1  0.73913719  0.98836721  0.11442751  1
  O  O189  1  0.73567695  0.99209851  0.62822258  1
  O  O190  1  0.01301455  0.36045066  0.24694784  1
  O  O191  1  0.01427462  0.36764891  0.74802169  1
  O  O192  1  0.01538261  0.86827687  0.24456818  1
  O  O193  1  -0.00866654  0.85735546  0.76102172  1
  O  O194  1  0.49639795  0.37961382  0.25626930  1
  O  O195  1  0.50344754  0.36574955  0.75859620  1
  O  O196  1  0.50671282  0.86337023  0.25300108  1
  O  O197  1  0.49645974  0.86973841  0.76159312  1
  O  O198  1  0.49870389  0.11956194  0.24440608  1
  O  O199  1  0.49226173  0.13150690  0.74378409  1
  O  O200  1  0.49133910  0.63793810  0.24491671  1
  O  O201  1  0.49177643  0.63558031  0.75981205  1
  O  O202  1  1.01442679  0.14911639  0.24578223  1
  O  O203  1  1.00509457  0.13886444  0.74877936  1
  O  O204  1  1.00830492  0.64918074  0.23926693  1
  O  O205  1  0.99923679  0.63428329  0.74515471  1
  O  O206  1  0.36252683  0.24183478  0.01187561  1
  O  O207  1  0.36457330  0.23914252  0.50643829  1
  O  O208  1  0.36038021  0.74929556  0.00651881  1
  O  O209  1  0.37040837  0.74973797  0.51757352  1
  O  O210  1  0.86328760  0.25840501  0.00628657  1
  O  O211  1  0.86852862  0.24995438  0.50979873  1
  O  O212  1  0.86886404  0.75726374  0.01264540  1
  O  O213  1  0.86924243  0.75089747  0.50887922  1
  O  O214  1  0.13219228  0.24682700  0.49638271  1
  O  O215  1  0.13219315  0.24842987  0.99524365  1
  O  O216  1  0.13497862  0.75607376  0.48837105  1
  O  O217  1  0.13844597  0.75266081  0.99368435  1
  O  O218  1  0.63761036  0.24387981  0.50059943  1
  O  O219  1  0.63371883  0.23984409  0.99724428  1
  O  O220  1  0.62881082  0.74399012  0.49513121  1
  O  O221  1  0.63766019  0.75611546  0.99654820  1
  O  O222  1  0.48647894  0.24912617  0.11370812  1
  O  O223  1  0.49348904  0.24015560  0.63092672  1
  O  O224  1  0.49216053  0.74842503  0.12864884  1
  O  O225  1  0.48588781  0.75088180  0.63642541  1
  O  O226  1  0.98751639  0.25016250  0.13329431  1
  O  O227  1  0.99390626  0.25103055  0.63527193  1
  O  O228  1  0.98743979  0.75803558  0.13039843  1
  O  O229  1  0.99867258  0.73779554  0.63293585  1
  O  O230  1  0.00548937  0.24980500  0.36515025  1
  O  O231  1  0.01288341  0.25087409  0.86254569  1
  O  O232  1  0.01215748  0.74947464  0.36265524  1
  O  O233  1  0.00533781  0.74989426  0.87311563  1
  O  O234  1  0.51048928  0.25318843  0.38728241  1
  O  O235  1  0.49191858  0.26118424  0.86926211  1
  O  O236  1  0.50371859  0.75876503  0.36710823  1
  O  O237  1  0.49357902  0.76061905  0.86646523  1
  O  O238  1  0.23698691  0.14189772  0.50419187  1
  O  O239  1  0.24085402  0.13510209  0.99063899  1
  O  O240  1  0.25354398  0.64224531  0.48966704  1
  O  O241  1  0.25183535  0.63135495  0.98889854  1
  O  O242  1  0.73819834  0.13493884  0.51194048  1
  O  O243  1  0.73874050  0.13906968  0.99819663  1
  O  O244  1  0.73973257  0.63328836  0.49042452  1
  O  O245  1  0.75581953  0.63360296  0.99309557  1
  O  O246  1  0.24949924  0.36105643  -0.00394153  1
  O  O247  1  0.24777268  0.35813417  0.50550956  1
  O  O248  1  0.25066059  0.86624442  -0.00604526  1
  O  O249  1  0.25259087  0.86642685  0.50421633  1
  O  O250  1  0.75236097  0.36488851  0.00812770  1
  O  O251  1  0.75724981  0.35806828  0.50779444  1
  O  O252  1  0.75662489  0.86500702  0.00508481  1
  O  O253  1  0.75518008  0.85702425  0.49957650  1
  O  O254  1  0.12383506  0.48901581  0.23985314  1
  O  O255  1  0.13163727  0.49493799  0.74441547  1
  O  O256  1  0.12962751  0.99944354  0.24244049  1
  O  O257  1  0.12452276  1.00430829  0.74205069  1
  O  O258  1  0.63351969  0.49589017  0.24484016  1
  O  O259  1  0.61620165  0.50370194  0.73479380  1
  O  O260  1  0.60838088  0.98126733  0.23689681  1
  O  O261  1  0.62676722  0.99188467  0.73769207  1
  O  O262  1  0.37196735  0.01214277  0.24776582  1
  O  O263  1  0.38048150  0.01336299  0.75903314  1
  O  O264  1  0.38101846  0.51567816  0.26477476  1
  O  O265  1  0.36261744  0.49560367  0.75657246  1
  O  O266  1  0.89001709  0.01698381  0.24828975  1
  O  O267  1  0.86658240  -0.00789002  0.74595997  1
  O  O268  1  0.85464216  0.48911593  0.24516457  1
  O  O269  1  0.88355569  0.49125769  0.76715147  1
  O  O270  1  0.12789173  0.36688944  0.36525270  1
  O  O271  1  0.13240299  0.36606105  0.86630370  1
  O  O272  1  0.13140428  0.86634771  0.36457996  1
  O  O273  1  0.11059352  0.86357065  0.88000326  1
  O  O274  1  0.62825661  0.36100515  0.38351957  1
  O  O275  1  0.60676983  0.38279746  0.87193944  1
  O  O276  1  0.61604248  0.86709920  0.36699161  1
  O  O277  1  0.61141105  0.87177741  0.87411163  1
  O  O278  1  0.37712017  0.12972046  0.13603888  1
  O  O279  1  0.38030187  0.12962527  0.63158116  1
  O  O280  1  0.38167276  0.63666981  0.13394867  1
  O  O281  1  0.36487693  0.63812947  0.63017554  1
  O  O282  1  0.87016141  0.13949094  0.11725897  1
  O  O283  1  0.87784094  0.13526487  0.61918705  1
  O  O284  1  0.87083257  0.64217534  0.12605425  1
  O  O285  1  0.88830282  0.63293980  0.62102335  1
  O  O286  1  0.25147483  0.24624790  0.11285429  1
  O  O287  1  0.25948890  0.25094108  0.61855121  1
  O  O288  1  0.25375665  0.74969773  0.11195363  1
  O  O289  1  0.25514697  0.75955177  0.62338441  1
  O  O290  1  0.75488504  0.25864827  0.12178834  1
  O  O291  1  0.76486418  0.24692766  0.62519159  1
  O  O292  1  0.75868726  0.75661397  0.12005694  1
  O  O293  1  0.76148336  0.73511301  0.61992133  1
  O  O294  1  0.24681467  0.25416296  0.38714979  1
  O  O295  1  0.24476188  0.24360037  0.88341872  1
  O  O296  1  0.24808585  0.75075560  0.38123050  1
  O  O297  1  0.24625958  0.74543633  0.88386458  1
  O  O298  1  0.74552033  0.24623388  0.39033386  1
  O  O299  1  0.75102846  0.26032875  0.88585500  1
  O  O300  1  0.74035036  0.74781421  0.37915719  1
  O  O301  1  0.75269528  0.73644685  0.88162943  1
  O  O302  1  0.01366540  0.12868625  0.00054005  1
  O  O303  1  0.01805530  0.13158611  0.50497948  1
  O  O304  1  -0.00212394  0.61571601  0.00645943  1
  O  O305  1  0.00472458  0.62300596  0.51411254  1
  O  O306  1  0.51438960  0.11593552  -0.01065650  1
  O  O307  1  0.51378980  0.12960900  0.51236767  1
  O  O308  1  0.49266984  0.62065983  0.00707804  1
  O  O309  1  0.51108320  0.62349178  0.49841759  1
  O  O310  1  0.49958693  0.38486648  0.49991847  1
  O  O311  1  0.49790066  0.38033671  0.98647845  1
  O  O312  1  0.50009629  0.87130488  0.48329594  1
  O  O313  1  0.50115238  0.88712266  0.98445152  1
  O  O314  1  0.98989287  0.38081495  0.50133182  1
  O  O315  1  0.98729869  0.37864270  1.00666851  1
  O  O316  1  0.99322570  0.86606955  0.50631449  1
  O  O317  1  0.99105495  0.87389852  0.99051593  1
  O  O318  1  0.48854976  0.50587321  0.38773360  1
  O  O319  1  0.49202159  0.49446147  0.88009552  1
  O  O320  1  0.49498472  0.98899073  0.37163918  1
  O  O321  1  0.49520112  0.99139331  0.87627459  1
  O  O322  1  0.98004614  0.52391221  0.36462295  1
  O  O323  1  0.99310343  0.50606831  0.88894743  1
  O  O324  1  1.00075860  1.00122708  0.38827972  1
  O  O325  1  0.99362211  0.98881531  0.87480831  1
  O  O326  1  0.01337516  0.00343440  0.11809979  1
  O  O327  1  0.02024561  -0.01257255  0.62004336  1
  O  O328  1  -0.00017453  0.50019533  0.11881929  1
  O  O329  1  0.00624750  0.51235873  0.62966453  1
  O  O330  1  0.51203926  -0.00912422  0.10987825  1
  O  O331  1  0.50699785  0.00890047  0.63051904  1
  O  O332  1  0.49232747  0.51211618  0.11651192  1
  O  O333  1  0.50766049  0.49803950  0.61203194  1
  O  O334  1  0.23897807  0.37092175  0.25149725  1
  O  O335  1  0.24032235  0.38512752  0.74710713  1
  O  O336  1  0.23747816  0.89022926  0.24863217  1
  O  O337  1  0.24817743  0.87411135  0.74434677  1
  O  O338  1  0.74061627  0.38052313  0.24327341  1
  O  O339  1  0.74767326  0.38455665  0.74905618  1
  O  O340  1  0.73883745  0.86485532  0.23573191  1
  O  O341  1  0.74522703  0.88487627  0.74662177  1
  O  O342  1  0.25112828  0.11311573  0.25244713  1
  O  O343  1  0.25887060  0.13470713  0.76067353  1
  O  O344  1  0.26148488  0.63679999  0.25926833  1
  O  O345  1  0.24242737  0.61435781  0.76265008  1
  O  O346  1  0.69996773  0.10552833  0.24534733  1
  O  O347  1  0.74418231  0.09473795  0.74565344  1
  O  O348  1  0.74790904  0.61163562  0.25398294  1
  O  O349  1  0.74931513  0.61952759  0.76631131  1
  O  O350  1  0.38658237  0.11205247  0.35815686  1
  O  O351  1  0.36867335  0.12046072  0.86812923  1
  O  O352  1  0.36770094  0.62769273  0.36819891  1
  O  O353  1  0.36440182  0.61223864  0.87432358  1
  O  O354  1  0.85983826  0.11093451  0.38401966  1
  O  O355  1  0.86695406  0.13701189  0.87826185  1
  O  O356  1  0.89234850  0.61695868  0.36984228  1
  O  O357  1  0.86671152  0.60976784  0.88039542  1
  O  O358  1  0.12778093  0.38205369  0.13654678  1
  O  O359  1  0.12660569  0.38679939  0.63295838  1
  O  O360  1  0.12411648  0.88727823  0.12867719  1
  O  O361  1  0.14187217  0.88709895  0.62218884  1
  O  O362  1  0.63405452  0.37257085  0.12522744  1
  O  O363  1  0.62606329  0.38816880  0.62649352  1
  O  O364  1  0.63274862  0.87759577  0.12786231  1
  O  O365  1  0.61345803  0.88677370  0.61542629  1
  O  O366  1  0.12258187  0.26090140  0.25641309  1
  O  O367  1  0.11920323  0.25588440  0.75265429  1
  O  O368  1  0.11940401  0.76103581  0.25262549  1
  O  O369  1  0.11634827  0.74851847  0.76308024  1
  O  O370  1  0.62465596  0.25309112  0.27094058  1
  O  O371  1  0.61247582  0.24509735  0.74116114  1
  O  O372  1  0.61737103  0.75570225  0.25521953  1
  O  O373  1  0.60554983  0.74455118  0.74978973  1
  O  O374  1  0.37408989  0.23312975  0.24004820  1
  O  O375  1  0.38332767  0.24069498  0.74378941  1
  O  O376  1  0.38010215  0.74847129  0.24368243  1
  O  O377  1  0.38242423  0.75263822  0.74030873  1
  O  O378  1  0.88414709  0.25715200  0.24602378  1
  O  O379  1  0.88936443  0.25543328  0.74079480  1
  O  O380  1  0.88652913  0.76238985  0.24122284  1
  O  O381  1  0.87820469  0.74758848  0.73901210  1
  O  O382  1  0.38710600  0.50527430  0.49278902  1
  O  O383  1  0.38480557  0.50037698  0.98915545  1
  O  O384  1  0.37223360  1.01366939  0.48409453  1
  O  O385  1  0.38642718  1.01322232  0.98903393  1
  O  O386  1  0.87114520  0.48551001  0.50654022  1
  O  O387  1  0.88715113  0.49617398  0.99950510  1
  O  O388  1  0.87709977  0.97498270  0.51417638  1
  O  O389  1  0.87419008  0.98769500  0.99633001  1
  O  O390  1  0.12620268  0.01004666  0.00344829  1
  O  O391  1  0.13199653  0.01550347  0.49553532  1
  O  O392  1  0.11157199  0.49227226  0.01475775  1
  O  O393  1  0.12242241  0.49243120  0.51020287  1
  O  O394  1  0.62164178  0.01054976  0.00089868  1
  O  O395  1  0.63545531  0.01059010  0.50378215  1
  O  O396  1  0.60709564  0.49595341  0.00466698  1
  O  O397  1  0.61338184  0.50413464  0.50370363  1
  O  O398  1  0.37071167  0.35702577  0.13430674  1
  O  O399  1  0.37800934  0.36048621  0.63059067  1
  O  O400  1  0.37837600  0.86541863  0.13088514  1
  O  O401  1  0.35993770  0.86975899  0.62818008  1
  O  O402  1  0.86357949  0.36668635  0.11895520  1
  O  O403  1  0.87477419  0.36153893  0.61398828  1
  O  O404  1  0.86627456  0.87093280  0.11617994  1
  O  O405  1  0.88054358  0.85003123  0.61701075  1
  O  O406  1  0.12487010  0.14146317  0.38674832  1
  O  O407  1  0.13139534  0.13506390  0.88117343  1
  O  O408  1  0.13964440  0.63992551  0.36259752  1
  O  O409  1  0.13245552  0.63581627  0.87669958  1
  O  O410  1  0.61917318  0.13652947  0.39591647  1
  O  O411  1  0.62758324  0.12162824  0.88005741  1
  O  O412  1  0.61791993  0.63819092  0.37897583  1
  O  O413  1  0.63905549  0.62377059  0.87957257  1
