# generated using pymatgen
data_V79Zn79O256
_symmetry_space_group_name_H-M   'P 1'
_cell_length_a   16.87301698
_cell_length_b   16.88364214
_cell_length_c   16.87263930
_cell_angle_alpha   89.99836801
_cell_angle_beta   90.02671739
_cell_angle_gamma   89.90528826
_symmetry_Int_Tables_number   1
_chemical_formula_structural   V79Zn79O256
_chemical_formula_sum   'V79 Zn79 O256'
_cell_volume   4806.63631734
_cell_formula_units_Z   1
loop_
 _symmetry_equiv_pos_site_id
 _symmetry_equiv_pos_as_xyz
  1  'x, y, z'
loop_
 _atom_site_type_symbol
 _atom_site_label
 _atom_site_symmetry_multiplicity
 _atom_site_fract_x
 _atom_site_fract_y
 _atom_site_fract_z
 _atom_site_occupancy
  V  V0  1  0.49355552  0.88082881  0.38235631  1
  V  V1  1  -0.00573016  0.74829034  0.24561002  1
  V  V2  1  0.88393555  0.12373190  0.75401543  1
  V  V3  1  0.86715734  0.37408073  0.50340028  1
  V  V4  1  0.62362459  0.12696216  0.49954896  1
  V  V5  1  0.87322121  0.86998080  0.50210494  1
  V  V6  1  0.37435749  0.49600729  0.37440891  1
  V  V7  1  -0.00017595  0.11515348  0.12315037  1
  V  V8  1  0.62483649  0.00330870  0.11766958  1
  V  V9  1  0.62841364  0.26131591  0.87036762  1
  V  V10  1  0.13357658  0.24503912  0.38774362  1
  V  V11  1  -0.00042629  0.74908933  0.76198995  1
  V  V12  1  0.36628903  0.87296181  -0.00732965  1
  V  V13  1  0.25968005  0.76048404  0.50911757  1
  V  V14  1  0.37510250  0.24767544  0.62318884  1
  V  V15  1  0.00126829  0.87502472  0.37598863  1
  V  V16  1  0.49947869  0.50176449  0.50069449  1
  V  V17  1  0.25453376  0.38051084  0.11683332  1
  V  V18  1  -0.00718344  0.62279435  0.11200096  1
  V  V19  1  0.52408394  0.75377978  0.75632111  1
  V  V20  1  0.24877581  0.25731760  -0.00868743  1
  V  V21  1  0.63135559  0.87247748  0.25123311  1
  V  V22  1  0.74865575  0.00337352  0.75236909  1
  V  V23  1  0.62346822  0.48516517  0.62919814  1
  V  V24  1  0.24795353  0.36553280  0.62046059  1
  V  V25  1  0.87667778  0.25620925  0.12431070  1
  V  V26  1  0.37740922  0.01504246  0.37001366  1
  V  V27  1  0.50238198  0.75070266  0.25413698  1
  V  V28  1  0.75726077  0.75063879  0.02265146  1
  V  V29  1  0.49684582  0.49720767  0.00168695  1
  V  V30  1  0.24880670  0.62568980  0.37810107  1
  V  V31  1  0.50632014  0.36121771  0.37455878  1
  V  V32  1  0.75147011  0.50198281  0.27082861  1
  V  V33  1  0.12158258  0.50023722  0.62865682  1
  V  V34  1  0.24436734  0.12655950  0.86951031  1
  V  V35  1  0.50014252  0.12043518  0.62576117  1
  V  V36  1  -0.01161122  0.89062471  0.88052339  1
  V  V37  1  0.00474210  0.00784886  0.50247418  1
  V  V38  1  -0.00363334  0.24600386  0.24965351  1
  V  V39  1  0.87167295  0.62268774  0.26357090  1
  V  V40  1  0.87477113  0.00736968  0.37186677  1
  V  V41  1  0.25617521  -0.00537890  0.75378979  1
  V  V42  1  0.74541697  0.63186323  0.87124660  1
  V  V43  1  0.87578231  0.87894697  0.01522612  1
  V  V44  1  0.74357879  0.48757009  0.74770725  1
  V  V45  1  0.37236852  0.62539140  0.24477713  1
  V  V46  1  0.12403047  -0.00451913  0.62737656  1
  V  V47  1  0.74573787  0.13285318  0.37415072  1
  V  V48  1  0.86890069  0.63403530  0.74589204  1
  V  V49  1  0.12425063  0.62865497  0.50163498  1
  V  V50  1  -0.00720838  0.63522262  0.62581610  1
  V  V51  1  0.74837203  0.26317290  0.00599587  1
  V  V52  1  0.12718990  0.88055421  0.23675827  1
  V  V53  1  0.62737965  0.36634701  0.24704180  1
  V  V54  1  0.00055481  0.35777552  0.87551329  1
  V  V55  1  0.23639249  0.63758676  0.88570164  1
  V  V56  1  -0.00488082  0.37483416  0.37591522  1
  V  V57  1  0.49535304  -0.00164553  -0.01719997  1
  V  V58  1  0.88308785  0.50144638  0.87777983  1
  V  V59  1  0.62767199  0.00013300  0.62504713  1
  V  V60  1  0.24895239  0.50078347  0.75234164  1
  V  V61  1  0.49444342  0.62428477  0.62593850  1
  V  V62  1  -0.00883309  0.50096987  0.49702506  1
  V  V63  1  0.63581475  0.50100140  0.12448436  1
  V  V64  1  0.37944419  0.12214858  0.76095441  1
  V  V65  1  0.12680861  0.87140682  0.75985160  1
  V  V66  1  0.62473094  0.63551388  -0.00287344  1
  V  V67  1  0.87383496  0.25431062  0.63188112  1
  V  V68  1  0.75208792  0.00172131  0.24614483  1
  V  V69  1  0.37140190  0.63215518  0.75104640  1
  V  V70  1  0.11637145  0.35466943  0.74969384  1
  V  V71  1  0.49866058  0.62657570  0.12303363  1
  V  V72  1  0.11444378  0.50204480  0.10430488  1
  V  V73  1  0.24016091  0.49903239  0.24896675  1
  V  V74  1  0.12005154  0.11634136  -0.00109214  1
  V  V75  1  0.75557142  0.87123224  0.62672453  1
  V  V76  1  0.49163981  0.37747032  0.87359261  1
  V  V77  1  0.50008567  0.13165166  0.13361413  1
  V  V78  1  0.74781230  0.12270435  0.88290205  1
  Zn  Zn79  1  0.37546488  0.78353247  0.62809069  1
  Zn  Zn80  1  0.63661867  0.63037396  0.47479098  1
  Zn  Zn81  1  0.01021739  0.13319167  0.62931815  1
  Zn  Zn82  1  0.25329207  -0.01022713  0.24831500  1
  Zn  Zn83  1  0.36786521  0.49960815  0.88198737  1
  Zn  Zn84  1  0.12138205  0.37403655  0.24706870  1
  Zn  Zn85  1  0.12646323  0.75316635  0.37591068  1
  Zn  Zn86  1  0.73997985  0.74773298  0.47862203  1
  Zn  Zn87  1  0.36559500  0.23157443  0.13394756  1
  Zn  Zn88  1  0.35436650  0.76335868  0.12116652  1
  Zn  Zn89  1  0.88258071  0.38541481  0.00799896  1
  Zn  Zn90  1  0.22900511  0.10497721  0.42778272  1
  Zn  Zn91  1  0.50623096  0.25617215  0.74774652  1
  Zn  Zn92  1  0.74337544  0.25743220  0.50336142  1
  Zn  Zn93  1  0.36693779  0.36674931  0.49416640  1
  Zn  Zn94  1  0.17694135  0.19525461  0.18105470  1
  Zn  Zn95  1  0.22561275  0.14663976  0.61652795  1
  Zn  Zn96  1  0.17202781  0.68246619  0.19052146  1
  Zn  Zn97  1  0.18647115  0.69169380  0.69047446  1
  Zn  Zn98  1  0.68808083  0.18185110  0.18368393  1
  Zn  Zn99  1  0.69238219  0.18979120  0.68827138  1
  Zn  Zn100  1  0.68603811  0.68417159  0.19961781  1
  Zn  Zn101  1  0.67874917  0.68907001  0.63328307  1
  Zn  Zn102  1  0.31055341  0.30179020  0.30680691  1
  Zn  Zn103  1  0.31139588  0.31081504  0.80793503  1
  Zn  Zn104  1  0.31328466  0.81262028  0.31300142  1
  Zn  Zn105  1  0.31683943  0.81169736  0.82123618  1
  Zn  Zn106  1  0.81345246  0.31419368  0.31011937  1
  Zn  Zn107  1  0.81713762  0.31035101  0.81494809  1
  Zn  Zn108  1  0.81344393  0.81272822  0.31244112  1
  Zn  Zn109  1  0.78602340  0.83141115  0.83053519  1
  Zn  Zn110  1  0.18013645  0.43542282  0.43781484  1
  Zn  Zn111  1  0.17867668  0.43741377  0.93021814  1
  Zn  Zn112  1  0.18912807  0.93835593  0.43235123  1
  Zn  Zn113  1  0.18430377  0.93583711  0.93452621  1
  Zn  Zn114  1  0.68063290  0.43905595  0.43980565  1
  Zn  Zn115  1  0.68781338  0.44359172  0.93688911  1
  Zn  Zn116  1  0.68430231  0.93882187  0.43758387  1
  Zn  Zn117  1  0.68581132  0.92963969  0.94051512  1
  Zn  Zn118  1  0.31828043  0.06303791  0.05544549  1
  Zn  Zn119  1  0.32129358  -0.02171643  0.56261483  1
  Zn  Zn120  1  0.30970467  0.56082168  0.06245452  1
  Zn  Zn121  1  0.31174364  0.55890980  0.56385284  1
  Zn  Zn122  1  0.81603951  0.06673041  0.06331670  1
  Zn  Zn123  1  0.81615496  0.06513035  0.56210359  1
  Zn  Zn124  1  0.81428583  0.56666799  0.06401467  1
  Zn  Zn125  1  0.80810204  0.55916935  0.56368485  1
  Zn  Zn126  1  0.42162213  0.39434163  0.20310630  1
  Zn  Zn127  1  0.43367877  0.43542096  0.69096536  1
  Zn  Zn128  1  0.43656163  0.93799225  0.18373998  1
  Zn  Zn129  1  0.44516926  0.93590004  0.70172555  1
  Zn  Zn130  1  0.93472986  0.43918741  0.19127282  1
  Zn  Zn131  1  0.93439905  0.43969364  0.69008589  1
  Zn  Zn132  1  0.93775593  0.93670170  0.18931826  1
  Zn  Zn133  1  0.93661712  0.93897271  0.69088949  1
  Zn  Zn134  1  0.06629770  0.06488159  0.31041541  1
  Zn  Zn135  1  0.06643256  0.06236592  0.81611838  1
  Zn  Zn136  1  0.05752324  0.56391836  0.31443687  1
  Zn  Zn137  1  0.06148051  0.56552000  0.81424845  1
  Zn  Zn138  1  0.56363496  0.06316226  0.30902383  1
  Zn  Zn139  1  0.57064254  0.06942938  0.81393166  1
  Zn  Zn140  1  0.56121029  0.55634709  0.31054039  1
  Zn  Zn141  1  0.56240125  0.56534271  0.81104057  1
  Zn  Zn142  1  0.43335507  0.17895355  0.44281734  1
  Zn  Zn143  1  0.44014973  0.18702431  0.95053641  1
  Zn  Zn144  1  0.44089585  0.68934059  0.43595236  1
  Zn  Zn145  1  0.43227544  0.69519551  0.93214404  1
  Zn  Zn146  1  0.93602939  0.19104571  0.43928655  1
  Zn  Zn147  1  0.93278090  0.18583240  0.94120835  1
  Zn  Zn148  1  0.93303043  0.69024988  0.43665544  1
  Zn  Zn149  1  0.92950784  0.69151367  0.93489307  1
  Zn  Zn150  1  0.06695026  0.30948870  0.05807787  1
  Zn  Zn151  1  0.05740053  0.31020478  0.56363929  1
  Zn  Zn152  1  0.06546037  0.80776727  0.05940535  1
  Zn  Zn153  1  0.06362571  0.81648684  0.56593055  1
  Zn  Zn154  1  0.56597153  0.31398648  0.06066434  1
  Zn  Zn155  1  0.55792836  0.30752995  0.55832836  1
  Zn  Zn156  1  0.55972143  0.81836503  0.06533163  1
  Zn  Zn157  1  0.55985034  0.81520651  0.57031555  1
  O  O158  1  0.10918039  0.12958347  0.11134503  1
  O  O159  1  0.12164238  0.10289240  0.63646968  1
  O  O160  1  0.10876912  0.60906942  0.12824765  1
  O  O161  1  0.11601139  0.61882985  0.61928744  1
  O  O162  1  0.62014531  0.11162406  0.12281801  1
  O  O163  1  0.62040206  0.12220101  0.62160337  1
  O  O164  1  0.61883069  0.61993546  0.11997332  1
  O  O165  1  0.59999130  0.60196601  0.63223904  1
  O  O166  1  0.38308138  0.38298596  0.37179301  1
  O  O167  1  0.38761027  0.37410962  0.87696781  1
  O  O168  1  0.39048245  0.87203986  0.37187397  1
  O  O169  1  0.38394172  0.86957819  0.89088686  1
  O  O170  1  0.88760573  0.36670972  0.38572152  1
  O  O171  1  0.88748399  0.38658938  0.86928639  1
  O  O172  1  0.88422340  0.88559868  0.37945614  1
  O  O173  1  0.88432536  0.86958406  0.88479454  1
  O  O174  1  0.25807758  0.00531425  0.36929908  1
  O  O175  1  0.24300924  0.01531129  0.86475275  1
  O  O176  1  0.25340345  0.50453147  0.37072375  1
  O  O177  1  0.24741042  0.50153184  0.86313212  1
  O  O178  1  0.75731243  0.00576999  0.36803262  1
  O  O179  1  0.74636487  0.01901801  0.87270047  1
  O  O180  1  0.74493443  0.50747369  0.36931126  1
  O  O181  1  0.75627790  0.50785092  0.86512556  1
  O  O182  1  0.23097153  0.50238594  0.12883644  1
  O  O183  1  0.23993834  0.49169475  0.63274106  1
  O  O184  1  0.24297648  1.04991935  0.14595960  1
  O  O185  1  0.23837979  0.99173540  0.64619432  1
  O  O186  1  0.73895217  0.50326455  0.12635153  1
  O  O187  1  0.73995767  0.49950301  0.63984047  1
  O  O188  1  0.74075913  1.01311397  0.13533545  1
  O  O189  1  0.74474431  1.00405496  0.63274473  1
  O  O190  1  -0.00110395  0.36934862  0.26072736  1
  O  O191  1  0.00977837  0.37876525  0.75550327  1
  O  O192  1  0.00397056  0.86773916  0.25719872  1
  O  O193  1  -0.00178703  0.86925940  0.76392896  1
  O  O194  1  0.51658293  0.38722147  0.26492400  1
  O  O195  1  0.50009091  0.37566571  0.76805847  1
  O  O196  1  0.50914025  0.86614472  0.25360796  1
  O  O197  1  0.50964337  0.85416760  0.74547628  1
  O  O198  1  0.51235117  0.13197892  0.23444538  1
  O  O199  1  0.49624800  0.13073994  0.74777365  1
  O  O200  1  0.48921143  0.62776648  0.24247888  1
  O  O201  1  0.48783584  0.62559008  0.74441928  1
  O  O202  1  1.00650747  0.13392467  0.23545731  1
  O  O203  1  0.98661693  0.12110906  0.75542761  1
  O  O204  1  0.98933547  0.62854389  0.24815426  1
  O  O205  1  0.99284784  0.63069052  0.74362151  1
  O  O206  1  0.35296049  0.24012811  0.01010475  1
  O  O207  1  0.37929018  0.25071720  0.51676645  1
  O  O208  1  0.37937312  0.76281504  0.00606840  1
  O  O209  1  0.36208256  0.74397382  0.50328545  1
  O  O210  1  0.86590272  0.25877978  0.00440314  1
  O  O211  1  0.87149289  0.25843313  0.50865189  1
  O  O212  1  0.86179365  0.75129380  0.00456397  1
  O  O213  1  0.87169169  0.76655219  0.49481167  1
  O  O214  1  0.11952195  0.24919482  0.48809811  1
  O  O215  1  0.14057783  0.23756611  1.00343898  1
  O  O216  1  0.13207002  0.74058601  0.50165856  1
  O  O217  1  0.17658353  0.75615058  1.04152244  1
  O  O218  1  0.62852370  0.23495730  0.50418778  1
  O  O219  1  0.64311869  0.25410355  0.99338934  1
  O  O220  1  0.63150489  0.73900630  0.52913795  1
  O  O221  1  0.63636545  0.74229035  1.00978782  1
  O  O222  1  0.50280169  0.23310946  0.10685638  1
  O  O223  1  0.49472695  0.24207856  0.62998151  1
  O  O224  1  0.50352032  0.73691455  0.13474912  1
  O  O225  1  0.49088648  0.73888217  0.63450499  1
  O  O226  1  0.99626101  0.24872553  0.13206552  1
  O  O227  1  0.98347444  0.24490984  0.61943783  1
  O  O228  1  1.00915954  0.73203583  0.13418847  1
  O  O229  1  1.00094028  0.73945674  0.63184628  1
  O  O230  1  0.00638200  0.25310070  0.36859517  1
  O  O231  1  -0.00994254  0.25999280  0.86864238  1
  O  O232  1  -0.00093011  0.75940916  0.36740560  1
  O  O233  1  0.00001640  0.74863778  0.86477082  1
  O  O234  1  0.49357803  0.26371037  0.38140117  1
  O  O235  1  0.51318800  0.26109470  0.88551093  1
  O  O236  1  0.49393019  0.75910954  0.36049222  1
  O  O237  1  0.50804085  0.73351366  0.85562139  1
  O  O238  1  0.27031470  0.09194048  0.52883698  1
  O  O239  1  0.24116343  0.13073311  0.98901777  1
  O  O240  1  0.24148933  0.62614493  0.49623106  1
  O  O241  1  0.25325009  0.61747704  0.98366452  1
  O  O242  1  0.74478757  0.12501027  0.48820481  1
  O  O243  1  0.76241510  0.13796566  0.98613435  1
  O  O244  1  0.73888475  0.63861071  0.53230878  1
  O  O245  1  0.74418030  0.63338297  0.99650094  1
  O  O246  1  0.23923196  0.36462107  -0.00141923  1
  O  O247  1  0.24732644  0.38155694  0.51595530  1
  O  O248  1  0.26520173  0.88801043  -0.00450916  1
  O  O249  1  0.24693854  0.86020272  0.49627991  1
  O  O250  1  0.75508294  0.36653071  -0.00299955  1
  O  O251  1  0.76241517  0.37713063  0.49065057  1
  O  O252  1  0.76094545  0.85858919  0.00578049  1
  O  O253  1  0.75669488  0.87909097  0.50962053  1
  O  O254  1  0.13281378  0.50027723  0.25214423  1
  O  O255  1  0.12935202  0.50127707  0.73873962  1
  O  O256  1  0.12629250  0.98366174  0.25618060  1
  O  O257  1  0.12955791  0.98965858  0.74969276  1
  O  O258  1  0.63878561  0.49879034  0.24436494  1
  O  O259  1  0.63633084  0.49911445  0.74788813  1
  O  O260  1  0.63408973  0.99322006  0.24152718  1
  O  O261  1  0.64015796  1.01057919  0.74097857  1
  O  O262  1  0.36956944  -0.01429925  0.26294485  1
  O  O263  1  0.36897524  0.01033599  0.75277163  1
  O  O264  1  0.36212700  0.50601900  0.25699733  1
  O  O265  1  0.36140804  0.50495298  0.75277006  1
  O  O266  1  0.86562753  -0.00612092  0.25987240  1
  O  O267  1  0.86679451  0.01775764  0.74705418  1
  O  O268  1  0.86053754  0.50528124  0.25205305  1
  O  O269  1  0.86496543  0.50795111  0.75720504  1
  O  O270  1  0.11208570  0.36472600  0.37601061  1
  O  O271  1  0.11152894  0.37522227  0.86009462  1
  O  O272  1  0.11106049  0.87398303  0.37113548  1
  O  O273  1  0.10591360  0.87806166  0.86957329  1
  O  O274  1  0.61438833  0.37460366  0.36814856  1
  O  O275  1  0.62097152  0.36609193  0.87827671  1
  O  O276  1  0.61397515  0.88728707  0.35796859  1
  O  O277  1  0.67942564  0.86965588  0.85032479  1
  O  O278  1  0.39535378  0.11850544  0.12408908  1
  O  O279  1  0.38761881  0.13168401  0.64029892  1
  O  O280  1  0.37887646  0.62438184  0.13288179  1
  O  O281  1  0.38128352  0.61488865  0.63661184  1
  O  O282  1  0.89124569  0.14082185  0.11334322  1
  O  O283  1  0.87803428  0.13384826  0.63692206  1
  O  O284  1  0.88908600  0.61457390  0.13782475  1
  O  O285  1  0.88533663  0.61592578  0.63441064  1
  O  O286  1  0.24613781  0.26722062  0.11679087  1
  O  O287  1  0.25869981  0.25645714  0.63152886  1
  O  O288  1  0.22205438  0.74884288  0.10709016  1
  O  O289  1  0.25194455  0.74660523  0.61261956  1
  O  O290  1  0.75894091  0.24211144  0.11243799  1
  O  O291  1  0.76654218  0.24572113  0.62076666  1
  O  O292  1  0.75271182  0.74101003  0.12121841  1
  O  O293  1  0.75985934  0.77367164  0.63806475  1
  O  O294  1  0.23533996  0.25791107  0.37628511  1
  O  O295  1  0.25076102  0.24575722  0.88380539  1
  O  O296  1  0.24984949  0.73877415  0.38613178  1
  O  O297  1  0.24720781  0.73675460  0.87331885  1
  O  O298  1  0.75499931  0.23499932  0.37378909  1
  O  O299  1  0.74398239  0.25025990  0.88348793  1
  O  O300  1  0.74565749  0.74818285  0.36798972  1
  O  O301  1  0.75750886  0.73219314  0.88410381  1
  O  O302  1  0.01034210  0.13046742  0.00474718  1
  O  O303  1  -0.00395284  0.11080708  0.49958867  1
  O  O304  1  -0.00983832  0.62992294  0.01298968  1
  O  O305  1  0.00323138  0.62127146  0.50530760  1
  O  O306  1  0.50100775  0.10491808  0.00693995  1
  O  O307  1  0.50861564  0.12614471  0.51511184  1
  O  O308  1  0.50816730  0.62346238  0.00489618  1
  O  O309  1  0.48953718  0.61275843  0.50871929  1
  O  O310  1  0.49786380  0.38350607  0.48718773  1
  O  O311  1  0.50922884  0.38799756  0.99124244  1
  O  O312  1  0.51159317  0.87023989  0.48050314  1
  O  O313  1  0.49925704  0.89232067  1.00378865  1
  O  O314  1  0.99174284  0.38342099  0.49614314  1
  O  O315  1  1.00220205  0.37049107  0.98073230  1
  O  O316  1  0.99359698  0.88094543  0.49311853  1
  O  O317  1  0.99116013  0.86160985  0.98852294  1
  O  O318  1  0.48936447  0.49442867  0.38197440  1
  O  O319  1  0.50232237  0.48919325  0.88118195  1
  O  O320  1  0.49187227  0.98977373  0.36239007  1
  O  O321  1  0.51245118  1.00177533  0.88393730  1
  O  O322  1  1.00611845  0.49065500  0.38823688  1
  O  O323  1  0.98525489  0.50068752  0.87032420  1
  O  O324  1  0.99507715  0.99561468  0.37945016  1
  O  O325  1  0.99329258  0.98983159  0.87683427  1
  O  O326  1  -0.00734938  0.01671083  0.12792166  1
  O  O327  1  0.00467835  0.00134049  0.61819422  1
  O  O328  1  0.00678562  0.50539947  0.12604730  1
  O  O329  1  0.00626529  0.50774940  0.61867998  1
  O  O330  1  0.51461395  0.00914726  0.12569945  1
  O  O331  1  0.51568910  0.01171272  0.63955205  1
  O  O332  1  0.51041491  0.51433652  0.11848888  1
  O  O333  1  0.49823276  0.49831922  0.61666844  1
  O  O334  1  0.24541334  0.38792585  0.23790246  1
  O  O335  1  0.23522562  0.38049738  0.74428402  1
  O  O336  1  0.23101729  0.86556558  0.25091619  1
  O  O337  1  0.23845105  0.88232856  0.76936873  1
  O  O338  1  0.73871571  0.38950175  0.26059218  1
  O  O339  1  0.75587120  0.38945245  0.75674327  1
  O  O340  1  0.73927993  0.88491909  0.25277121  1
  O  O341  1  0.77409818  0.89518504  0.73228283  1
  O  O342  1  0.25620873  0.11414606  0.20328276  1
  O  O343  1  0.26058203  0.11723336  0.75411202  1
  O  O344  1  0.25203438  0.62039417  0.25622491  1
  O  O345  1  0.25249688  0.61717239  0.75295829  1
  O  O346  1  0.74248749  0.11613437  0.26459328  1
  O  O347  1  0.75830588  0.12195589  0.76031210  1
  O  O348  1  0.76229378  0.61371951  0.24738467  1
  O  O349  1  0.75720938  0.61655424  0.75618914  1
  O  O350  1  0.37708566  0.11805483  0.36719535  1
  O  O351  1  0.36652247  0.13660633  0.86650675  1
  O  O352  1  0.36808333  0.61657734  0.36607363  1
  O  O353  1  0.36365521  0.62173153  0.86343032  1
  O  O354  1  0.86302092  0.11564192  0.38095499  1
  O  O355  1  0.86258059  0.13892990  0.86129831  1
  O  O356  1  0.87986385  0.61933205  0.36332778  1
  O  O357  1  0.86832636  0.61456807  0.86719666  1
  O  O358  1  0.12739562  0.39060632  0.12395017  1
  O  O359  1  0.12567701  0.37987318  0.63339741  1
  O  O360  1  0.11110077  0.87814885  0.13850613  1
  O  O361  1  0.11357724  0.88370509  0.64509153  1
  O  O362  1  0.61582302  0.38710371  0.13967667  1
  O  O363  1  0.61583660  0.38503985  0.62104187  1
  O  O364  1  0.62066725  0.88981841  0.13996807  1
  O  O365  1  0.64298818  0.88944200  0.62126232  1
  O  O366  1  0.11336719  0.25485318  0.25824637  1
  O  O367  1  0.12175379  0.25944736  0.74480951  1
  O  O368  1  0.11169444  0.75757940  0.25573819  1
  O  O369  1  0.11266403  0.76025323  0.74548338  1
  O  O370  1  0.63486146  0.26804024  0.24151665  1
  O  O371  1  0.62753835  0.25060853  0.76605670  1
  O  O372  1  0.61819814  0.76506190  0.24296727  1
  O  O373  1  0.61987750  0.73225216  0.73346955  1
  O  O374  1  0.38595250  0.28707226  0.22889463  1
  O  O375  1  0.37946445  0.24295204  0.74259125  1
  O  O376  1  0.37717676  0.73977125  0.24206931  1
  O  O377  1  0.37203214  0.74000089  0.74383034  1
  O  O378  1  0.88572853  0.25324330  0.24157639  1
  O  O379  1  0.87179013  0.24274852  0.73911249  1
  O  O380  1  0.88351904  0.73656981  0.25162655  1
  O  O381  1  0.88184628  0.73707076  0.75474667  1
  O  O382  1  0.37857235  0.49485810  0.48988865  1
  O  O383  1  0.39262718  0.51050287  0.99753975  1
  O  O384  1  0.38231046  0.99283571  0.46873116  1
  O  O385  1  0.38748893  0.99244169  0.99552521  1
  O  O386  1  0.88441518  0.49183033  0.50948497  1
  O  O387  1  0.86571734  0.50005511  0.98198111  1
  O  O388  1  0.88314240  0.99327867  0.49014188  1
  O  O389  1  0.86420411  0.97861159  1.00698659  1
  O  O390  1  0.12923576  0.01681394  -0.00096254  1
  O  O391  1  0.11575829  -0.01305100  0.51187238  1
  O  O392  1  0.11917686  0.50136672  0.00576056  1
  O  O393  1  0.11586394  0.50815580  0.50998240  1
  O  O394  1  0.62404080  -0.00943839  0.01342771  1
  O  O395  1  0.63176084  0.01295554  0.51371755  1
  O  O396  1  0.61995987  0.51099013  0.00709052  1
  O  O397  1  0.61298644  0.50344201  0.50817724  1
  O  O398  1  0.35319766  0.40327700  0.11203480  1
  O  O399  1  0.36457678  0.36586492  0.62825007  1
  O  O400  1  0.37683858  0.87618596  0.11052068  1
  O  O401  1  0.37745798  0.89536709  0.62100614  1
  O  O402  1  0.88079370  0.36361780  0.12340618  1
  O  O403  1  0.87984995  0.36437154  0.61897195  1
  O  O404  1  0.88998857  0.86608809  0.11429468  1
  O  O405  1  0.86716823  0.88968700  0.61146547  1
  O  O406  1  0.13231935  0.13794051  0.37190420  1
  O  O407  1  0.13147809  0.12895789  0.88419375  1
  O  O408  1  0.13036024  0.62452046  0.38584206  1
  O  O409  1  0.13639385  0.62233317  0.87268038  1
  O  O410  1  0.63630123  0.11607634  0.38449507  1
  O  O411  1  0.64111261  0.14187073  0.87596644  1
  O  O412  1  0.60695410  0.63548079  0.36954145  1
  O  O413  1  0.63334713  0.61665038  0.88791463  1
