# generated using pymatgen
data_V79Zn79O256
_symmetry_space_group_name_H-M   'P 1'
_cell_length_a   16.89527235
_cell_length_b   16.87657793
_cell_length_c   16.88886561
_cell_angle_alpha   90.11505029
_cell_angle_beta   90.12607651
_cell_angle_gamma   90.00945645
_symmetry_Int_Tables_number   1
_chemical_formula_structural   V79Zn79O256
_chemical_formula_sum   'V79 Zn79 O256'
_cell_volume   4815.57479537
_cell_formula_units_Z   1
loop_
 _symmetry_equiv_pos_site_id
 _symmetry_equiv_pos_as_xyz
  1  'x, y, z'
loop_
 _atom_site_type_symbol
 _atom_site_label
 _atom_site_symmetry_multiplicity
 _atom_site_fract_x
 _atom_site_fract_y
 _atom_site_fract_z
 _atom_site_occupancy
  V  V0  1  0.00255307  0.11961055  0.62640377  1
  V  V1  1  -0.00600652  0.37663903  0.87637978  1
  V  V2  1  0.86360471  0.86709399  0.49835170  1
  V  V3  1  0.24397050  0.13730796  0.37940110  1
  V  V4  1  0.24685227  0.52104624  0.25369519  1
  V  V5  1  0.12400513  0.50179795  0.62634357  1
  V  V6  1  0.86599497  0.11926382  0.24470443  1
  V  V7  1  0.37280176  0.00207471  0.87232759  1
  V  V8  1  0.61983895  0.13332431  0.50655079  1
  V  V9  1  0.12360454  0.36972457  0.75613510  1
  V  V10  1  0.49832079  0.50241051  0.49974337  1
  V  V11  1  0.74865445  0.12879989  0.38242900  1
  V  V12  1  -0.00716185  -0.00221543  0.50076484  1
  V  V13  1  0.01587490  0.50542984  -0.00193891  1
  V  V14  1  0.37479011  0.50961693  0.87291846  1
  V  V15  1  0.37070728  0.77037520  0.62945778  1
  V  V16  1  0.63647477  0.62905583  0.49898374  1
  V  V17  1  0.12880482  0.37189525  0.26435298  1
  V  V18  1  0.23527104  0.62832841  0.87406253  1
  V  V19  1  0.12367908  0.13850855  0.49855782  1
  V  V20  1  0.12585975  0.86207367  0.75816413  1
  V  V21  1  0.12057963  0.88184930  0.24207262  1
  V  V22  1  0.75499843  0.25143650  0.00260436  1
  V  V23  1  0.23809384  0.74656142  -0.00697636  1
  V  V24  1  0.62880526  0.88672993  0.75081317  1
  V  V25  1  -0.00246549  0.24696883  0.75664706  1
  V  V26  1  0.25541897  0.50562810  0.74938720  1
  V  V27  1  0.37753980  0.37770062  -0.00372626  1
  V  V28  1  0.61022419  0.25868948  0.35832670  1
  V  V29  1  0.23836622  0.00081976  0.74923130  1
  V  V30  1  0.57451601  0.45733007  0.17308892  1
  V  V31  1  0.74758969  0.62191292  0.87541342  1
  V  V32  1  0.24417927  0.88231416  0.12080777  1
  V  V33  1  0.00275247  0.86959494  0.37515494  1
  V  V34  1  0.25077274  0.00054183  0.24930125  1
  V  V35  1  0.24116312  0.13252081  0.87318092  1
  V  V36  1  0.49756603  0.87086039  0.36411424  1
  V  V37  1  0.76272459  0.11238104  0.87483019  1
  V  V38  1  0.39093062  0.25071247  0.63068198  1
  V  V39  1  0.74692960  0.74852362  0.00911830  1
  V  V40  1  -0.00114061  0.63113550  0.63298048  1
  V  V41  1  0.17187003  -0.05013156  0.57809811  1
  V  V42  1  0.62369586  0.75070930  0.87034937  1
  V  V43  1  0.49905031  -0.00565623  0.50480560  1
  V  V44  1  0.87156533  0.62096074  0.75327218  1
  V  V45  1  0.86428935  0.50317551  0.37418949  1
  V  V46  1  0.86642178  0.36645628  0.50370323  1
  V  V47  1  0.37497168  0.87424521  -0.00008299  1
  V  V48  1  0.64031530  0.00050674  0.13068374  1
  V  V49  1  0.48945632  0.62869142  0.64172028  1
  V  V50  1  0.51362597  0.36414819  0.86687324  1
  V  V51  1  0.12590338  0.12104410  0.00774641  1
  V  V52  1  0.37939901  0.12793825  0.74669076  1
  V  V53  1  0.00351840  0.00044417  -0.00244900  1
  V  V54  1  0.49804287  0.12788214  0.13194024  1
  V  V55  1  0.24928892  0.36681929  0.62374010  1
  V  V56  1  0.49951752  0.87317595  0.86830705  1
  V  V57  1  0.75675148  0.48514667  0.22428869  1
  V  V58  1  0.62947438  0.49418261  0.63577215  1
  V  V59  1  0.12887303  0.63361255  0.48902151  1
  V  V60  1  0.63977196  0.87015362  0.24347299  1
  V  V61  1  0.49979251  0.00181297  -0.00019352  1
  V  V62  1  0.86889700  0.88013394  0.00219033  1
  V  V63  1  0.37475702  0.53157199  0.37426531  1
  V  V64  1  0.00330779  0.74898564  0.25044711  1
  V  V65  1  0.74636913  0.87951582  0.62865866  1
  V  V66  1  0.37305132  0.36742615  0.48985671  1
  V  V67  1  0.86412745  0.74661760  0.62662124  1
  V  V68  1  0.62675551  0.13017553  -0.00627306  1
  V  V69  1  -0.00654433  0.86051295  0.87040091  1
  V  V70  1  0.24181669  0.38260824  0.12520542  1
  V  V71  1  0.24186731  0.25414009  -0.00498154  1
  V  V72  1  0.01150014  0.62316500  0.12022859  1
  V  V73  1  0.87300210  0.38398118  0.00821873  1
  V  V74  1  0.37760706  0.25061035  0.12959444  1
  V  V75  1  0.87620041  0.10747313  0.75477086  1
  V  V76  1  0.38665710  0.73976172  0.12967368  1
  V  V77  1  0.50978479  0.51713030  0.00005966  1
  V  V78  1  0.00101672  0.49789852  0.49645885  1
  Zn  Zn79  1  0.87362999  0.62711736  0.25028083  1
  Zn  Zn80  1  0.63766833  0.75451523  0.38765371  1
  Zn  Zn81  1  0.26459631  0.74513800  0.49482262  1
  Zn  Zn82  1  0.87900214  0.25463475  0.13230890  1
  Zn  Zn83  1  0.37943168  0.12836484  0.25871597  1
  Zn  Zn84  1  0.62636734  0.00776581  0.62687030  1
  Zn  Zn85  1  0.86033296  -0.00672526  0.36778471  1
  Zn  Zn86  1  0.74089024  0.36222792  0.63392399  1
  Zn  Zn87  1  0.00712581  0.11990066  0.13348034  1
  Zn  Zn88  1  0.75064730  0.48185886  0.76861963  1
  Zn  Zn89  1  0.00587371  0.24050170  0.25538359  1
  Zn  Zn90  1  0.86714089  0.24292391  0.62440687  1
  Zn  Zn91  1  0.87304846  0.74941858  0.12550048  1
  Zn  Zn92  1  0.37439653  -0.00315361  0.37902866  1
  Zn  Zn93  1  0.00380914  0.36570578  0.38064732  1
  Zn  Zn94  1  0.19280466  0.19099209  0.18750330  1
  Zn  Zn95  1  0.18485178  0.18605644  0.68527926  1
  Zn  Zn96  1  0.18687980  0.69945960  0.18028315  1
  Zn  Zn97  1  0.19720542  0.68920773  0.68050320  1
  Zn  Zn98  1  0.68944970  0.19332296  0.18618997  1
  Zn  Zn99  1  0.68837124  0.20230853  0.69284436  1
  Zn  Zn100  1  0.70277427  0.69005116  0.23904715  1
  Zn  Zn101  1  0.68127774  0.68786535  0.68869600  1
  Zn  Zn102  1  0.30791792  0.31364081  0.30910315  1
  Zn  Zn103  1  0.31715429  0.31609855  0.81084379  1
  Zn  Zn104  1  0.32026284  0.79043344  0.31517007  1
  Zn  Zn105  1  0.31224570  0.81048891  0.80660286  1
  Zn  Zn106  1  0.81272916  0.30753964  0.31738382  1
  Zn  Zn107  1  0.80878010  0.30127167  0.81722539  1
  Zn  Zn108  1  0.81269156  0.80980552  0.31351038  1
  Zn  Zn109  1  0.81072021  0.80917180  0.81145237  1
  Zn  Zn110  1  0.19608241  0.44670909  0.43883374  1
  Zn  Zn111  1  0.18797245  0.43897155  0.93442855  1
  Zn  Zn112  1  0.21631383  0.89404776  0.40423542  1
  Zn  Zn113  1  0.18390848  0.93815915  0.93263268  1
  Zn  Zn114  1  0.68490346  0.43327239  0.44040833  1
  Zn  Zn115  1  0.68547534  0.43760339  0.95020759  1
  Zn  Zn116  1  0.68200775  0.94338782  0.43276353  1
  Zn  Zn117  1  0.68588140  0.93968727  0.93940451  1
  Zn  Zn118  1  0.31186129  0.06467581  0.06147591  1
  Zn  Zn119  1  0.31790840  0.06827219  0.55800770  1
  Zn  Zn120  1  0.30963231  0.56579212  0.05994172  1
  Zn  Zn121  1  0.31178337  0.56341286  0.56096748  1
  Zn  Zn122  1  0.81769351  0.06194802  0.05953338  1
  Zn  Zn123  1  0.81087900  0.06298190  0.56264303  1
  Zn  Zn124  1  0.82090823  0.56724708  0.06198138  1
  Zn  Zn125  1  0.81273068  0.55633634  0.56396984  1
  Zn  Zn126  1  0.40906107  0.45535772  0.18044325  1
  Zn  Zn127  1  0.44203296  0.43589483  0.68724131  1
  Zn  Zn128  1  0.43645185  0.93633053  0.18843402  1
  Zn  Zn129  1  0.43689711  0.94542651  0.68908128  1
  Zn  Zn130  1  0.94632381  0.44107971  0.18719289  1
  Zn  Zn131  1  0.93214643  0.43831455  0.68959841  1
  Zn  Zn132  1  0.93412289  0.94137497  0.18241562  1
  Zn  Zn133  1  0.94038040  0.92987502  0.68568074  1
  Zn  Zn134  1  0.06084543  0.05912444  0.31618683  1
  Zn  Zn135  1  0.05794001  0.05646906  0.81974596  1
  Zn  Zn136  1  0.06231573  0.55916950  0.30988029  1
  Zn  Zn137  1  0.05912374  0.56029186  0.81242450  1
  Zn  Zn138  1  0.56768198  0.05909799  0.31671017  1
  Zn  Zn139  1  0.58611755  0.09805903  0.78659932  1
  Zn  Zn140  1  0.57613477  0.54305807  0.32603941  1
  Zn  Zn141  1  0.56421878  0.55893189  0.81788558  1
  Zn  Zn142  1  0.43819892  0.18488768  0.43701329  1
  Zn  Zn143  1  0.43328963  0.18769719  0.93752737  1
  Zn  Zn144  1  0.45306841  0.69852886  0.44934767  1
  Zn  Zn145  1  0.43215367  0.69261822  0.93468293  1
  Zn  Zn146  1  0.94027166  0.18832702  0.42883275  1
  Zn  Zn147  1  0.93963752  0.19171686  0.93965836  1
  Zn  Zn148  1  0.93804129  0.68587323  0.43987071  1
  Zn  Zn149  1  0.93354713  0.68736107  0.93796203  1
  Zn  Zn150  1  0.05858906  0.31001919  0.06885114  1
  Zn  Zn151  1  0.05466762  0.31120080  0.57002982  1
  Zn  Zn152  1  0.05779615  0.81302624  0.05996906  1
  Zn  Zn153  1  0.05553036  0.80822974  0.56516037  1
  Zn  Zn154  1  0.55977177  0.30975121  0.05359889  1
  Zn  Zn155  1  0.56114468  0.31548503  0.55472063  1
  Zn  Zn156  1  0.56773404  0.81194298  0.06489399  1
  Zn  Zn157  1  0.55652983  0.81092168  0.56530438  1
  O  O158  1  0.13055180  0.12737409  0.11177684  1
  O  O159  1  0.11099995  0.12569394  0.61856116  1
  O  O160  1  0.11156946  0.63193795  0.12185300  1
  O  O161  1  0.11739295  0.61581219  0.62625216  1
  O  O162  1  0.61761913  0.11535425  0.11753980  1
  O  O163  1  0.63235014  0.12634553  0.60863630  1
  O  O164  1  0.58240385  0.59918979  0.16860141  1
  O  O165  1  0.61520563  0.61518168  0.61986501  1
  O  O166  1  0.36874102  0.36838548  0.38968120  1
  O  O167  1  0.37628633  0.38650348  0.88302967  1
  O  O168  1  0.39443594  0.87415121  0.36610149  1
  O  O169  1  0.37990960  0.87962472  0.88012190  1
  O  O170  1  0.87897590  0.38488708  0.38892188  1
  O  O171  1  0.88960543  0.37024042  0.88638630  1
  O  O172  1  0.88087657  0.87490652  0.38243560  1
  O  O173  1  0.88652476  0.86866322  0.87974497  1
  O  O174  1  0.25393188  -0.00495460  0.36173204  1
  O  O175  1  0.25346955  0.01017538  0.86805379  1
  O  O176  1  0.26366694  0.50825771  0.36703362  1
  O  O177  1  0.25468509  0.50795853  0.86882104  1
  O  O178  1  0.74509791  0.01909880  0.37334221  1
  O  O179  1  0.75431933  0.01256700  0.88363073  1
  O  O180  1  0.76373721  0.49673242  0.37736009  1
  O  O181  1  0.74009737  0.51838508  0.88266517  1
  O  O182  1  0.26850739  0.49411889  0.14277388  1
  O  O183  1  0.24300451  0.49285000  0.63239250  1
  O  O184  1  0.25431042  0.99078719  0.12994978  1
  O  O185  1  0.24208198  1.00922138  0.63084248  1
  O  O186  1  0.75959305  0.48905593  0.12347058  1
  O  O187  1  0.73432270  0.49760713  0.62541671  1
  O  O188  1  0.73834662  1.00279655  0.11924390  1
  O  O189  1  0.74684102  0.98425627  0.62047108  1
  O  O190  1  0.02431297  0.38568274  0.25104968  1
  O  O191  1  0.00272552  0.36996322  0.75603373  1
  O  O192  1  0.00198072  0.87142210  0.25291897  1
  O  O193  1  0.01033188  0.87726342  0.76125631  1
  O  O194  1  0.50873726  0.41691454  0.23592939  1
  O  O195  1  0.49838726  0.38047988  0.76799180  1
  O  O196  1  0.51189553  0.88532045  0.25931964  1
  O  O197  1  0.50607123  0.88389811  0.76359543  1
  O  O198  1  0.49827562  0.11590347  0.23475243  1
  O  O199  1  0.47555314  0.10513410  0.75225715  1
  O  O200  1  0.53789731  0.61617718  0.22914559  1
  O  O201  1  0.50458723  0.62009083  0.74064043  1
  O  O202  1  0.98903231  0.12001519  0.25228245  1
  O  O203  1  0.99838855  0.12707360  0.74721951  1
  O  O204  1  1.00316597  0.63027106  0.23876131  1
  O  O205  1  0.98961491  0.61718822  0.74130432  1
  O  O206  1  0.36388237  0.25996243  0.00589738  1
  O  O207  1  0.38037047  0.26187421  0.51217892  1
  O  O208  1  0.36592929  0.76256939  0.00267115  1
  O  O209  1  0.37891044  0.74322128  0.52061336  1
  O  O210  1  0.87457905  0.26226566  0.00433861  1
  O  O211  1  0.88269407  0.26448216  0.49835061  1
  O  O212  1  0.86336533  0.76042828  -0.00173197  1
  O  O213  1  0.87895205  0.75800221  0.50963567  1
  O  O214  1  0.11804409  0.23805934  0.50513453  1
  O  O215  1  0.13706782  0.24567324  1.00253287  1
  O  O216  1  0.12129519  0.73459411  0.50838101  1
  O  O217  1  0.14003218  0.75903653  0.99784946  1
  O  O218  1  0.61470901  0.23679455  0.49093950  1
  O  O219  1  0.63547615  0.23755346  1.00723654  1
  O  O220  1  0.62127894  0.73376499  0.50567904  1
  O  O221  1  0.64038957  0.76215548  0.98944130  1
  O  O222  1  0.48852255  0.24009592  0.11395977  1
  O  O223  1  0.48904733  0.25534402  0.62759208  1
  O  O224  1  0.48517601  0.75400446  0.11244037  1
  O  O225  1  0.48948916  0.73564403  0.62578234  1
  O  O226  1  0.99922816  0.24102771  0.13537617  1
  O  O227  1  0.99253823  0.23764523  0.63648810  1
  O  O228  1  0.99965276  0.74089656  0.12927372  1
  O  O229  1  0.98644674  0.73737522  0.62447367  1
  O  O230  1  0.00617730  0.25417215  0.36806045  1
  O  O231  1  0.00254900  0.25913416  0.86553483  1
  O  O232  1  -0.00614760  0.75895884  0.36583459  1
  O  O233  1  0.00202914  0.76093095  0.87965057  1
  O  O234  1  0.50953119  0.24275029  0.36992776  1
  O  O235  1  0.49341875  0.26557838  0.88317181  1
  O  O236  1  0.51342043  0.76682913  0.37926394  1
  O  O237  1  0.50904207  0.76403793  0.88533881  1
  O  O238  1  0.23981502  0.11909202  0.48808435  1
  O  O239  1  0.24565891  0.13335750  0.99253917  1
  O  O240  1  0.23256445  0.62253823  0.50352732  1
  O  O241  1  0.24920109  0.63947405  0.99259286  1
  O  O242  1  0.73950458  0.12364920  0.49031178  1
  O  O243  1  0.74817537  0.12857999  0.99379150  1
  O  O244  1  0.73571625  0.62003141  0.50759232  1
  O  O245  1  0.75890814  0.63861722  0.98750668  1
  O  O246  1  0.25539172  0.37345893  0.00357838  1
  O  O247  1  0.26513185  0.38608047  0.51183319  1
  O  O248  1  0.25619166  0.87137239  -0.00030382  1
  O  O249  1  0.22842747  0.89222904  0.52056104  1
  O  O250  1  0.76701272  0.36997203  -0.00649967  1
  O  O251  1  0.76453329  0.37954255  0.50607376  1
  O  O252  1  0.76214440  0.86650171  -0.00857577  1
  O  O253  1  0.75818597  0.87703792  0.50354053  1
  O  O254  1  0.14314309  0.49341300  0.25605865  1
  O  O255  1  0.13026616  0.49121433  0.74231348  1
  O  O256  1  0.13157533  0.98977075  0.24922094  1
  O  O257  1  0.13341075  0.99550957  0.75309729  1
  O  O258  1  0.64683888  0.48954740  0.24984066  1
  O  O259  1  0.62896910  0.50127208  0.73929292  1
  O  O260  1  0.62516648  0.99895435  0.23413401  1
  O  O261  1  0.62111456  0.99181567  0.74748500  1
  O  O262  1  0.36232422  0.00521660  0.24846433  1
  O  O263  1  0.35716143  0.00573298  0.75132816  1
  O  O264  1  0.36484172  0.51152541  0.26763349  1
  O  O265  1  0.36290339  0.49021675  0.75930830  1
  O  O266  1  0.87719989  0.01202825  0.25224653  1
  O  O267  1  0.88393696  0.00805597  0.74964277  1
  O  O268  1  0.87507693  0.49554426  0.26296119  1
  O  O269  1  0.86616582  0.51553153  0.74326540  1
  O  O270  1  0.13426903  0.37949288  0.36738443  1
  O  O271  1  0.11641050  0.38089098  0.86252625  1
  O  O272  1  0.10687378  0.88039763  0.36150269  1
  O  O273  1  0.11587298  0.87189689  0.86463600  1
  O  O274  1  0.62524310  0.35788842  0.38163294  1
  O  O275  1  0.61247987  0.37736950  0.88467480  1
  O  O276  1  0.62353767  0.87561733  0.35767377  1
  O  O277  1  0.61880571  0.87394255  0.86963578  1
  O  O278  1  0.38067928  0.13455631  0.12233014  1
  O  O279  1  0.36630051  0.14430888  0.63006030  1
  O  O280  1  0.37238600  0.64045425  0.11746358  1
  O  O281  1  0.38891447  0.61167200  0.62995159  1
  O  O282  1  0.87589223  0.12320266  0.13762441  1
  O  O283  1  0.88415894  0.12150000  0.63387696  1
  O  O284  1  0.89209495  0.63028776  0.12645375  1
  O  O285  1  0.87900713  0.62911231  0.62865095  1
  O  O286  1  0.25747489  0.26049285  0.11428129  1
  O  O287  1  0.25002494  0.26405681  0.62767937  1
  O  O288  1  0.25790255  0.76136984  0.10953827  1
  O  O289  1  0.26400112  0.75088426  0.61524748  1
  O  O290  1  0.75786935  0.24360546  0.10913075  1
  O  O291  1  0.75473869  0.24951910  0.62189068  1
  O  O292  1  0.74803801  0.74264381  0.10937728  1
  O  O293  1  0.75633760  0.75847476  0.62597792  1
  O  O294  1  0.24768402  0.23586681  0.37256761  1
  O  O295  1  0.25665103  0.24489721  0.88314838  1
  O  O296  1  0.24434751  0.78438271  0.39168660  1
  O  O297  1  0.25653266  0.74344706  0.88476541  1
  O  O298  1  0.73779018  0.23589577  0.37195986  1
  O  O299  1  0.75624956  0.23379294  0.89311184  1
  O  O300  1  0.73824731  0.73199035  0.34207845  1
  O  O301  1  0.74131833  0.74358614  0.88122892  1
  O  O302  1  0.01151907  0.11879217  -0.00490646  1
  O  O303  1  0.00303884  0.11631859  0.50500774  1
  O  O304  1  -0.00334470  0.61460955  0.00449725  1
  O  O305  1  0.00802180  0.61574737  0.51161740  1
  O  O306  1  0.50618511  0.11941290  0.00312032  1
  O  O307  1  0.51219670  0.11223697  0.49364367  1
  O  O308  1  0.49465970  0.61555769  -0.00748847  1
  O  O309  1  0.50575920  0.61313658  0.51407092  1
  O  O310  1  0.48077955  0.39021555  0.50820669  1
  O  O311  1  0.48835330  0.38373857  0.99163322  1
  O  O312  1  0.51530122  0.88806818  0.48516014  1
  O  O313  1  0.49146911  0.88346996  0.99441852  1
  O  O314  1  0.99659024  0.38644190  0.50362316  1
  O  O315  1  0.99885578  0.38470859  0.99586674  1
  O  O316  1  0.99143682  0.87801618  0.49477579  1
  O  O317  1  0.99200638  0.87727876  0.98906916  1
  O  O318  1  0.48319170  0.50702085  0.38483261  1
  O  O319  1  0.49258212  0.49437974  0.88523736  1
  O  O320  1  0.49978837  0.99137290  0.38210743  1
  O  O321  1  0.49232351  0.99241691  0.88832550  1
  O  O322  1  0.99752682  0.49401375  0.38619149  1
  O  O323  1  1.00237589  0.49339170  0.88843099  1
  O  O324  1  0.99466200  0.99045159  0.38879916  1
  O  O325  1  1.00211600  0.98508942  0.88827774  1
  O  O326  1  -0.00261613  0.00166189  0.10500849  1
  O  O327  1  -0.00674158  0.00676897  0.61371338  1
  O  O328  1  0.00133145  0.51266971  0.11269617  1
  O  O329  1  0.00760196  0.50645927  0.61975445  1
  O  O330  1  0.49611336  0.00858655  0.11148651  1
  O  O331  1  0.50637743  -0.00741098  0.61021991  1
  O  O332  1  0.49162037  0.49749021  0.10665297  1
  O  O333  1  0.50847744  0.50634580  0.62157211  1
  O  O334  1  0.24468344  0.38482914  0.24372093  1
  O  O335  1  0.24123427  0.38266945  0.74521600  1
  O  O336  1  0.24028620  0.88121366  0.23832005  1
  O  O337  1  0.23493396  0.88567020  0.75719248  1
  O  O338  1  0.76817522  0.38641769  0.24740299  1
  O  O339  1  0.76681959  0.37420749  0.74591555  1
  O  O340  1  0.73954509  0.87849986  0.24807474  1
  O  O341  1  0.74181972  0.87350750  0.74242415  1
  O  O342  1  0.24431038  0.11646830  0.26217577  1
  O  O343  1  0.25200690  0.12150095  0.75583872  1
  O  O344  1  0.23962660  0.61962453  0.24509476  1
  O  O345  1  0.24479401  0.61204491  0.75531072  1
  O  O346  1  0.76063569  0.12645862  0.25598133  1
  O  O347  1  0.76230286  0.12622309  0.76799508  1
  O  O348  1  0.76205524  0.59654128  0.23742600  1
  O  O349  1  0.75262939  0.62523697  0.76251891  1
  O  O350  1  0.35816141  0.12220366  0.37658856  1
  O  O351  1  0.36268219  0.12201679  0.86813861  1
  O  O352  1  0.37722835  0.62984225  0.38193105  1
  O  O353  1  0.36506411  0.61418246  0.87711059  1
  O  O354  1  0.86131179  0.12364308  0.37093093  1
  O  O355  1  0.87057856  0.12254753  0.87291425  1
  O  O356  1  0.88470785  0.60671523  0.37502894  1
  O  O357  1  0.86054685  0.63363463  0.86531371  1
  O  O358  1  0.13906731  0.37801907  0.12844218  1
  O  O359  1  0.12906151  0.38404204  0.63116680  1
  O  O360  1  0.13384080  0.87279901  0.12771574  1
  O  O361  1  0.11356796  0.88417889  0.63713140  1
  O  O362  1  0.61745875  0.38483654  0.11902695  1
  O  O363  1  0.62141108  0.39038778  0.61750910  1
  O  O364  1  0.61932540  0.89329887  0.12958964  1
  O  O365  1  0.63107002  0.87088977  0.63522285  1
  O  O366  1  0.13281913  0.26930213  0.24725554  1
  O  O367  1  0.11361728  0.26153788  0.74152054  1
  O  O368  1  0.11286561  0.76524112  0.24423132  1
  O  O369  1  0.13220362  0.76408168  0.74293233  1
  O  O370  1  0.62274310  0.24943018  0.25738765  1
  O  O371  1  0.60773722  0.20531857  0.76356618  1
  O  O372  1  0.62285491  0.77059921  0.22665248  1
  O  O373  1  0.62683233  0.76457000  0.76305950  1
  O  O374  1  0.36698409  0.24819424  0.23411126  1
  O  O375  1  0.37197334  0.24441458  0.73904164  1
  O  O376  1  0.37540218  0.75429225  0.22948618  1
  O  O377  1  0.37052302  0.75078292  0.73203684  1
  O  O378  1  0.87737950  0.23443689  0.25148283  1
  O  O379  1  0.88783719  0.23516054  0.75269789  1
  O  O380  1  0.88998261  0.74996152  0.24545842  1
  O  O381  1  0.86957732  0.73718285  0.73781886  1
  O  O382  1  0.37651640  0.49694875  0.48665001  1
  O  O383  1  0.37546293  0.49381237  0.99138100  1
  O  O384  1  0.39299304  1.00507257  0.49924150  1
  O  O385  1  0.37803806  0.99372082  0.99358914  1
  O  O386  1  0.88303712  0.49433515  0.49284754  1
  O  O387  1  0.88479467  0.48717731  0.99942315  1
  O  O388  1  0.88012138  0.98772176  0.49921133  1
  O  O389  1  0.88037016  0.98544066  0.99764470  1
  O  O390  1  0.12059893  0.01025865  -0.00434800  1
  O  O391  1  0.11357653  0.00416035  0.51031035  1
  O  O392  1  0.11534644  0.49887984  0.00095270  1
  O  O393  1  0.12062427  0.50676122  0.50967125  1
  O  O394  1  0.61646685  0.00500435  0.01039430  1
  O  O395  1  0.61674928  0.01190265  0.50024565  1
  O  O396  1  0.60962062  0.50745910  0.00212159  1
  O  O397  1  0.61554442  0.50596037  0.50622826  1
  O  O398  1  0.36588797  0.36939128  0.11464424  1
  O  O399  1  0.36824589  0.36525756  0.62429643  1
  O  O400  1  0.36626491  0.87255346  0.11359823  1
  O  O401  1  0.38013497  0.87033495  0.62432392  1
  O  O402  1  0.88804368  0.37492014  0.11102093  1
  O  O403  1  0.87994232  0.37565562  0.60990931  1
  O  O404  1  0.88014160  0.87017850  0.10621743  1
  O  O405  1  0.86719139  0.86583609  0.62012001  1
  O  O406  1  0.13514964  0.11693927  0.38479693  1
  O  O407  1  0.13687762  0.12447902  0.88180781  1
  O  O408  1  0.11567891  0.62333879  0.39061774  1
  O  O409  1  0.13556763  0.62283409  0.87141701  1
  O  O410  1  0.63230389  0.13320297  0.37936645  1
  O  O411  1  0.63881674  0.11423978  0.89090907  1
  O  O412  1  0.61835151  0.62212030  0.39559648  1
  O  O413  1  0.63580614  0.63732565  0.86971349  1
