# generated using pymatgen
data_V79Zn79O256
_symmetry_space_group_name_H-M   'P 1'
_cell_length_a   16.89302033
_cell_length_b   16.86706890
_cell_length_c   16.88439130
_cell_angle_alpha   90.25352715
_cell_angle_beta   90.00313956
_cell_angle_gamma   90.06132062
_symmetry_Int_Tables_number   1
_chemical_formula_structural   V79Zn79O256
_chemical_formula_sum   'V79 Zn79 O256'
_cell_volume   4810.91662949
_cell_formula_units_Z   1
loop_
 _symmetry_equiv_pos_site_id
 _symmetry_equiv_pos_as_xyz
  1  'x, y, z'
loop_
 _atom_site_type_symbol
 _atom_site_label
 _atom_site_symmetry_multiplicity
 _atom_site_fract_x
 _atom_site_fract_y
 _atom_site_fract_z
 _atom_site_occupancy
  V  V0  1  0.37416043  0.75091942  0.12715471  1
  V  V1  1  0.60893446  0.87908878  0.74841513  1
  V  V2  1  0.15019861  0.87727248  0.75014152  1
  V  V3  1  0.35739553  0.87265637  0.49754174  1
  V  V4  1  0.12914592  0.73834557  0.88127862  1
  V  V5  1  0.74903804  0.25029532  0.49882916  1
  V  V6  1  0.12603667  0.37527246  0.24303738  1
  V  V7  1  0.61021296  0.75468404  0.87010439  1
  V  V8  1  -0.00527403  0.88110669  0.86924414  1
  V  V9  1  0.87849806  0.23769277  0.62187982  1
  V  V10  1  0.75370857  0.37282988  0.62327174  1
  V  V11  1  0.37604828  0.62093523  0.25537959  1
  V  V12  1  0.89767283  -0.00234028  0.37904201  1
  V  V13  1  0.50164938  0.62667523  0.12596461  1
  V  V14  1  0.62276322  0.36954503  0.24782169  1
  V  V15  1  0.75460030  0.62695019  0.37903050  1
  V  V16  1  0.87592334  0.12642477  0.24658971  1
  V  V17  1  0.00395048  0.61522352  0.62488537  1
  V  V18  1  0.25931868  0.26509292  0.00203474  1
  V  V19  1  0.62689204  0.50107831  0.12636423  1
  V  V20  1  -0.00156506  0.74862969  0.74616689  1
  V  V21  1  0.37562291  0.12214469  0.74516605  1
  V  V22  1  0.87505915  0.36274571  0.00637329  1
  V  V23  1  0.63017763  0.62351578  -0.00729272  1
  V  V24  1  0.50349191  0.50000956  0.50055841  1
  V  V25  1  0.86582921  0.62994718  0.75304007  1
  V  V26  1  0.75474784  0.87197009  0.12196961  1
  V  V27  1  0.37765171  0.26334134  0.12807507  1
  V  V28  1  0.87745888  0.49010246  0.39465281  1
  V  V29  1  0.13299556  0.23767641  0.36999739  1
  V  V30  1  0.74713483  0.88525571  0.62439707  1
  V  V31  1  0.09960927  0.75306816  0.37673676  1
  V  V32  1  0.89387158  0.87636768  0.50516343  1
  V  V33  1  0.75362377  0.74924959  -0.00816958  1
  V  V34  1  0.00125394  0.37761567  0.87646206  1
  V  V35  1  0.36488079  0.00439966  0.37159194  1
  V  V36  1  0.25239306  0.12133345  0.87056938  1
  V  V37  1  0.37497351  0.87441132  -0.00364882  1
  V  V38  1  0.50065417  0.37727827  0.37203520  1
  V  V39  1  0.50896871  -0.00713761  0.49638913  1
  V  V40  1  0.12316539  0.52119905  0.12975808  1
  V  V41  1  0.62851708  0.63137386  0.50470128  1
  V  V42  1  0.63388714  0.13055404  -0.00596419  1
  V  V43  1  0.62579020  0.86177845  0.25624325  1
  V  V44  1  0.37672773  0.37941891  0.49463403  1
  V  V45  1  0.75275368  0.36158822  0.12177585  1
  V  V46  1  0.25058068  0.49845668  0.25327565  1
  V  V47  1  0.13066625  0.00148305  0.13204933  1
  V  V48  1  0.25360769  0.50594571  0.76689387  1
  V  V49  1  0.37547466  0.25020676  0.62327445  1
  V  V50  1  0.00269851  0.51733099  0.00755381  1
  V  V51  1  0.36631814  0.75284857  0.62367200  1
  V  V52  1  0.24803334  0.73477446  -0.00034811  1
  V  V53  1  0.48508769  0.49133922  -0.00342125  1
  V  V54  1  0.87438865  0.88095628  -0.00516776  1
  V  V55  1  0.86869020  0.12512696  0.77016090  1
  V  V56  1  0.38024733  0.62513180  0.75956960  1
  V  V57  1  0.75213071  0.75387449  0.50716688  1
  V  V58  1  0.11760712  0.12005284  0.51083739  1
  V  V59  1  0.12600573  0.38129561  0.74341729  1
  V  V60  1  0.24922699  0.38309854  0.62138432  1
  V  V61  1  0.74692963  0.11988845  0.37893733  1
  V  V62  1  0.74660962  0.49319547  0.76092270  1
  V  V63  1  0.37641841  -0.00286050  0.87032769  1
  V  V64  1  0.62593406  0.49237151  0.62976240  1
  V  V65  1  0.12971369  0.25375914  0.87360938  1
  V  V66  1  0.49562224  0.12807804  0.13281626  1
  V  V67  1  0.62145724  0.24479117  0.37540565  1
  V  V68  1  0.75928756  0.50219987  0.25077548  1
  V  V69  1  0.48625856  0.37124121  0.87061943  1
  V  V70  1  -0.00506080  0.13062589  0.12063664  1
  V  V71  1  0.12540025  0.12379843  -0.00601843  1
  V  V72  1  0.51101669  0.12014563  0.61582222  1
  V  V73  1  0.49845477  -0.00226787  -0.00430734  1
  V  V74  1  0.25394538  0.63692056  0.38153307  1
  V  V75  1  0.62530656  -0.00049701  0.12687324  1
  V  V76  1  0.75259526  0.00054354  0.76697226  1
  V  V77  1  0.63667181  0.25433873  0.87336882  1
  V  V78  1  -0.00412112  0.25171326  0.24627819  1
  Zn  Zn79  1  -0.00477519  0.00689026  -0.01021433  1
  Zn  Zn80  1  0.87002953  0.50351832  0.88155525  1
  Zn  Zn81  1  0.50834253  0.25539979  0.74539200  1
  Zn  Zn82  1  0.12497676  0.87375542  0.26153177  1
  Zn  Zn83  1  0.25634800  0.24295720  0.48727297  1
  Zn  Zn84  1  0.25194153  0.88389493  0.12862536  1
  Zn  Zn85  1  0.02107786  0.47343261  0.52523386  1
  Zn  Zn86  1  0.13965775  0.62266781  0.51065359  1
  Zn  Zn87  1  -0.00316364  0.36887907  0.38522171  1
  Zn  Zn88  1  0.00944204  0.24112046  0.74534411  1
  Zn  Zn89  1  0.50532021  0.63681042  0.63404577  1
  Zn  Zn90  1  0.75312407  -0.00332219  0.25151312  1
  Zn  Zn91  1  0.13006213  -0.00785210  0.62527341  1
  Zn  Zn92  1  0.48772463  0.77263513  0.28746823  1
  Zn  Zn93  1  0.36235950  0.12731898  0.25137192  1
  Zn  Zn94  1  0.18855487  0.19182959  0.18035283  1
  Zn  Zn95  1  0.19527689  0.18338926  0.68089280  1
  Zn  Zn96  1  0.18880916  0.69596708  0.19726934  1
  Zn  Zn97  1  0.18773944  0.68769182  0.69046954  1
  Zn  Zn98  1  0.68645157  0.18230745  0.18865027  1
  Zn  Zn99  1  0.68998264  0.18506472  0.69047923  1
  Zn  Zn100  1  0.73099020  0.70779560  0.20693743  1
  Zn  Zn101  1  0.68851753  0.69158831  0.68690838  1
  Zn  Zn102  1  0.31374989  0.31681463  0.30608170  1
  Zn  Zn103  1  0.31318241  0.31197879  0.80766062  1
  Zn  Zn104  1  0.30591764  0.82146570  0.31104010  1
  Zn  Zn105  1  0.32150464  0.80160380  0.81802626  1
  Zn  Zn106  1  0.80981076  0.31344729  0.31105288  1
  Zn  Zn107  1  0.81404880  0.31423259  0.81335385  1
  Zn  Zn108  1  0.83066818  0.80904287  0.32095112  1
  Zn  Zn109  1  0.80723596  0.81217841  0.81252115  1
  Zn  Zn110  1  0.18792027  0.43364113  0.43385118  1
  Zn  Zn111  1  0.18518681  0.44645307  0.94322827  1
  Zn  Zn112  1  0.17647256  0.93371202  0.44417955  1
  Zn  Zn113  1  0.18850356  0.93220017  0.93398617  1
  Zn  Zn114  1  0.68880843  0.43697625  0.43855005  1
  Zn  Zn115  1  0.68232460  0.42889780  0.93926807  1
  Zn  Zn116  1  0.68947964  0.93502996  0.43554418  1
  Zn  Zn117  1  0.68162078  0.93494993  0.93682113  1
  Zn  Zn118  1  0.31246065  0.07124185  0.05900712  1
  Zn  Zn119  1  0.29961590  0.05835984  0.55450775  1
  Zn  Zn120  1  0.30995983  0.55898522  0.06912388  1
  Zn  Zn121  1  0.31824243  0.56363732  0.56842628  1
  Zn  Zn122  1  0.81215348  0.06012791  0.05695552  1
  Zn  Zn123  1  0.81298749  0.05939104  0.56134295  1
  Zn  Zn124  1  0.80135312  0.54649263  0.04768381  1
  Zn  Zn125  1  0.81618347  0.56402426  0.57091455  1
  Zn  Zn126  1  0.43980407  0.44111635  0.18777159  1
  Zn  Zn127  1  0.43665878  0.44024436  0.68983452  1
  Zn  Zn128  1  0.44041752  0.93756195  0.18820331  1
  Zn  Zn129  1  0.42842301  0.93932289  0.67813712  1
  Zn  Zn130  1  0.94044010  0.43803177  0.18610892  1
  Zn  Zn131  1  0.93099897  0.43423667  0.69052398  1
  Zn  Zn132  1  0.93964425  0.94550443  0.18086336  1
  Zn  Zn133  1  0.93750802  0.94300047  0.68039186  1
  Zn  Zn134  1  0.19297550  0.05737856  0.30913979  1
  Zn  Zn135  1  0.04590388  0.04324297  0.77012552  1
  Zn  Zn136  1  0.08325701  0.54181016  0.35346280  1
  Zn  Zn137  1  0.06123367  0.56055625  0.81098710  1
  Zn  Zn138  1  0.55703984  0.05571617  0.31436273  1
  Zn  Zn139  1  0.56201056  0.06489918  0.80847704  1
  Zn  Zn140  1  0.55038394  0.59630492  0.33290349  1
  Zn  Zn141  1  0.56140522  0.55828549  0.81644965  1
  Zn  Zn142  1  0.43862004  0.18523845  0.43457918  1
  Zn  Zn143  1  0.44212378  0.18705554  0.94027459  1
  Zn  Zn144  1  0.43810606  0.69114580  0.44619906  1
  Zn  Zn145  1  0.43777793  0.68318969  0.94173556  1
  Zn  Zn146  1  0.93863079  0.18819948  0.43334117  1
  Zn  Zn147  1  0.93777340  0.18825144  0.93063427  1
  Zn  Zn148  1  0.93059795  0.68491471  0.44354904  1
  Zn  Zn149  1  0.93395858  0.69296694  0.93167439  1
  Zn  Zn150  1  0.06492626  0.31607165  0.06160264  1
  Zn  Zn151  1  0.06232238  0.29841418  0.56040473  1
  Zn  Zn152  1  0.06141367  0.81597403  0.05879421  1
  Zn  Zn153  1  0.07680468  0.80311921  0.56733849  1
  Zn  Zn154  1  0.56049765  0.31188586  0.05967550  1
  Zn  Zn155  1  0.56581127  0.30999618  0.56071855  1
  Zn  Zn156  1  0.56418526  0.81113457  0.06284442  1
  Zn  Zn157  1  0.55504771  0.81466323  0.56686877  1
  O  O158  1  0.11695214  0.12077279  0.11228069  1
  O  O159  1  0.11505112  0.14856823  0.61111051  1
  O  O160  1  0.11911067  0.62011057  0.13656603  1
  O  O161  1  0.11080853  0.62645284  0.62689921  1
  O  O162  1  0.61799060  0.11967164  0.11628352  1
  O  O163  1  0.60943467  0.12919198  0.62716779  1
  O  O164  1  0.61616544  0.61552759  0.11429055  1
  O  O165  1  0.62589529  0.61446980  0.62063179  1
  O  O166  1  0.38732912  0.36885627  0.38250612  1
  O  O167  1  0.38628929  0.36962596  0.87635392  1
  O  O168  1  0.37324526  0.88011137  0.38903290  1
  O  O169  1  0.37142583  0.88395593  0.88418224  1
  O  O170  1  0.87324761  0.38595885  0.37348193  1
  O  O171  1  0.88453121  0.37877844  0.88464402  1
  O  O172  1  0.87581881  0.88795376  0.38720099  1
  O  O173  1  0.88723196  0.86875085  0.87809361  1
  O  O174  1  0.25880272  -0.00660535  0.37903443  1
  O  O175  1  0.26322521  0.01210431  0.88371575  1
  O  O176  1  0.24291903  0.51124560  0.35884767  1
  O  O177  1  0.25087596  0.49925613  0.86633146  1
  O  O178  1  0.75096460  0.01076831  0.37247180  1
  O  O179  1  0.75197902  -0.00659464  0.86604109  1
  O  O180  1  0.76189448  0.49916996  0.37130966  1
  O  O181  1  0.74543905  0.49445590  0.86450851  1
  O  O182  1  0.23125996  0.50845908  0.13482720  1
  O  O183  1  0.25163685  0.48643472  0.62744590  1
  O  O184  1  0.23366957  1.00863273  0.11386911  1
  O  O185  1  0.23781786  1.02306635  0.63918842  1
  O  O186  1  0.74344120  0.49382972  0.13101590  1
  O  O187  1  0.74549557  0.49084438  0.63238365  1
  O  O188  1  0.73905031  0.99360665  0.12325950  1
  O  O189  1  0.74637258  0.98980079  0.62845866  1
  O  O190  1  0.00347550  0.36372318  0.24746565  1
  O  O191  1  0.00838409  0.37666205  0.76035129  1
  O  O192  1  0.00944684  0.85563391  0.21357383  1
  O  O193  1  -0.00651262  0.86461267  0.76010638  1
  O  O194  1  0.51100127  0.38451199  0.25966372  1
  O  O195  1  0.49896493  0.37756804  0.76523509  1
  O  O196  1  0.51751259  0.87025641  0.24065771  1
  O  O197  1  0.51080418  0.88505963  0.74398585  1
  O  O198  1  0.49759570  0.12005069  0.23593305  1
  O  O199  1  0.49107046  0.12508011  0.73620676  1
  O  O200  1  0.49211384  0.60908398  0.23332357  1
  O  O201  1  0.48509548  0.60882432  0.74816166  1
  O  O202  1  0.99020926  0.13510894  0.23689671  1
  O  O203  1  0.97607537  0.13260007  0.77058988  1
  O  O204  1  0.96858499  0.64019727  0.22239457  1
  O  O205  1  0.99328292  0.62853535  0.74543496  1
  O  O206  1  0.36418415  0.24695216  0.00537810  1
  O  O207  1  0.37669383  0.26025921  0.50531322  1
  O  O208  1  0.36903703  0.75519582  0.00495244  1
  O  O209  1  0.37462702  0.76240746  0.50681907  1
  O  O210  1  0.87851546  0.26418228  -0.00321913  1
  O  O211  1  0.86543080  0.24158441  0.51325175  1
  O  O212  1  0.86528441  0.76229110  -0.00640686  1
  O  O213  1  0.86744113  0.76957336  0.49644556  1
  O  O214  1  0.12880049  0.24890001  0.47803981  1
  O  O215  1  0.13532969  0.24635566  0.99294087  1
  O  O216  1  0.11800899  0.73727911  0.48470653  1
  O  O217  1  0.13081685  0.75328345  0.99046360  1
  O  O218  1  0.63535199  0.25115281  0.48717058  1
  O  O219  1  0.62008105  0.23662342  0.99386321  1
  O  O220  1  0.63158076  0.73821908  0.51059492  1
  O  O221  1  0.62759089  0.74420421  0.98819960  1
  O  O222  1  0.48611168  0.24230836  0.11455403  1
  O  O223  1  0.49328867  0.24188532  0.62268241  1
  O  O224  1  0.48982252  0.73763408  0.11599878  1
  O  O225  1  0.48153627  0.74890781  0.62216291  1
  O  O226  1  1.00631613  0.24017595  0.12984170  1
  O  O227  1  0.98093698  0.25334413  0.63255226  1
  O  O228  1  1.00491101  0.79431190  0.15875741  1
  O  O229  1  1.00429461  0.73946581  0.64149041  1
  O  O230  1  0.01004172  0.24874444  0.35973394  1
  O  O231  1  0.01177109  0.26291461  0.87508144  1
  O  O232  1  -0.00006064  0.73903622  0.37081449  1
  O  O233  1  0.01095531  0.75605610  0.86815536  1
  O  O234  1  0.51122822  0.26116518  0.38068035  1
  O  O235  1  0.50316218  0.26050890  0.87530226  1
  O  O236  1  0.51487369  0.70366997  0.36661112  1
  O  O237  1  0.51096234  0.74954230  0.87972106  1
  O  O238  1  0.23059382  0.13175651  0.49768457  1
  O  O239  1  0.24323205  0.13707037  0.98787700  1
  O  O240  1  0.25796763  0.61389991  0.48387514  1
  O  O241  1  0.25548211  0.63514876  1.00136026  1
  O  O242  1  0.75358649  0.13279322  0.48785204  1
  O  O243  1  0.73280908  0.12110357  1.00271629  1
  O  O244  1  0.74830120  0.63324256  0.50439132  1
  O  O245  1  0.74128403  0.63275442  1.00660194  1
  O  O246  1  0.24675816  0.36382807  -0.00520112  1
  O  O247  1  0.26008638  0.37400344  0.50290584  1
  O  O248  1  0.26238379  0.86841249  0.00419909  1
  O  O249  1  0.25835689  0.87618849  0.50449236  1
  O  O250  1  0.76671735  0.38522464  0.00717898  1
  O  O251  1  0.74845355  0.36266150  0.50876067  1
  O  O252  1  0.75564806  0.87141217  0.00094065  1
  O  O253  1  0.74724036  0.86912090  0.50821190  1
  O  O254  1  0.12551641  0.49752230  0.24380017  1
  O  O255  1  0.13769216  0.49016420  0.75477845  1
  O  O256  1  0.12079972  0.99620656  0.23487907  1
  O  O257  1  0.14034955  0.97775187  0.77003606  1
  O  O258  1  0.63305315  0.48790336  0.23695052  1
  O  O259  1  0.63866210  0.50955915  0.74254815  1
  O  O260  1  0.62330438  0.99389876  0.23681865  1
  O  O261  1  0.63505036  0.98636513  0.75897241  1
  O  O262  1  0.38104442  -0.00560805  0.26897145  1
  O  O263  1  0.38069687  0.00954870  0.75868467  1
  O  O264  1  0.36267768  0.50938159  0.23747242  1
  O  O265  1  0.36152806  0.50862260  0.74677373  1
  O  O266  1  0.87793696  0.00599372  0.26176984  1
  O  O267  1  0.86283722  0.01257366  0.74997690  1
  O  O268  1  0.86132563  0.49731368  0.24637329  1
  O  O269  1  0.86069968  0.50549370  0.75495285  1
  O  O270  1  0.11860788  0.37004076  0.35788174  1
  O  O271  1  0.12194663  0.37098853  0.86974873  1
  O  O272  1  0.11627009  0.85946356  0.38174546  1
  O  O273  1  0.11523468  0.86343679  0.86866817  1
  O  O274  1  0.62174789  0.36767136  0.36759375  1
  O  O275  1  0.61257945  0.35841571  0.88463453  1
  O  O276  1  0.63242757  0.87582512  0.35520805  1
  O  O277  1  0.62162138  0.86435300  0.86527655  1
  O  O278  1  0.38323687  0.13149785  0.12495133  1
  O  O279  1  0.37901925  0.13477343  0.62899400  1
  O  O280  1  0.38128378  0.63228531  0.13129706  1
  O  O281  1  0.38096700  0.63328064  0.63210416  1
  O  O282  1  0.88265528  0.11427021  0.13249344  1
  O  O283  1  0.86703565  0.13457798  0.63336734  1
  O  O284  1  0.91728142  0.66531890  0.17805166  1
  O  O285  1  0.88655584  0.62043526  0.64453799  1
  O  O286  1  0.26011802  0.25052130  0.10925637  1
  O  O287  1  0.26414588  0.26250207  0.62443568  1
  O  O288  1  0.26170346  0.74769578  0.11838645  1
  O  O289  1  0.26493235  0.73929961  0.62292156  1
  O  O290  1  0.74510538  0.26236088  0.12689946  1
  O  O291  1  0.75141129  0.25268042  0.61744651  1
  O  O292  1  0.73632041  0.76437191  0.10329250  1
  O  O293  1  0.75133354  0.76198768  0.61637907  1
  O  O294  1  0.23624840  0.25643162  0.36649391  1
  O  O295  1  0.24769862  0.24636387  0.88250951  1
  O  O296  1  0.26022168  0.73736064  0.37810486  1
  O  O297  1  0.23697121  0.75229108  0.88413708  1
  O  O298  1  0.74465302  0.24279391  0.38051382  1
  O  O299  1  0.73604248  0.25951066  0.87812065  1
  O  O300  1  0.75561131  0.73835176  0.39253473  1
  O  O301  1  0.73697106  0.75386602  0.88565542  1
  O  O302  1  0.00668204  0.12968421  0.00114828  1
  O  O303  1  0.01873092  0.13571751  0.49040224  1
  O  O304  1  -0.00605743  0.61572029  -0.00180646  1
  O  O305  1  -0.01195862  0.62505286  0.52412316  1
  O  O306  1  0.50567125  0.11456747  0.00954787  1
  O  O307  1  0.49599964  0.11734680  0.51008530  1
  O  O308  1  0.50670946  0.61149494  0.00573864  1
  O  O309  1  0.51013510  0.61235787  0.50503973  1
  O  O310  1  0.49733985  0.38002679  0.49285330  1
  O  O311  1  0.49933328  0.38618565  0.99507195  1
  O  O312  1  0.48919621  0.88948709  0.50737190  1
  O  O313  1  0.48925367  0.88623008  1.00621460  1
  O  O314  1  0.99920334  0.36795669  0.49927603  1
  O  O315  1  0.99145920  0.38103113  0.99617953  1
  O  O316  1  0.99159350  0.87045936  0.51396817  1
  O  O317  1  0.99229421  0.87439105  0.98471701  1
  O  O318  1  0.51227743  0.49035984  0.38952803  1
  O  O319  1  0.50575617  0.48697382  0.88903254  1
  O  O320  1  0.48644875  1.00490527  0.39055985  1
  O  O321  1  0.48905462  1.00839108  0.88498497  1
  O  O322  1  0.97794260  0.50036808  0.36640885  1
  O  O323  1  1.00816323  0.49105988  0.89090746  1
  O  O324  1  0.99268345  1.00099372  0.37530591  1
  O  O325  1  1.00421503  0.98328346  0.86863752  1
  O  O326  1  0.01128549  0.01413269  0.11459360  1
  O  O327  1  0.02278879  0.01071343  0.66115794  1
  O  O328  1  0.00709417  0.50372024  0.11676002  1
  O  O329  1  -0.00049639  0.50825117  0.63395551  1
  O  O330  1  0.50616696  0.00693260  0.11611638  1
  O  O331  1  0.49282660  0.01298591  0.61317052  1
  O  O332  1  0.50802815  0.50262699  0.11247395  1
  O  O333  1  0.51220978  0.49266973  0.61718454  1
  O  O334  1  0.24107016  0.38770406  0.25117395  1
  O  O335  1  0.24664850  0.38554918  0.74396847  1
  O  O336  1  0.23920365  0.87365602  0.24006447  1
  O  O337  1  0.24840123  0.86466964  0.75516845  1
  O  O338  1  0.74258823  0.38136165  0.24123427  1
  O  O339  1  0.75069785  0.38809520  0.74462776  1
  O  O340  1  0.73913836  0.87917284  0.23631614  1
  O  O341  1  0.75138230  0.88625765  0.74301927  1
  O  O342  1  0.24991136  0.12262458  0.24018869  1
  O  O343  1  0.26212370  0.13611740  0.76214467  1
  O  O344  1  0.26008753  0.62162178  0.25771450  1
  O  O345  1  0.25560784  0.61042360  0.74725919  1
  O  O346  1  0.76069882  0.12322848  0.25644096  1
  O  O347  1  0.75137752  0.10760785  0.74916650  1
  O  O348  1  0.73504192  0.60990694  0.26700787  1
  O  O349  1  0.76070050  0.61719089  0.74509524  1
  O  O350  1  0.37272958  0.11171608  0.37412998  1
  O  O351  1  0.37169488  0.12010050  0.86732000  1
  O  O352  1  0.36834938  0.62338280  0.36325031  1
  O  O353  1  0.37534494  0.63304983  0.85964913  1
  O  O354  1  0.86993949  0.11399935  0.36888550  1
  O  O355  1  0.85664127  0.13452119  0.86940527  1
  O  O356  1  0.86167303  0.60894563  0.38524017  1
  O  O357  1  0.88163640  0.61809793  0.85972662  1
  O  O358  1  0.11935206  0.38385881  0.13770889  1
  O  O359  1  0.13468435  0.36274910  0.63531481  1
  O  O360  1  0.12667511  0.90018184  0.10580441  1
  O  O361  1  0.12566448  0.86988045  0.64712202  1
  O  O362  1  0.63070440  0.37996984  0.12673554  1
  O  O363  1  0.63616484  0.38157044  0.62409138  1
  O  O364  1  0.63208703  0.88470540  0.12299460  1
  O  O365  1  0.63190523  0.86715623  0.64288149  1
  O  O366  1  0.11831982  0.25543412  0.25187199  1
  O  O367  1  0.12953693  0.26041407  0.75970185  1
  O  O368  1  0.12562137  0.75225382  0.27132393  1
  O  O369  1  0.12081354  0.75688656  0.76235119  1
  O  O370  1  0.63079221  0.26194505  0.25706828  1
  O  O371  1  0.62301962  0.24000131  0.76809668  1
  O  O372  1  0.63147392  0.76106339  0.24025161  1
  O  O373  1  0.62791156  0.75847170  0.76207463  1
  O  O374  1  0.36976304  0.24879957  0.23193124  1
  O  O375  1  0.38084747  0.24264395  0.73969044  1
  O  O376  1  0.37927677  0.74273166  0.24184123  1
  O  O377  1  0.37201578  0.73497793  0.73993412  1
  O  O378  1  0.88229999  0.23835161  0.25737868  1
  O  O379  1  0.86152119  0.23590044  0.74169618  1
  O  O380  1  0.83541798  0.74624959  0.23262651  1
  O  O381  1  0.88033128  0.73700790  0.75837042  1
  O  O382  1  0.38893501  0.48737539  0.50784099  1
  O  O383  1  0.38655751  0.50272318  1.00470981  1
  O  O384  1  0.37553031  0.98997001  0.49336292  1
  O  O385  1  0.38018884  0.99472196  0.99379548  1
  O  O386  1  0.87693787  0.49528619  0.49612844  1
  O  O387  1  0.88950728  0.49451320  1.00053300  1
  O  O388  1  0.87632217  0.99165519  0.48930405  1
  O  O389  1  0.87688181  0.98812046  0.99349641  1
  O  O390  1  0.12255488  0.01679990  -0.00921038  1
  O  O391  1  0.12268848  0.01401152  0.50597196  1
  O  O392  1  0.11496123  0.50157267  0.01685863  1
  O  O393  1  0.11223984  0.51398778  0.46973828  1
  O  O394  1  0.61699415  0.00725072  0.00434974  1
  O  O395  1  0.60861867  -0.00554638  0.49355508  1
  O  O396  1  0.62600105  0.50546637  0.00891294  1
  O  O397  1  0.62373478  0.50342546  0.51308209  1
  O  O398  1  0.38223132  0.36302398  0.12495825  1
  O  O399  1  0.37183793  0.36911417  0.61693181  1
  O  O400  1  0.37671710  0.86589839  0.11751048  1
  O  O401  1  0.37085750  0.86353543  0.61634678  1
  O  O402  1  0.87010489  0.37641207  0.11367555  1
  O  O403  1  0.86069399  0.35806190  0.63616167  1
  O  O404  1  0.86184364  0.88687850  0.11260401  1
  O  O405  1  0.86607218  0.88565550  0.61007936  1
  O  O406  1  0.12762503  0.13599303  0.37053375  1
  O  O407  1  0.13395461  0.13945874  0.87657624  1
  O  O408  1  0.14259209  0.63953133  0.36993642  1
  O  O409  1  0.12019733  0.63930929  0.87187469  1
  O  O410  1  0.63350520  0.13472800  0.36099759  1
  O  O411  1  0.61742208  0.13325751  0.88780170  1
  O  O412  1  0.64497013  0.60567263  0.39801530  1
  O  O413  1  0.61973053  0.63409062  0.88513315  1
