# generated using pymatgen
data_V79Zn79O256
_symmetry_space_group_name_H-M   'P 1'
_cell_length_a   16.92248927
_cell_length_b   16.95731756
_cell_length_c   16.98616504
_cell_angle_alpha   89.70649251
_cell_angle_beta   89.97987319
_cell_angle_gamma   90.03983728
_symmetry_Int_Tables_number   1
_chemical_formula_structural   V79Zn79O256
_chemical_formula_sum   'V79 Zn79 O256'
_cell_volume   4874.28489486
_cell_formula_units_Z   1
loop_
 _symmetry_equiv_pos_site_id
 _symmetry_equiv_pos_as_xyz
  1  'x, y, z'
loop_
 _atom_site_type_symbol
 _atom_site_label
 _atom_site_symmetry_multiplicity
 _atom_site_fract_x
 _atom_site_fract_y
 _atom_site_fract_z
 _atom_site_occupancy
  V  V0  1  0.87675887  0.23877645  0.12476849  1
  V  V1  1  0.12311917  0.11730698  0.02286540  1
  V  V2  1  0.35402871  0.61742873  0.75256653  1
  V  V3  1  -0.00437921  0.61946295  0.12047970  1
  V  V4  1  0.37271337  0.25573798  0.12338940  1
  V  V5  1  0.12433200  0.62737398  0.48889550  1
  V  V6  1  0.37237563  0.24998647  0.62414651  1
  V  V7  1  0.37373404  0.49829526  0.37202428  1
  V  V8  1  0.75936929  0.75058012  0.50240850  1
  V  V9  1  0.00245579  -0.00392813  0.01573760  1
  V  V10  1  0.62527732  0.24946944  0.87297878  1
  V  V11  1  0.73579086  0.49198431  0.25278985  1
  V  V12  1  0.00001135  0.50110442  0.49536012  1
  V  V13  1  0.75344677  0.76733971  -0.00412265  1
  V  V14  1  0.87965605  -0.00417276  0.88158654  1
  V  V15  1  0.05916786  0.06488868  0.55747186  1
  V  V16  1  0.36934034  0.75452651  0.62220125  1
  V  V17  1  0.50554321  0.00366035  0.49600371  1
  V  V18  1  0.63223912  0.37881089  0.74439087  1
  V  V19  1  0.23825342  -0.01151969  0.24292009  1
  V  V20  1  0.74315525  0.37210860  0.14231082  1
  V  V21  1  0.75383081  0.25764709  -0.00031107  1
  V  V22  1  0.24374635  0.37663755  0.63130741  1
  V  V23  1  0.87292528  0.62156947  0.24952412  1
  V  V24  1  0.49491868  0.49457526  -0.00142292  1
  V  V25  1  0.12276800  0.36759056  0.25100118  1
  V  V26  1  0.37366649  0.12111554  0.75070563  1
  V  V27  1  0.49794842  0.87440909  0.37294370  1
  V  V28  1  0.13403220  0.76008827  0.86434088  1
  V  V29  1  0.24173938  -0.01268647  0.73911858  1
  V  V30  1  0.74932435  0.62243031  0.37676714  1
  V  V31  1  0.49997837  0.49995273  0.50064875  1
  V  V32  1  0.49849282  0.12137293  0.11813281  1
  V  V33  1  0.63737268  0.61195605  -0.00842715  1
  V  V34  1  0.37312555  0.00555780  0.36941821  1
  V  V35  1  0.86960223  0.76137279  0.12148842  1
  V  V36  1  0.62559736  0.74927385  0.37424461  1
  V  V37  1  0.51200490  0.25191896  0.25198645  1
  V  V38  1  0.72585437  0.25822469  0.49892693  1
  V  V39  1  0.87393530  0.48937882  0.37792341  1
  V  V40  1  0.63874251  0.49961054  0.62652807  1
  V  V41  1  0.37103463  0.37329244  0.49834334  1
  V  V42  1  0.75270242  0.01015242  0.25540106  1
  V  V43  1  0.01117330  0.75778202  0.25597096  1
  V  V44  1  0.00945476  0.87893918  0.86214596  1
  V  V45  1  0.25253790  0.86460002  0.11905926  1
  V  V46  1  0.63071372  0.87512097  0.24355415  1
  V  V47  1  0.13041233  0.50573362  0.61799281  1
  V  V48  1  0.49908852  0.74875402  0.23996934  1
  V  V49  1  0.87005360  0.27232813  0.61801758  1
  V  V50  1  0.62499121  -0.00480905  0.11551056  1
  V  V51  1  0.00186563  0.37271497  0.37350243  1
  V  V52  1  0.24985411  0.63007075  0.36971808  1
  V  V53  1  0.12783948  0.64359389  0.00204258  1
  V  V54  1  0.07168729  0.28985141  0.92362267  1
  V  V55  1  0.50534597  0.12501941  0.62102510  1
  V  V56  1  0.25211830  0.38081619  0.12148960  1
  V  V57  1  0.36566083  0.12437163  0.25032987  1
  V  V58  1  -0.00857780  0.23603084  0.25281864  1
  V  V59  1  0.88215099  0.12492194  0.74154156  1
  V  V60  1  0.49871872  0.62522675  0.62945167  1
  V  V61  1  0.51412860  0.61494402  0.12393834  1
  V  V62  1  0.37889139  0.62525535  0.24223979  1
  V  V63  1  0.49903720  0.25082426  0.75009565  1
  V  V64  1  0.62385179  -0.00245982  0.62672403  1
  V  V65  1  0.62510447  0.62599551  0.50196407  1
  V  V66  1  0.75527800  0.87166559  0.62559294  1
  V  V67  1  0.50288232  0.87228617  0.88687143  1
  V  V68  1  0.11668089  0.50014958  0.12051397  1
  V  V69  1  0.49056792  0.37659555  0.87646756  1
  V  V70  1  0.01193518  0.25546376  0.74071341  1
  V  V71  1  0.24574225  0.75780536  0.49513835  1
  V  V72  1  0.50963347  0.37113516  0.37129410  1
  V  V73  1  0.75129709  0.12435778  0.87646435  1
  V  V74  1  0.37980085  -0.00607043  0.88792726  1
  V  V75  1  0.24041873  0.23999603  0.48675127  1
  V  V76  1  0.25427272  0.25461872  -0.00059493  1
  V  V77  1  0.24198624  0.12521490  0.87531270  1
  V  V78  1  0.87045020  0.90452656  0.47928604  1
  Zn  Zn79  1  0.86966165  0.63277524  0.75470131  1
  Zn  Zn80  1  0.28380279  0.76748781  -0.00641664  1
  Zn  Zn81  1  0.61837299  0.12131606  -0.00599485  1
  Zn  Zn82  1  0.73352501  0.13554207  0.37776482  1
  Zn  Zn83  1  0.35573313  0.49866879  0.87355454  1
  Zn  Zn84  1  0.77599386  0.49828225  0.75861993  1
  Zn  Zn85  1  0.75009419  -0.00270331  0.75245375  1
  Zn  Zn86  1  0.11637850  0.40953605  0.77751439  1
  Zn  Zn87  1  0.24863575  0.49975968  0.24617337  1
  Zn  Zn88  1  0.17106987  0.56745436  0.82176682  1
  Zn  Zn89  1  0.50112065  0.75253985  0.74890596  1
  Zn  Zn90  1  0.62426238  0.86937381  0.74993586  1
  Zn  Zn91  1  0.37226090  0.87855533  0.50473757  1
  Zn  Zn92  1  0.63809450  0.74332405  0.86678210  1
  Zn  Zn93  1  0.94115686  0.73109684  0.64443086  1
  Zn  Zn94  1  0.13126427  0.12978488  0.23868927  1
  Zn  Zn95  1  0.19073832  0.17898271  0.67634831  1
  Zn  Zn96  1  0.18971086  0.69003580  0.18452819  1
  Zn  Zn97  1  0.14611659  0.78648494  0.65895385  1
  Zn  Zn98  1  0.68609179  0.18312886  0.18077640  1
  Zn  Zn99  1  0.69080772  0.18975305  0.68612701  1
  Zn  Zn100  1  0.68904497  0.68624165  0.18483882  1
  Zn  Zn101  1  0.69505682  0.68277378  0.69441742  1
  Zn  Zn102  1  0.31295240  0.31056999  0.30654052  1
  Zn  Zn103  1  0.30484581  0.31251815  0.81110074  1
  Zn  Zn104  1  0.31504831  0.81385553  0.30426724  1
  Zn  Zn105  1  0.31670564  0.81121119  0.80838225  1
  Zn  Zn106  1  0.81994615  0.28427784  0.33265916  1
  Zn  Zn107  1  0.81434659  0.31050164  0.80646344  1
  Zn  Zn108  1  0.81410539  0.81106292  0.30928197  1
  Zn  Zn109  1  0.82118490  0.81074518  0.80640153  1
  Zn  Zn110  1  0.18773385  0.43394469  0.43501233  1
  Zn  Zn111  1  0.16907335  0.44378987  0.93782483  1
  Zn  Zn112  1  0.19324693  0.95150326  0.44282553  1
  Zn  Zn113  1  0.19183334  0.94000404  0.94063661  1
  Zn  Zn114  1  0.69332974  0.43327528  0.44579874  1
  Zn  Zn115  1  0.68365731  0.42813498  0.93837908  1
  Zn  Zn116  1  0.68601312  0.93873820  0.43461029  1
  Zn  Zn117  1  0.68774948  0.93761215  0.93577058  1
  Zn  Zn118  1  0.30963536  0.06374159  0.06766356  1
  Zn  Zn119  1  0.31626648  0.06137199  0.55999116  1
  Zn  Zn120  1  0.33379591  0.60012602  0.03778352  1
  Zn  Zn121  1  0.31131521  0.56708389  0.56085195  1
  Zn  Zn122  1  0.81050643  0.05850070  0.06506257  1
  Zn  Zn123  1  0.79977010  0.06778290  0.56295581  1
  Zn  Zn124  1  0.80476347  0.55920455  0.07258145  1
  Zn  Zn125  1  0.82474187  0.57419560  0.56951573  1
  Zn  Zn126  1  0.44245102  0.43677536  0.18537381  1
  Zn  Zn127  1  0.43752710  0.43878240  0.68825433  1
  Zn  Zn128  1  0.43532775  0.93629474  0.17904853  1
  Zn  Zn129  1  0.43655588  0.93538012  0.69398790  1
  Zn  Zn130  1  0.92717142  0.42845898  0.18521947  1
  Zn  Zn131  1  0.94701313  0.44072132  0.68352821  1
  Zn  Zn132  1  0.93728937  0.93991865  0.19551917  1
  Zn  Zn133  1  0.93527011  0.94206078  0.68499495  1
  Zn  Zn134  1  0.07409484  0.18153646  0.41909750  1
  Zn  Zn135  1  0.06350171  0.06355013  0.81119665  1
  Zn  Zn136  1  0.06194074  0.56137246  0.30523300  1
  Zn  Zn137  1  -0.02553133  0.52519419  0.84347384  1
  Zn  Zn138  1  0.56522910  0.06583836  0.30567915  1
  Zn  Zn139  1  0.56105087  0.05818882  0.81089937  1
  Zn  Zn140  1  0.56031006  0.56201770  0.31754037  1
  Zn  Zn141  1  0.56315610  0.56004933  0.81173809  1
  Zn  Zn142  1  0.43909472  0.18782345  0.43519077  1
  Zn  Zn143  1  0.43298375  0.18849289  0.93545402  1
  Zn  Zn144  1  0.43587040  0.68817562  0.43606760  1
  Zn  Zn145  1  0.44726878  0.68329353  0.92937073  1
  Zn  Zn146  1  0.89579736  0.15815206  0.45600001  1
  Zn  Zn147  1  0.93357271  0.17772278  0.94244539  1
  Zn  Zn148  1  0.93924185  0.68890455  0.43460846  1
  Zn  Zn149  1  0.94092836  0.69679287  0.93457520  1
  Zn  Zn150  1  0.06901642  0.30168752  0.08474742  1
  Zn  Zn151  1  0.06069919  0.31263944  0.56096276  1
  Zn  Zn152  1  0.06315525  0.82114332  0.07738421  1
  Zn  Zn153  1  0.04744397  0.87971596  0.56518741  1
  Zn  Zn154  1  0.56559990  0.31063805  0.06115090  1
  Zn  Zn155  1  0.55809444  0.31762583  0.56482208  1
  Zn  Zn156  1  0.56695251  0.80486918  0.05822416  1
  Zn  Zn157  1  0.56302052  0.81232614  0.56154898  1
  O  O158  1  0.12770545  0.12724459  0.12050652  1
  O  O159  1  0.11193082  0.12299583  0.61915458  1
  O  O160  1  0.11420982  0.61990476  0.12300058  1
  O  O161  1  0.13268352  0.61058483  0.59623016  1
  O  O162  1  0.61491467  0.11379638  0.12069880  1
  O  O163  1  0.61194427  0.11546050  0.63436862  1
  O  O164  1  0.62110169  0.62359533  0.11294654  1
  O  O165  1  0.61694636  0.61763694  0.61951813  1
  O  O166  1  0.37993792  0.38218905  0.38009151  1
  O  O167  1  0.38713587  0.37612038  0.86500830  1
  O  O168  1  0.38986584  0.88211604  0.36773020  1
  O  O169  1  0.38439186  0.88630582  0.87429989  1
  O  O170  1  0.88317146  0.38366776  0.36762974  1
  O  O171  1  0.84031749  0.39903104  0.87977724  1
  O  O172  1  0.85726159  0.88382775  0.38131511  1
  O  O173  1  0.88987190  0.88937330  0.87193624  1
  O  O174  1  0.26673761  -0.00838201  0.36090832  1
  O  O175  1  0.26256772  0.00699228  0.86752721  1
  O  O176  1  0.26222490  0.50548555  0.37239243  1
  O  O177  1  0.24416427  0.49347492  0.87160399  1
  O  O178  1  0.73994572  0.00257228  0.35810217  1
  O  O179  1  0.76036259  0.00626062  0.87639910  1
  O  O180  1  0.75646570  0.50117305  0.37289322  1
  O  O181  1  0.78397578  0.45753485  0.87834876  1
  O  O182  1  0.24211659  0.48686865  0.12377270  1
  O  O183  1  0.23979237  0.48920981  0.60679142  1
  O  O184  1  0.25836983  0.99134224  0.13881031  1
  O  O185  1  0.26024116  1.00658957  0.64089277  1
  O  O186  1  0.75308630  0.48131066  0.13880445  1
  O  O187  1  0.73901608  0.50553761  0.61923843  1
  O  O188  1  0.73073550  1.00454117  0.13160083  1
  O  O189  1  0.73706926  0.99443595  0.62489712  1
  O  O190  1  0.00490915  0.37579864  0.25725559  1
  O  O191  1  0.01155797  0.36025447  0.74934585  1
  O  O192  1  -0.00088158  0.85675171  0.23727965  1
  O  O193  1  0.00480236  0.88834023  0.76343683  1
  O  O194  1  0.49513075  0.36081871  0.25581467  1
  O  O195  1  0.50571008  0.36936757  0.75614586  1
  O  O196  1  0.50770909  0.86523918  0.25350394  1
  O  O197  1  0.50184570  0.87175139  0.76121564  1
  O  O198  1  0.49161845  0.13736160  0.23934705  1
  O  O199  1  0.49141899  0.12903524  0.74360770  1
  O  O200  1  0.50026326  0.62858931  0.24392005  1
  O  O201  1  0.50021980  0.62613935  0.73496719  1
  O  O202  1  1.00306818  0.13943074  0.25265628  1
  O  O203  1  0.98651557  0.13401066  0.75680372  1
  O  O204  1  0.98778132  0.63085049  0.24264218  1
  O  O205  1  0.91841799  0.62083512  0.85927884  1
  O  O206  1  0.36642333  0.24463988  0.01224912  1
  O  O207  1  0.37285299  0.25956069  0.50413596  1
  O  O208  1  0.37211535  0.70417987  0.00630893  1
  O  O209  1  0.36613421  0.74894251  0.50465718  1
  O  O210  1  0.86676721  0.24367275  0.01073963  1
  O  O211  1  0.88669114  0.25938150  0.52012083  1
  O  O212  1  0.86527389  0.74435827  0.01125235  1
  O  O213  1  0.86110902  0.74692792  0.49663984  1
  O  O214  1  0.13517363  0.25129843  0.49523317  1
  O  O215  1  0.13015305  0.23490725  1.00028476  1
  O  O216  1  0.14404691  0.73892898  0.48655649  1
  O  O217  1  0.12376914  0.74573900  1.00734180  1
  O  O218  1  0.62850216  0.24275437  0.52108326  1
  O  O219  1  0.63472714  0.24406032  0.99074269  1
  O  O220  1  0.63218827  0.74564945  0.49258358  1
  O  O221  1  0.64353716  0.73778760  0.99926154  1
  O  O222  1  0.49251394  0.24810506  0.13373434  1
  O  O223  1  0.49266866  0.24288308  0.63043269  1
  O  O224  1  0.50957925  0.73620633  0.13506692  1
  O  O225  1  0.49085381  0.73846027  0.61889456  1
  O  O226  1  0.98421939  0.24966339  0.13457911  1
  O  O227  1  0.98856187  0.25571109  0.63610399  1
  O  O228  1  0.98466301  0.74060451  0.13223590  1
  O  O229  1  1.03646951  0.77662300  0.61693698  1
  O  O230  1  -0.00143864  0.26005578  0.36096627  1
  O  O231  1  -0.00089871  0.24421177  0.86443147  1
  O  O232  1  -0.01140100  0.74853640  0.35381594  1
  O  O233  1  0.01370450  0.77478148  0.88346781  1
  O  O234  1  0.49317768  0.25636902  0.35972713  1
  O  O235  1  0.50362680  0.25549454  0.86972921  1
  O  O236  1  0.50567818  0.75547363  0.36688618  1
  O  O237  1  0.50332986  0.76365624  0.87171323  1
  O  O238  1  0.25952609  0.14256941  0.50328620  1
  O  O239  1  0.23830245  0.13042102  0.99855092  1
  O  O240  1  0.24779119  0.63096168  0.48559692  1
  O  O241  1  0.22568160  0.62447679  1.01105503  1
  O  O242  1  0.76819639  0.15185306  0.49527877  1
  O  O243  1  0.74932445  0.13045661  0.98685363  1
  O  O244  1  0.74548139  0.63186324  0.49665482  1
  O  O245  1  0.73981681  0.61507708  0.99882839  1
  O  O246  1  0.23637908  0.36164289  0.00836092  1
  O  O247  1  0.25874535  0.36623018  0.50267245  1
  O  O248  1  0.25610641  0.87855677  0.01200082  1
  O  O249  1  0.25568610  0.86017613  0.47597401  1
  O  O250  1  0.74375601  0.36045116  0.01195428  1
  O  O251  1  0.74585885  0.35907902  0.51110934  1
  O  O252  1  0.74656663  0.86551396  0.00564248  1
  O  O253  1  0.75483081  0.86966161  0.50348544  1
  O  O254  1  0.12775711  0.49152884  0.23839777  1
  O  O255  1  0.12803438  0.51349958  0.71755123  1
  O  O256  1  0.14185152  1.00589678  0.24637742  1
  O  O257  1  0.14360107  1.00706500  0.75447006  1
  O  O258  1  0.63671325  0.50206318  0.25849702  1
  O  O259  1  0.62361955  0.49266691  0.74077932  1
  O  O260  1  0.62818703  0.99080313  0.23848902  1
  O  O261  1  0.62593593  0.99559147  0.73778738  1
  O  O262  1  0.38161271  0.00871453  0.25698727  1
  O  O263  1  0.36912426  0.00920001  0.75792039  1
  O  O264  1  0.37750873  0.50515913  0.25888240  1
  O  O265  1  0.37220832  0.51365440  0.74331260  1
  O  O266  1  0.85046330  -0.00645414  0.23918113  1
  O  O267  1  0.87620364  0.01293998  0.75996321  1
  O  O268  1  0.86568511  0.50588374  0.25892986  1
  O  O269  1  0.89586447  0.50408205  0.75820766  1
  O  O270  1  0.11699704  0.38066100  0.36043869  1
  O  O271  1  0.14133938  0.34114570  0.87123245  1
  O  O272  1  0.09411744  0.90248316  0.37307375  1
  O  O273  1  0.11886527  0.87362501  0.87880400  1
  O  O274  1  0.60689197  0.38307920  0.38370715  1
  O  O275  1  0.61561287  0.36827637  0.86380094  1
  O  O276  1  0.61431104  0.87043248  0.36548536  1
  O  O277  1  0.61252065  0.87878553  0.87302065  1
  O  O278  1  0.38109928  0.13340980  0.13087057  1
  O  O279  1  0.38462877  0.12876529  0.63432129  1
  O  O280  1  0.39152582  0.61334256  0.14024032  1
  O  O281  1  0.37847497  0.63132540  0.63128904  1
  O  O282  1  0.86540487  0.13924740  0.12662728  1
  O  O283  1  0.87262673  0.12167940  0.64182669  1
  O  O284  1  0.87868267  0.62208635  0.13398805  1
  O  O285  1  0.89457968  0.62844188  0.63559197  1
  O  O286  1  0.25895113  0.25997597  0.11522365  1
  O  O287  1  0.25358200  0.25816769  0.61306680  1
  O  O288  1  0.25260992  0.75860929  0.12117015  1
  O  O289  1  0.25566548  0.74862917  0.60320219  1
  O  O290  1  0.75693170  0.25301438  0.12125065  1
  O  O291  1  0.76559566  0.24581254  0.62065200  1
  O  O292  1  0.76148446  0.74201153  0.11366861  1
  O  O293  1  0.74134321  0.76103900  0.61284372  1
  O  O294  1  0.25813559  0.25474762  0.38902573  1
  O  O295  1  0.26581117  0.23587637  0.88878330  1
  O  O296  1  0.26544511  0.73625312  0.37876592  1
  O  O297  1  0.23753063  0.76789680  0.88413916  1
  O  O298  1  0.72430386  0.26431934  0.39390001  1
  O  O299  1  0.74763092  0.24350757  0.88051933  1
  O  O300  1  0.74424401  0.74238441  0.38059918  1
  O  O301  1  0.75743512  0.75845382  0.89134774  1
  O  O302  1  0.01783187  0.11856072  -0.00208602  1
  O  O303  1  0.00025331  0.12691375  0.49220952  1
  O  O304  1  0.00855521  0.63457124  0.01554547  1
  O  O305  1  0.01274162  0.61426900  0.48179484  1
  O  O306  1  0.49942590  0.13468680  0.01363904  1
  O  O307  1  0.49065310  0.11578754  0.51166094  1
  O  O308  1  0.51484559  0.61394419  0.00774450  1
  O  O309  1  0.50382526  0.62001995  0.50554925  1
  O  O310  1  0.48745947  0.37814491  0.49309123  1
  O  O311  1  0.50828123  0.38204203  0.98935494  1
  O  O312  1  0.49871964  0.88264590  0.48793756  1
  O  O313  1  0.50269417  0.86874710  0.98687990  1
  O  O314  1  1.00866588  0.38551618  0.48173714  1
  O  O315  1  1.02401180  0.35168687  0.98462278  1
  O  O316  1  0.96700286  0.87831571  0.49015776  1
  O  O317  1  1.00857374  0.89407928  0.99848446  1
  O  O318  1  0.49033981  0.49291828  0.37977638  1
  O  O319  1  0.50126405  0.48900719  0.88094184  1
  O  O320  1  0.49572797  0.99279430  0.37908990  1
  O  O321  1  0.48836363  0.99223321  0.87363161  1
  O  O322  1  0.99205041  0.49323765  0.37481045  1
  O  O323  1  1.07883722  0.48947518  0.85742163  1
  O  O324  1  1.03977670  0.95028333  0.36047190  1
  O  O325  1  0.99877338  0.99485671  0.88325757  1
  O  O326  1  -0.00771561  0.00009147  0.11386982  1
  O  O327  1  0.00658861  -0.00755732  0.61033016  1
  O  O328  1  0.00256790  0.50867259  0.13572089  1
  O  O329  1  0.01659048  0.48998419  0.60310783  1
  O  O330  1  0.50969432  0.01116717  0.13131480  1
  O  O331  1  0.50314366  0.00508430  0.61689476  1
  O  O332  1  0.50266888  0.50426730  0.11481311  1
  O  O333  1  0.50225916  0.50942793  0.61727223  1
  O  O334  1  0.24068125  0.37315065  0.24020000  1
  O  O335  1  0.23826209  0.36822318  0.73448172  1
  O  O336  1  0.24601994  0.88280370  0.24771872  1
  O  O337  1  0.25350349  0.88753620  0.75045483  1
  O  O338  1  0.75179401  0.37629391  0.24730485  1
  O  O339  1  0.73571748  0.37909301  0.74985474  1
  O  O340  1  0.73365347  0.87755982  0.25124766  1
  O  O341  1  0.74989023  0.87811896  0.73867045  1
  O  O342  1  0.26493109  0.10963233  0.24252309  1
  O  O343  1  0.26040093  0.12525058  0.75712538  1
  O  O344  1  0.26231466  0.62317516  0.25282058  1
  O  O345  1  0.25521751  0.62409643  0.75521112  1
  O  O346  1  0.74020911  0.11221656  0.24969614  1
  O  O347  1  0.76107976  0.12615633  0.76190152  1
  O  O348  1  0.75464456  0.61488687  0.25467058  1
  O  O349  1  0.75432490  0.60977136  0.75479703  1
  O  O350  1  0.38446415  0.11496874  0.36399853  1
  O  O351  1  0.37241937  0.11487615  0.86704684  1
  O  O352  1  0.37314615  0.61462056  0.36593879  1
  O  O353  1  0.38524324  0.62059834  0.85170403  1
  O  O354  1  0.84430292  0.17001099  0.35892990  1
  O  O355  1  0.86861914  0.11721725  0.86795529  1
  O  O356  1  0.86840108  0.61540221  0.36462841  1
  O  O357  1  0.93366836  0.49848555  0.97276006  1
  O  O358  1  0.13060593  0.38288884  0.13210285  1
  O  O359  1  0.13319058  0.38828192  0.61320201  1
  O  O360  1  0.14769585  0.87609619  0.12706324  1
  O  O361  1  0.15207061  0.88104921  0.59796613  1
  O  O362  1  0.64305755  0.36108660  0.12885223  1
  O  O363  1  0.61289463  0.38913305  0.63466189  1
  O  O364  1  0.61284455  0.88674171  0.12993518  1
  O  O365  1  0.63227022  0.88336848  0.62309393  1
  O  O366  1  0.10401033  0.26329875  0.23374194  1
  O  O367  1  0.10957477  0.23625914  0.74021494  1
  O  O368  1  0.10976488  0.73997556  0.24793315  1
  O  O369  1  0.13455155  0.75046964  0.76668220  1
  O  O370  1  0.60973589  0.24438852  0.24534130  1
  O  O371  1  0.61976908  0.25737152  0.75222246  1
  O  O372  1  0.61965379  0.75385299  0.25322967  1
  O  O373  1  0.62333041  0.75087727  0.75260438  1
  O  O374  1  0.37723409  0.24168632  0.23927670  1
  O  O375  1  0.37781302  0.24105480  0.74470863  1
  O  O376  1  0.39023608  0.73659496  0.25657239  1
  O  O377  1  0.37361287  0.73696006  0.73812679  1
  O  O378  1  0.88485282  0.25437826  0.23775648  1
  O  O379  1  0.88154943  0.24171029  0.74229882  1
  O  O380  1  0.86920571  0.73761118  0.23693024  1
  O  O381  1  0.88636658  0.74857095  0.74332088  1
  O  O382  1  0.37825896  0.49249537  0.49145183  1
  O  O383  1  0.39131243  0.50973084  0.99191136  1
  O  O384  1  0.38355129  0.99719132  0.48858660  1
  O  O385  1  0.37076330  1.00847483  0.98521242  1
  O  O386  1  0.88585854  0.50956113  0.48600417  1
  O  O387  1  0.87189134  0.47694694  1.00834209  1
  O  O388  1  0.86276766  1.00504134  0.48845219  1
  O  O389  1  0.89119560  1.01383045  0.99182686  1
  O  O390  1  0.11927629  0.01185093  0.00372793  1
  O  O391  1  0.12482494  0.01796278  0.49701012  1
  O  O392  1  0.11923553  0.51080401  0.01806879  1
  O  O393  1  0.11891485  0.50678359  0.49286632  1
  O  O394  1  0.62665895  0.00045916  0.01215341  1
  O  O395  1  0.61273831  -0.00497263  0.50963026  1
  O  O396  1  0.62001413  0.50684039  -0.00685905  1
  O  O397  1  0.61954542  0.50564946  0.50744432  1
  O  O398  1  0.36602521  0.36673188  0.13093192  1
  O  O399  1  0.36743650  0.37172339  0.61641490  1
  O  O400  1  0.35824183  0.87067725  0.13741132  1
  O  O401  1  0.38322458  0.85933239  0.62275194  1
  O  O402  1  0.85700415  0.35910091  0.12626131  1
  O  O403  1  0.87174886  0.37060473  0.63262518  1
  O  O404  1  0.87464946  0.85850407  0.12693553  1
  O  O405  1  0.85909678  0.88818744  0.61223843  1
  O  O406  1  0.14279215  0.13492415  0.34884462  1
  O  O407  1  0.13941959  0.12434932  0.87976479  1
  O  O408  1  0.14086501  0.61506098  0.37398641  1
  O  O409  1  0.12081348  0.65110902  0.89170485  1
  O  O410  1  0.62182662  0.11819118  0.38314916  1
  O  O411  1  0.63336036  0.12828292  0.87123226  1
  O  O412  1  0.62960823  0.62869054  0.38251876  1
  O  O413  1  0.61844819  0.62726526  0.88930835  1
