# generated using pymatgen
data_V79Zn79O256
_symmetry_space_group_name_H-M   'P 1'
_cell_length_a   16.88750537
_cell_length_b   16.90300460
_cell_length_c   16.88309776
_cell_angle_alpha   90.12468444
_cell_angle_beta   89.97614515
_cell_angle_gamma   89.76728557
_symmetry_Int_Tables_number   1
_chemical_formula_structural   V79Zn79O256
_chemical_formula_sum   'V79 Zn79 O256'
_cell_volume   4819.22158340
_cell_formula_units_Z   1
loop_
 _symmetry_equiv_pos_site_id
 _symmetry_equiv_pos_as_xyz
  1  'x, y, z'
loop_
 _atom_site_type_symbol
 _atom_site_label
 _atom_site_symmetry_multiplicity
 _atom_site_fract_x
 _atom_site_fract_y
 _atom_site_fract_z
 _atom_site_occupancy
  V  V0  1  0.00390088  0.74963744  0.24801673  1
  V  V1  1  0.49051054  0.13620135  0.12394300  1
  V  V2  1  0.62501587  0.87756679  0.25123136  1
  V  V3  1  0.24949783  0.50733411  0.25106847  1
  V  V4  1  0.62488820  0.00477736  0.13189904  1
  V  V5  1  0.13410978  -0.00836639  0.12220209  1
  V  V6  1  0.36705229  0.37329530  0.51556445  1
  V  V7  1  0.36122396  0.87604873  0.00488611  1
  V  V8  1  0.75301653  0.62489822  0.37491747  1
  V  V9  1  0.24551590  0.72648505  -0.00209450  1
  V  V10  1  0.50247603  0.49907849  0.50072892  1
  V  V11  1  0.87822555  0.88614708  0.50139651  1
  V  V12  1  0.75504213  0.49419929  0.74991644  1
  V  V13  1  -0.00765480  0.87505822  0.87663328  1
  V  V14  1  0.00548200  0.62264752  0.11861620  1
  V  V15  1  0.63182539  0.12957155  0.00580856  1
  V  V16  1  0.86352251  0.00264682  0.36552941  1
  V  V17  1  0.25267356  0.74600265  0.50195542  1
  V  V18  1  0.62713039  0.25935507  0.88523697  1
  V  V19  1  0.75635748  0.75762399  0.00000010  1
  V  V20  1  0.37246357  0.50390158  0.37259528  1
  V  V21  1  0.87258161  0.37157850  0.50997170  1
  V  V22  1  0.13107205  0.86958409  0.74435185  1
  V  V23  1  0.63251635  0.49075422  0.62763300  1
  V  V24  1  0.88175704  0.62023455  0.74947253  1
  V  V25  1  0.73630367  0.49974077  0.23836773  1
  V  V26  1  0.62748444  0.62683509  0.50504187  1
  V  V27  1  0.75314866  0.88115682  0.12882377  1
  V  V28  1  0.87206181  0.13362728  0.24970820  1
  V  V29  1  0.62470951  0.75086015  0.37535572  1
  V  V30  1  0.61885082  -0.00775450  0.65009492  1
  V  V31  1  0.13150238  0.36880257  0.24671164  1
  V  V32  1  0.87583290  0.35418149  0.01156619  1
  V  V33  1  0.00090983  0.13374516  0.13118957  1
  V  V34  1  0.12869125  0.73713155  0.87339361  1
  V  V35  1  0.13491997  0.74438466  0.37177659  1
  V  V36  1  0.24579564  0.24891701  0.01192517  1
  V  V37  1  0.37649031  0.12747526  0.74020934  1
  V  V38  1  0.50294177  0.26023071  0.25112287  1
  V  V39  1  0.49497606  0.50656464  -0.00727315  1
  V  V40  1  0.74362714  0.36166728  0.12599697  1
  V  V41  1  0.62960192  0.75595805  0.87189086  1
  V  V42  1  0.13606560  0.87240179  0.24504584  1
  V  V43  1  0.12207450  0.12096008  -0.01103257  1
  V  V44  1  0.12982992  0.62265716  0.49616758  1
  V  V45  1  0.36342692  0.13627381  0.25301919  1
  V  V46  1  0.74651811  0.11190610  0.86219247  1
  V  V47  1  0.00269365  0.87962159  0.37843566  1
  V  V48  1  0.00403941  0.50055544  0.49622396  1
  V  V49  1  0.75976181  0.75229139  0.50497207  1
  V  V50  1  -0.00052341  0.75006253  0.74299063  1
  V  V51  1  0.24556570  0.13146288  0.86844071  1
  V  V52  1  0.37936174  0.36537791  -0.00863820  1
  V  V53  1  -0.00845773  0.49951272  -0.01138495  1
  V  V54  1  0.11456853  -0.00391377  0.61621995  1
  V  V55  1  -0.00517477  0.63011665  0.61925578  1
  V  V56  1  0.00468906  0.36372958  0.36939411  1
  V  V57  1  0.49641231  0.26128118  0.75124198  1
  V  V58  1  0.49660902  0.00052042  0.00258924  1
  V  V59  1  0.87751357  0.62179921  0.24842932  1
  V  V60  1  0.50508679  0.75414749  0.75038063  1
  V  V61  1  -0.01309836  -0.01079574  0.00122032  1
  V  V62  1  0.37470905  0.74385630  0.12274881  1
  V  V63  1  0.37220896  0.87485592  0.50320657  1
  V  V64  1  -0.00572523  0.33996173  0.86909768  1
  V  V65  1  0.12227165  0.12410068  0.49062123  1
  V  V66  1  0.12863533  0.49668631  0.11542853  1
  V  V67  1  0.12724875  0.34978192  0.74513134  1
  V  V68  1  0.36639039  0.62364962  0.77098342  1
  V  V69  1  0.50178317  0.74134073  0.24167988  1
  V  V70  1  0.37302343  0.74920633  0.62698791  1
  V  V71  1  0.24935751  -0.00429415  0.74295069  1
  V  V72  1  0.50754601  0.00484509  0.49887209  1
  V  V73  1  0.75073830  0.87908173  0.63661325  1
  V  V74  1  0.87945947  0.75792278  0.11979122  1
  V  V75  1  0.75806201  0.62203237  0.87545061  1
  V  V76  1  0.36504035  0.00242420  0.37532506  1
  V  V77  1  0.62787373  0.62251062  0.01505059  1
  V  V78  1  0.50284606  0.87736603  0.87550636  1
  Zn  Zn79  1  0.85770523  0.23931161  0.61661947  1
  Zn  Zn80  1  0.50172864  0.62433560  0.63357150  1
  Zn  Zn81  1  0.25368547  -0.00167094  0.24751681  1
  Zn  Zn82  1  0.49836787  0.87384333  0.37386458  1
  Zn  Zn83  1  0.60930404  0.39412730  0.77872561  1
  Zn  Zn84  1  0.87705038  0.49868716  0.37219026  1
  Zn  Zn85  1  0.37718665  0.62256425  0.24662710  1
  Zn  Zn86  1  0.50063572  0.37256902  0.37132699  1
  Zn  Zn87  1  0.14445099  0.47424814  0.63281893  1
  Zn  Zn88  1  0.25393744  0.24340585  0.50229442  1
  Zn  Zn89  1  0.13741024  0.23531085  0.36567475  1
  Zn  Zn90  1  0.37119667  -0.00091095  0.87332950  1
  Zn  Zn91  1  -0.01453718  0.12008796  0.61881841  1
  Zn  Zn92  1  0.51027818  0.13443274  0.62090253  1
  Zn  Zn93  1  0.88113062  0.13542545  0.75318498  1
  Zn  Zn94  1  0.18362779  0.18191733  0.18219036  1
  Zn  Zn95  1  0.18631304  0.18412259  0.67617102  1
  Zn  Zn96  1  0.19155318  0.68588764  0.17972620  1
  Zn  Zn97  1  0.20198605  0.64949032  0.67352950  1
  Zn  Zn98  1  0.70624265  0.21238391  0.24574453  1
  Zn  Zn99  1  0.71136155  0.23274137  0.70872993  1
  Zn  Zn100  1  0.69378585  0.69296723  0.19049067  1
  Zn  Zn101  1  0.69377943  0.68891464  0.68793626  1
  Zn  Zn102  1  0.31107152  0.31880721  0.32245068  1
  Zn  Zn103  1  0.31189434  0.31679998  0.81366104  1
  Zn  Zn104  1  0.31808054  0.81081799  0.31388560  1
  Zn  Zn105  1  0.31366013  0.80800604  0.81700522  1
  Zn  Zn106  1  0.82012249  0.31787212  0.31649563  1
  Zn  Zn107  1  0.81851494  0.31078691  0.82297144  1
  Zn  Zn108  1  0.81391201  0.81196676  0.31229529  1
  Zn  Zn109  1  0.81839643  0.80870615  0.81070990  1
  Zn  Zn110  1  0.19110419  0.43526143  0.43349524  1
  Zn  Zn111  1  0.18873028  0.42140927  0.92321044  1
  Zn  Zn112  1  0.18944784  0.93155529  0.43728971  1
  Zn  Zn113  1  0.18031199  0.93948907  0.92636234  1
  Zn  Zn114  1  0.69475664  0.44051370  0.43486174  1
  Zn  Zn115  1  0.69807480  0.44149100  0.94701377  1
  Zn  Zn116  1  0.69269138  0.93632363  0.43777953  1
  Zn  Zn117  1  0.68712402  0.93952451  0.94327599  1
  Zn  Zn118  1  0.31121899  0.06573754  0.06182417  1
  Zn  Zn119  1  0.30796469  0.06419620  0.56318945  1
  Zn  Zn120  1  0.31837763  0.54809547  0.06013714  1
  Zn  Zn121  1  0.31473568  0.55877761  0.56685479  1
  Zn  Zn122  1  0.81196092  0.06755134  0.07037024  1
  Zn  Zn123  1  0.75384413  0.10124638  0.61846538  1
  Zn  Zn124  1  0.81688679  0.56339414  0.06041969  1
  Zn  Zn125  1  0.81799274  0.55595467  0.56387907  1
  Zn  Zn126  1  0.43160312  0.43837580  0.16845477  1
  Zn  Zn127  1  0.43539305  0.44669848  0.69194610  1
  Zn  Zn128  1  0.43433743  0.93392157  0.18623744  1
  Zn  Zn129  1  0.43471335  0.93590583  0.68697339  1
  Zn  Zn130  1  0.94153716  0.43403615  0.18555564  1
  Zn  Zn131  1  0.96242910  0.44007974  0.69594533  1
  Zn  Zn132  1  0.94604169  0.93927809  0.18953198  1
  Zn  Zn133  1  0.93103037  0.94421558  0.69080265  1
  Zn  Zn134  1  0.06207671  0.05656543  0.30922760  1
  Zn  Zn135  1  0.04418333  0.05428831  0.80336728  1
  Zn  Zn136  1  0.06457703  0.55908486  0.30964178  1
  Zn  Zn137  1  0.10450607  0.53102877  0.82164674  1
  Zn  Zn138  1  0.54527183  0.06216482  0.30853633  1
  Zn  Zn139  1  0.55975170  0.07187709  0.81682289  1
  Zn  Zn140  1  0.56217303  0.56231769  0.31527419  1
  Zn  Zn141  1  0.56434032  0.57034051  0.82022638  1
  Zn  Zn142  1  0.43650085  0.18959328  0.43490660  1
  Zn  Zn143  1  0.43524148  0.18813307  0.92941681  1
  Zn  Zn144  1  0.44073502  0.68617398  0.43440005  1
  Zn  Zn145  1  0.44339743  0.69125783  0.94489483  1
  Zn  Zn146  1  0.94064700  0.18338313  0.44094581  1
  Zn  Zn147  1  0.92597893  0.17260621  0.94642352  1
  Zn  Zn148  1  0.94090209  0.69303086  0.43352187  1
  Zn  Zn149  1  0.94331393  0.68772692  0.93377905  1
  Zn  Zn150  1  0.06591210  0.31239156  0.05804880  1
  Zn  Zn151  1  0.05114336  0.30016226  0.56551129  1
  Zn  Zn152  1  0.06899230  0.81029463  0.05849308  1
  Zn  Zn153  1  0.06473180  0.81117273  0.56181408  1
  Zn  Zn154  1  0.55721216  0.32119584  0.06484879  1
  Zn  Zn155  1  0.56215404  0.31670437  0.56567491  1
  Zn  Zn156  1  0.56393288  0.81242269  0.06251364  1
  Zn  Zn157  1  0.56237453  0.81649846  0.56370161  1
  O  O158  1  0.11529843  0.11155427  0.11762205  1
  O  O159  1  0.12053415  0.10463528  0.61754905  1
  O  O160  1  0.11398920  0.61212005  0.12776409  1
  O  O161  1  0.10865830  0.63818841  0.60487459  1
  O  O162  1  0.60814009  0.11663138  0.12080443  1
  O  O163  1  0.62382262  0.09302062  0.62621772  1
  O  O164  1  0.63056282  0.63974588  0.11330242  1
  O  O165  1  0.62751504  0.62220901  0.61517517  1
  O  O166  1  0.38012462  0.39101248  0.38567289  1
  O  O167  1  0.34559092  0.38895793  0.89704759  1
  O  O168  1  0.37788745  0.88238440  0.38381828  1
  O  O169  1  0.38748250  0.87531367  0.88601702  1
  O  O170  1  0.89436083  0.37926296  0.37665134  1
  O  O171  1  0.88480152  0.36484356  0.89788577  1
  O  O172  1  0.88232713  0.88104260  0.37548483  1
  O  O173  1  0.89213670  0.87206685  0.86942591  1
  O  O174  1  0.26140050  -0.00446773  0.37328262  1
  O  O175  1  0.24884562  0.00969309  0.86140003  1
  O  O176  1  0.25952517  0.49828090  0.36320220  1
  O  O177  1  0.20793226  0.50768779  0.86064430  1
  O  O178  1  0.76359443  -0.00200602  0.37147558  1
  O  O179  1  0.74422736  0.01266645  0.88302314  1
  O  O180  1  0.75503174  0.50654642  0.35920505  1
  O  O181  1  0.74598232  0.51658687  0.86852493  1
  O  O182  1  0.23264050  0.50486509  0.12723343  1
  O  O183  1  0.23145532  0.54047484  0.63683699  1
  O  O184  1  0.23808626  1.00335584  0.12540225  1
  O  O185  1  0.24147838  0.99935424  0.63813321  1
  O  O186  1  0.75297993  0.50626261  0.13635957  1
  O  O187  1  0.74403504  0.50882915  0.63790474  1
  O  O188  1  0.73790343  0.99108646  0.11980764  1
  O  O189  1  0.73156560  0.98744465  0.62879907  1
  O  O190  1  0.01163520  0.38164257  0.26178851  1
  O  O191  1  -0.02545032  0.34869023  0.76942065  1
  O  O192  1  0.01268671  0.86692653  0.25664361  1
  O  O193  1  0.00764548  0.86576214  0.75375275  1
  O  O194  1  0.48227707  0.36238103  0.24058982  1
  O  O195  1  0.49512559  0.36626590  0.75280177  1
  O  O196  1  0.51129702  0.86559843  0.24944174  1
  O  O197  1  0.49338791  0.86554187  0.76336908  1
  O  O198  1  0.48772174  0.13746151  0.24244037  1
  O  O199  1  0.49211966  0.13424798  0.74729348  1
  O  O200  1  0.50301944  0.63740979  0.25022398  1
  O  O201  1  0.49626815  0.64143329  0.75510025  1
  O  O202  1  1.00073282  0.11948800  0.23550950  1
  O  O203  1  0.99978946  0.13497782  0.73805449  1
  O  O204  1  0.99575038  0.62940624  0.24025520  1
  O  O205  1  0.99713357  0.63130647  0.73612193  1
  O  O206  1  0.36198474  0.25708311  -0.00655687  1
  O  O207  1  0.38343864  0.27165011  0.49698388  1
  O  O208  1  0.36426520  0.75527536  0.00366051  1
  O  O209  1  0.37276043  0.75299151  0.50401434  1
  O  O210  1  0.87800061  0.25495919  0.01409772  1
  O  O211  1  0.87771275  0.26758411  0.49244146  1
  O  O212  1  0.86983525  0.74599102  0.00958142  1
  O  O213  1  0.86491650  0.75980004  0.49273862  1
  O  O214  1  0.12230476  0.23028590  0.50096869  1
  O  O215  1  0.13284524  0.23030198  1.00618799  1
  O  O216  1  0.13375368  0.74636769  0.49012290  1
  O  O217  1  0.13834236  0.74729291  0.99280560  1
  O  O218  1  0.62637606  0.29663113  0.46826800  1
  O  O219  1  0.60882793  0.24028546  0.99267368  1
  O  O220  1  0.63248858  0.74413406  0.49593508  1
  O  O221  1  0.63665242  0.74577867  0.99381569  1
  O  O222  1  0.49265055  0.24199161  0.12767131  1
  O  O223  1  0.51703910  0.24846435  0.64471181  1
  O  O224  1  0.49185115  0.75425584  0.13095550  1
  O  O225  1  0.49710478  0.75103490  0.63516323  1
  O  O226  1  1.00857145  0.23189670  0.12022480  1
  O  O227  1  0.97439406  0.23637215  0.61525004  1
  O  O228  1  0.99767615  0.74317428  0.12554836  1
  O  O229  1  1.00058367  0.74620766  0.63289752  1
  O  O230  1  0.01118097  0.26243344  0.37679106  1
  O  O231  1  -0.00236579  0.24230502  0.88748487  1
  O  O232  1  0.01199746  0.75741408  0.36647242  1
  O  O233  1  0.00916634  0.75617381  0.86879132  1
  O  O234  1  0.49462109  0.25333352  0.35685802  1
  O  O235  1  0.51340833  0.24267693  0.86229965  1
  O  O236  1  0.50751515  0.75185356  0.36446099  1
  O  O237  1  0.51085028  0.75913392  0.87286549  1
  O  O238  1  0.23077228  0.11823532  0.50069331  1
  O  O239  1  0.24343786  0.12813870  0.98978598  1
  O  O240  1  0.24122820  0.63481398  0.49650498  1
  O  O241  1  0.25188844  0.62862988  0.99832227  1
  O  O242  1  0.64756985  0.14459663  0.43649482  1
  O  O243  1  0.73449425  0.12432888  1.00579242  1
  O  O244  1  0.74709284  0.63160460  0.49717490  1
  O  O245  1  0.74925208  0.63797758  0.99518086  1
  O  O246  1  0.22917481  0.34862509  -0.00164036  1
  O  O247  1  0.26478097  0.38575287  0.50497271  1
  O  O248  1  0.26111876  0.88221120  -0.00885507  1
  O  O249  1  0.26264919  0.86085938  0.49622557  1
  O  O250  1  0.76768254  0.37691453  0.01355328  1
  O  O251  1  0.77397597  0.39080066  0.49891848  1
  O  O252  1  0.74647409  0.86585508  0.01274529  1
  O  O253  1  0.75947111  0.86923891  0.50480848  1
  O  O254  1  0.13127158  0.49357672  0.24085541  1
  O  O255  1  0.07948714  0.46342444  0.73499354  1
  O  O256  1  0.12826092  0.98855899  0.24092739  1
  O  O257  1  0.12837849  0.98853421  0.74108722  1
  O  O258  1  0.63695097  0.50289636  0.25082117  1
  O  O259  1  0.63357392  0.50489696  0.74493426  1
  O  O260  1  0.61292569  0.99248117  0.24144815  1
  O  O261  1  0.60690307  0.98937804  0.74877284  1
  O  O262  1  0.37611888  0.00428926  0.25891238  1
  O  O263  1  0.36766066  0.00545361  0.75028486  1
  O  O264  1  0.36747531  0.49820651  0.25124318  1
  O  O265  1  0.38056268  0.52550838  0.74900403  1
  O  O266  1  0.88177173  0.00187269  0.26112571  1
  O  O267  1  0.92503633  0.02457710  0.76879705  1
  O  O268  1  0.87609216  0.51463556  0.24738198  1
  O  O269  1  0.87254749  0.51342801  0.74440318  1
  O  O270  1  0.11774008  0.37846904  0.36203833  1
  O  O271  1  0.09933745  0.36491519  0.86185588  1
  O  O272  1  0.12120474  0.86460361  0.36794423  1
  O  O273  1  0.11589728  0.86550050  0.86351678  1
  O  O274  1  0.61943189  0.35244189  0.41031062  1
  O  O275  1  0.63318742  0.36290081  0.89261035  1
  O  O276  1  0.62666099  0.87044844  0.36485508  1
  O  O277  1  0.61639966  0.86629204  0.88592916  1
  O  O278  1  0.38197776  0.11562695  0.13962457  1
  O  O279  1  0.38101206  0.11846308  0.63692388  1
  O  O280  1  0.37209408  0.63858424  0.12311285  1
  O  O281  1  0.38206494  0.63964834  0.62993140  1
  O  O282  1  0.89218772  0.11756088  0.13536054  1
  O  O283  1  0.86686319  0.11078792  0.63501813  1
  O  O284  1  0.88427689  0.63593035  0.13027260  1
  O  O285  1  0.88613512  0.62608764  0.62971356  1
  O  O286  1  0.25382803  0.23855277  0.11070189  1
  O  O287  1  0.26106424  0.23608493  0.61339409  1
  O  O288  1  0.25512699  0.74846565  0.10641723  1
  O  O289  1  0.26011315  0.74227904  0.61221945  1
  O  O290  1  0.74869163  0.26469403  0.14362983  1
  O  O291  1  0.74217597  0.21358907  0.60036729  1
  O  O292  1  0.76072161  0.75921008  0.11888926  1
  O  O293  1  0.74453839  0.76410978  0.61433859  1
  O  O294  1  0.24512768  0.25909450  0.38994412  1
  O  O295  1  0.24956812  0.23384462  0.87864065  1
  O  O296  1  0.24222491  0.75099480  0.38115550  1
  O  O297  1  0.24378704  0.75337066  0.89091949  1
  O  O298  1  0.73441548  0.25744792  0.34495006  1
  O  O299  1  0.72917350  0.23744389  0.87658431  1
  O  O300  1  0.74479481  0.74543407  0.38244628  1
  O  O301  1  0.74840725  0.74923513  0.88229813  1
  O  O302  1  0.00419794  0.10909351  0.00888293  1
  O  O303  1  0.01392157  0.11596999  0.50152184  1
  O  O304  1  -0.00547232  0.61259300  0.00802421  1
  O  O305  1  0.00505440  0.62227983  0.49939369  1
  O  O306  1  0.49859053  0.11745472  0.00559567  1
  O  O307  1  0.49075936  0.10960251  0.50410514  1
  O  O308  1  0.52022487  0.62055577  -0.00441345  1
  O  O309  1  0.51297271  0.61748767  0.49962368  1
  O  O310  1  0.49172333  0.39091494  0.50372929  1
  O  O311  1  0.48297560  0.37474553  0.99076980  1
  O  O312  1  0.48917125  0.88217791  0.49692386  1
  O  O313  1  0.49434752  0.88274209  0.99544492  1
  O  O314  1  1.00158351  0.38325239  0.48587017  1
  O  O315  1  0.99301054  0.37938950  0.99551191  1
  O  O316  1  0.99010642  0.86160241  0.48895585  1
  O  O317  1  1.00287277  0.88129346  0.99535554  1
  O  O318  1  0.49897482  0.49403681  0.38330471  1
  O  O319  1  0.53283362  0.49190510  0.89481241  1
  O  O320  1  0.48798920  0.99844633  0.38606169  1
  O  O321  1  0.50119982  0.99412151  0.88776083  1
  O  O322  1  1.00170537  0.49569073  0.38246974  1
  O  O323  1  1.00528882  0.50255291  0.89032587  1
  O  O324  1  0.99899658  0.98204302  0.37156085  1
  O  O325  1  1.01021466  0.98961075  0.89610933  1
  O  O326  1  0.01161792  -0.00097590  0.11400200  1
  O  O327  1  0.01310151  -0.00689829  0.62077397  1
  O  O328  1  0.00715880  0.50708643  0.11908409  1
  O  O329  1  0.00276964  0.51337781  0.60579258  1
  O  O330  1  0.50462108  0.00420860  0.11810072  1
  O  O331  1  0.50937770  -0.01130813  0.61316756  1
  O  O332  1  0.50639760  0.48690642  0.09443020  1
  O  O333  1  0.51323625  0.50637440  0.61822013  1
  O  O334  1  0.23668725  0.38639376  0.25076180  1
  O  O335  1  0.22575600  0.36694654  0.75707220  1
  O  O336  1  0.23922894  0.87274695  0.25355302  1
  O  O337  1  0.24132146  0.88132823  0.75932256  1
  O  O338  1  0.76170227  0.39415577  0.23644192  1
  O  O339  1  0.75068786  0.39462327  0.76731802  1
  O  O340  1  0.73803729  0.86689616  0.23940091  1
  O  O341  1  0.75598709  0.86723351  0.73549040  1
  O  O342  1  0.26072021  0.12223991  0.24642464  1
  O  O343  1  0.25504505  0.11768174  0.75254572  1
  O  O344  1  0.25185868  0.61245688  0.24505544  1
  O  O345  1  0.26774812  0.64902599  0.76338107  1
  O  O346  1  0.77271471  0.11934602  0.23712692  1
  O  O347  1  0.73174997  0.11522266  0.76232209  1
  O  O348  1  0.75813859  0.61962914  0.25282562  1
  O  O349  1  0.76153997  0.62367812  0.75694263  1
  O  O350  1  0.37935441  0.11690753  0.36084310  1
  O  O351  1  0.36555321  0.12054906  0.86257826  1
  O  O352  1  0.38410251  0.60939350  0.37011319  1
  O  O353  1  0.38261049  0.63490361  0.86929828  1
  O  O354  1  0.88672963  0.10985149  0.36451860  1
  O  O355  1  0.84919929  0.13533658  0.87308867  1
  O  O356  1  0.87209575  0.62935985  0.36249768  1
  O  O357  1  0.86720905  0.63118271  0.86670529  1
  O  O358  1  0.11360683  0.38606054  0.13794981  1
  O  O359  1  0.11740953  0.36223407  0.63434839  1
  O  O360  1  0.12131406  0.87926564  0.13399117  1
  O  O361  1  0.12498068  0.88022829  0.63355724  1
  O  O362  1  0.64451511  0.37671299  0.11158191  1
  O  O363  1  0.62731026  0.39005996  0.62947057  1
  O  O364  1  0.63138401  0.88333435  0.13143767  1
  O  O365  1  0.63704757  0.88242709  0.62062918  1
  O  O366  1  0.13300349  0.26483629  0.24632271  1
  O  O367  1  0.11852483  0.24892244  0.74431156  1
  O  O368  1  0.12521390  0.75225036  0.25285293  1
  O  O369  1  0.11731312  0.75602274  0.75377068  1
  O  O370  1  0.60095054  0.25289156  0.23833810  1
  O  O371  1  0.61792658  0.26633306  0.76750271  1
  O  O372  1  0.62026769  0.75739012  0.25342679  1
  O  O373  1  0.62043453  0.74659949  0.76144648  1
  O  O374  1  0.37199791  0.23877502  0.25283550  1
  O  O375  1  0.38883636  0.24595821  0.75818470  1
  O  O376  1  0.38317893  0.74895402  0.24150006  1
  O  O377  1  0.38557004  0.74839408  0.74470359  1
  O  O378  1  0.88288800  0.23200266  0.26005292  1
  O  O379  1  0.82901534  0.24296766  0.73498642  1
  O  O380  1  0.88109103  0.74184307  0.24039020  1
  O  O381  1  0.89045546  0.73730679  0.75369697  1
  O  O382  1  0.38422366  0.50029649  0.49507953  1
  O  O383  1  0.39535608  0.51898289  0.98041111  1
  O  O384  1  0.37841549  0.99181380  0.49681849  1
  O  O385  1  0.38310092  0.99433561  1.00113727  1
  O  O386  1  0.88784194  0.49517195  0.49284455  1
  O  O387  1  0.88850729  0.49325314  1.00256249  1
  O  O388  1  0.87739108  0.98686984  0.48027548  1
  O  O389  1  0.88824199  1.00049383  1.00810892  1
  O  O390  1  0.12210342  0.00402972  0.00712799  1
  O  O391  1  0.13080014  -0.00424558  0.51160216  1
  O  O392  1  0.11269255  0.48624089  0.01385853  1
  O  O393  1  0.12148274  0.51018417  0.49491054  1
  O  O394  1  0.61407608  0.00738282  0.01163689  1
  O  O395  1  0.60763430  -0.00530251  0.49007192  1
  O  O396  1  0.64207632  0.52246718  0.00667377  1
  O  O397  1  0.62394817  0.50783306  0.50619606  1
  O  O398  1  0.35342634  0.40824763  0.08277547  1
  O  O399  1  0.37818553  0.38583386  0.61482740  1
  O  O400  1  0.37690586  0.86273334  0.11471105  1
  O  O401  1  0.37918782  0.86138270  0.61594353  1
  O  O402  1  0.87320184  0.37641824  0.11668506  1
  O  O403  1  0.89194651  0.38145434  0.60966686  1
  O  O404  1  0.86953532  0.86578589  0.13558289  1
  O  O405  1  0.86075478  0.88895503  0.61669295  1
  O  O406  1  0.11951730  0.11931778  0.38365796  1
  O  O407  1  0.12872602  0.11212383  0.88321135  1
  O  O408  1  0.11785813  0.63606220  0.38175457  1
  O  O409  1  0.11603271  0.63972404  0.86357830  1
  O  O410  1  0.63686127  0.12761744  0.36492203  1
  O  O411  1  0.62988284  0.12967915  0.88843266  1
  O  O412  1  0.63276048  0.62948167  0.38626552  1
  O  O413  1  0.63999896  0.64095984  0.88369977  1
