# generated using pymatgen
data_V79Zn79O256
_symmetry_space_group_name_H-M   'P 1'
_cell_length_a   16.93030100
_cell_length_b   16.93882169
_cell_length_c   16.93752081
_cell_angle_alpha   89.85452007
_cell_angle_beta   89.88517335
_cell_angle_gamma   89.73673995
_symmetry_Int_Tables_number   1
_chemical_formula_structural   V79Zn79O256
_chemical_formula_sum   'V79 Zn79 O256'
_cell_volume   4857.25463309
_cell_formula_units_Z   1
loop_
 _symmetry_equiv_pos_site_id
 _symmetry_equiv_pos_as_xyz
  1  'x, y, z'
loop_
 _atom_site_type_symbol
 _atom_site_label
 _atom_site_symmetry_multiplicity
 _atom_site_fract_x
 _atom_site_fract_y
 _atom_site_fract_z
 _atom_site_occupancy
  V  V0  1  0.24296143  0.75059501  0.00221707  1
  V  V1  1  0.75236330  0.61958468  0.88014099  1
  V  V2  1  0.87491217  0.23882410  0.62085875  1
  V  V3  1  0.37382726  0.37348447  0.00210055  1
  V  V4  1  0.61862695  0.12916996  0.49023783  1
  V  V5  1  0.49723638  0.62227928  0.12532529  1
  V  V6  1  0.62565051  0.62720364  0.00169955  1
  V  V7  1  0.87662788  0.62173486  0.76403906  1
  V  V8  1  0.12115926  0.88274204  0.74883340  1
  V  V9  1  0.24185774  0.87800072  0.62008323  1
  V  V10  1  0.00559866  0.50332734  0.50620917  1
  V  V11  1  0.24847507  0.88342720  0.12900338  1
  V  V12  1  0.62637458  0.88838799  0.72629608  1
  V  V13  1  0.24743577  0.62347730  0.87741986  1
  V  V14  1  0.00446279  0.62989450  0.13321616  1
  V  V15  1  0.36907300  0.74738022  0.12065947  1
  V  V16  1  0.51245810  0.25130254  0.75787171  1
  V  V17  1  0.49890078  0.61805578  0.62436000  1
  V  V18  1  0.89192516  0.40463450  -0.02832912  1
  V  V19  1  0.25281289  0.37714374  0.63533080  1
  V  V20  1  0.74974108  0.62189266  0.37277795  1
  V  V21  1  0.25168233  0.49877651  0.26471690  1
  V  V22  1  0.36957787  0.61815123  0.26687896  1
  V  V23  1  0.87467119  0.88027891  -0.01826305  1
  V  V24  1  0.25476261  0.11935014  0.87654336  1
  V  V25  1  0.86790788  0.13227509  0.24314035  1
  V  V26  1  0.61841464  0.76171027  0.87328500  1
  V  V27  1  0.87608273  0.36748538  0.50000839  1
  V  V28  1  0.63708180  0.13666981  -0.01061408  1
  V  V29  1  0.00913388  0.37194736  0.37325513  1
  V  V30  1  0.50570527  0.25430383  0.25777790  1
  V  V31  1  0.50694101  0.11683860  0.62764598  1
  V  V32  1  -0.00283320  0.87080132  0.37106495  1
  V  V33  1  0.00872286  -0.00134413  0.50509632  1
  V  V34  1  0.36921368  0.49860636  0.87085955  1
  V  V35  1  0.38013538  0.37780619  0.48766261  1
  V  V36  1  0.49002998  -0.00698253  -0.00541084  1
  V  V37  1  0.74489068  -0.01962647  0.24738370  1
  V  V38  1  0.00262828  0.11461093  0.12470665  1
  V  V39  1  0.51529276  0.37302876  0.87475961  1
  V  V40  1  0.63029534  -0.01415858  0.12141332  1
  V  V41  1  0.77727332  0.03167493  0.75525627  1
  V  V42  1  0.11662971  0.76037520  0.87959843  1
  V  V43  1  0.12468471  0.50772093  0.13243106  1
  V  V44  1  -0.00213834  0.62992447  0.62028463  1
  V  V45  1  0.12323842  0.25497437  0.86691574  1
  V  V46  1  0.36737393  0.10472423  0.24772212  1
  V  V47  1  0.12970567  0.74054897  0.37682864  1
  V  V48  1  -0.00581364  -0.00079635  -0.01504890  1
  V  V49  1  0.74849159  0.75812001  0.00605479  1
  V  V50  1  0.87597159  0.62290249  0.25024749  1
  V  V51  1  0.37164843  0.75034396  0.62180677  1
  V  V52  1  0.50056176  0.50034028  -0.00103292  1
  V  V53  1  0.01578495  0.11737966  0.62877405  1
  V  V54  1  -0.00107701  0.25867382  0.74596909  1
  V  V55  1  0.12347752  0.88465522  0.24587578  1
  V  V56  1  0.62300849  0.75098710  0.37136854  1
  V  V57  1  0.12304626  0.11710987  0.00074650  1
  V  V58  1  0.85474567  0.75561292  0.62308680  1
  V  V59  1  0.37057344  0.87596042  0.49284840  1
  V  V60  1  0.63694737  0.49153321  0.13076298  1
  V  V61  1  0.24556701  0.25006948  -0.00049610  1
  V  V62  1  0.23833272  0.37753572  0.12663492  1
  V  V63  1  0.87171412  0.49977291  0.37471145  1
  V  V64  1  0.50972812  0.12880005  0.12471274  1
  V  V65  1  -0.00553712  0.76288836  0.75116168  1
  V  V66  1  0.63317103  0.62939685  0.50645847  1
  V  V67  1  0.87199706  0.00542376  0.37692032  1
  V  V68  1  0.74827940  0.24886804  0.48962327  1
  V  V69  1  0.50098914  -0.00393927  0.50100182  1
  V  V70  1  0.07029862  0.57282832  -0.05059974  1
  V  V71  1  0.37964894  0.12014428  0.75680469  1
  V  V72  1  0.50060820  0.74911549  0.24979786  1
  V  V73  1  0.37220189  0.24741842  0.62071016  1
  V  V74  1  0.36897015  0.62430371  0.74886312  1
  V  V75  1  0.87422425  0.76187330  0.13663471  1
  V  V76  1  0.25248868  -0.00167622  0.75068337  1
  V  V77  1  0.49640164  0.87751582  0.36941655  1
  V  V78  1  0.01037784  0.25160732  0.24520750  1
  Zn  Zn79  1  0.71854609  0.48489211  0.74754147  1
  Zn  Zn80  1  0.73617485  0.37089745  0.63967487  1
  Zn  Zn81  1  0.37093893  0.24496440  0.12399321  1
  Zn  Zn82  1  0.12858978  0.39487492  0.74883988  1
  Zn  Zn83  1  0.22013110  0.20924391  0.46654330  1
  Zn  Zn84  1  0.85545022  0.88388605  0.51676412  1
  Zn  Zn85  1  0.79060546  0.34218049  0.10679655  1
  Zn  Zn86  1  0.73540753  0.12920077  0.36486253  1
  Zn  Zn87  1  0.55260308  0.31240760  0.41803660  1
  Zn  Zn88  1  0.18007705  0.32035568  0.30779333  1
  Zn  Zn89  1  0.16141945  0.53845946  0.61402878  1
  Zn  Zn90  1  0.23104355  0.71382219  0.50280264  1
  Zn  Zn91  1  0.47313129  0.88589267  0.86914449  1
  Zn  Zn92  1  0.49561024  0.75450471  0.75112922  1
  Zn  Zn93  1  0.50654213  0.49257055  0.49894861  1
  Zn  Zn94  1  0.18770731  0.18192105  0.18372502  1
  Zn  Zn95  1  0.18864955  0.18501003  0.68499866  1
  Zn  Zn96  1  0.18478971  0.69109516  0.19897030  1
  Zn  Zn97  1  0.18630134  0.69615682  0.68964184  1
  Zn  Zn98  1  0.69901725  0.23198912  0.19679539  1
  Zn  Zn99  1  0.69247989  0.18456945  0.68289307  1
  Zn  Zn100  1  0.69243492  0.68071476  0.18810454  1
  Zn  Zn101  1  0.67829425  0.66574617  0.70167339  1
  Zn  Zn102  1  0.34764672  0.27966360  0.32595384  1
  Zn  Zn103  1  0.31793306  0.30609697  0.81396999  1
  Zn  Zn104  1  0.30602623  0.80591209  0.31239812  1
  Zn  Zn105  1  0.30699349  0.81056474  0.81148647  1
  Zn  Zn106  1  0.81900071  0.31481097  0.30917524  1
  Zn  Zn107  1  0.82129735  0.32345412  0.80808450  1
  Zn  Zn108  1  0.79256054  0.82932246  0.35694499  1
  Zn  Zn109  1  0.80085330  0.81352775  0.80847861  1
  Zn  Zn110  1  0.19257584  0.43175900  0.45336457  1
  Zn  Zn111  1  0.18548108  0.43399753  0.93682935  1
  Zn  Zn112  1  0.18212633  0.93449524  0.43479658  1
  Zn  Zn113  1  0.19343529  0.93573059  0.93925541  1
  Zn  Zn114  1  0.67325815  0.43010876  0.48157597  1
  Zn  Zn115  1  0.69987861  0.43494699  0.95007886  1
  Zn  Zn116  1  0.68007788  0.94052960  0.44030439  1
  Zn  Zn117  1  0.69127729  0.94741094  0.93235614  1
  Zn  Zn118  1  0.31467767  0.06343014  0.06674882  1
  Zn  Zn119  1  0.31141106  0.05542947  0.56530704  1
  Zn  Zn120  1  0.31059707  0.56314993  0.06299392  1
  Zn  Zn121  1  0.32339869  0.55504116  0.55416735  1
  Zn  Zn122  1  0.81166768  0.06332666  0.06549355  1
  Zn  Zn123  1  0.80427767  0.06249393  0.56575101  1
  Zn  Zn124  1  0.83743855  0.53207169  0.07678796  1
  Zn  Zn125  1  0.81151803  0.56447095  0.56693467  1
  Zn  Zn126  1  0.43927099  0.43791408  0.18946689  1
  Zn  Zn127  1  0.43852884  0.43485006  0.69128714  1
  Zn  Zn128  1  0.44010465  0.93199190  0.17600684  1
  Zn  Zn129  1  0.43870920  0.93340284  0.68793908  1
  Zn  Zn130  1  0.94429555  0.43681101  0.18784875  1
  Zn  Zn131  1  0.89869995  0.45416423  0.67155430  1
  Zn  Zn132  1  0.93717664  0.94125017  0.18901731  1
  Zn  Zn133  1  0.92405058  0.94203304  0.69112848  1
  Zn  Zn134  1  0.06083104  0.05544373  0.30973622  1
  Zn  Zn135  1  0.06249094  0.06728319  0.81111477  1
  Zn  Zn136  1  0.06075858  0.56000070  0.31389186  1
  Zn  Zn137  1  0.05671472  0.55739148  0.77899815  1
  Zn  Zn138  1  0.55814796  0.05829201  0.30785751  1
  Zn  Zn139  1  0.57576412  0.05840412  0.81627864  1
  Zn  Zn140  1  0.56684717  0.55642155  0.31452778  1
  Zn  Zn141  1  0.55812652  0.56505281  0.81384317  1
  Zn  Zn142  1  0.40267637  0.16082984  0.44700989  1
  Zn  Zn143  1  0.44349205  0.18522211  0.94139041  1
  Zn  Zn144  1  0.43831354  0.68962714  0.44245911  1
  Zn  Zn145  1  0.43341972  0.69175461  0.93841232  1
  Zn  Zn146  1  1.03290176  0.19074936  0.44317571  1
  Zn  Zn147  1  0.94615401  0.20978367  0.94751552  1
  Zn  Zn148  1  0.93436995  0.69153822  0.44116417  1
  Zn  Zn149  1  0.93498514  0.69732961  0.94373966  1
  Zn  Zn150  1  0.04366216  0.31133918  0.05365771  1
  Zn  Zn151  1  0.06771942  0.31372199  0.56374758  1
  Zn  Zn152  1  0.05716331  0.81621745  0.06395923  1
  Zn  Zn153  1  0.05263395  0.81352891  0.55956087  1
  Zn  Zn154  1  0.56771519  0.31327723  0.06283492  1
  Zn  Zn155  1  0.56307265  0.31024114  0.58304633  1
  Zn  Zn156  1  0.55730049  0.81246575  0.06346031  1
  Zn  Zn157  1  0.55929221  0.80439624  0.55807789  1
  O  O158  1  0.11745633  0.12726191  0.10880763  1
  O  O159  1  0.11563436  0.11945684  0.62336656  1
  O  O160  1  0.11621585  0.62417280  0.13246190  1
  O  O161  1  0.10026298  0.64085513  0.63540298  1
  O  O162  1  0.61346778  0.11427252  0.11717732  1
  O  O163  1  0.61113027  0.13409714  0.61092195  1
  O  O164  1  0.61581344  0.62712984  0.11515528  1
  O  O165  1  0.61117299  0.65078247  0.60782925  1
  O  O166  1  0.37837060  0.37076368  0.38943910  1
  O  O167  1  0.37716569  0.38207267  0.88370376  1
  O  O168  1  0.38091477  0.86261010  0.38402197  1
  O  O169  1  0.36669400  0.86312783  0.88412629  1
  O  O170  1  0.88647917  0.38152312  0.37790605  1
  O  O171  1  0.89310320  0.37799298  0.87380821  1
  O  O172  1  0.88808088  0.89312641  0.35905007  1
  O  O173  1  0.87380360  0.86909967  0.88387215  1
  O  O174  1  0.21112878  0.04001363  0.38127113  1
  O  O175  1  0.24826992  0.01052464  0.86685548  1
  O  O176  1  0.24333712  0.48753852  0.36312530  1
  O  O177  1  0.25805115  0.51045288  0.88247269  1
  O  O178  1  0.75121206  0.00885251  0.35722278  1
  O  O179  1  0.73630276  0.00018987  0.84605515  1
  O  O180  1  0.76368250  0.51289882  0.38617419  1
  O  O181  1  0.73853076  0.51905417  0.87497299  1
  O  O182  1  0.24221464  0.49674355  0.12956470  1
  O  O183  1  0.26750950  0.47791116  0.63044446  1
  O  O184  1  0.25081860  0.98093181  0.11574776  1
  O  O185  1  0.25367731  0.99065538  0.63842890  1
  O  O186  1  0.73235842  0.51867928  0.11807511  1
  O  O187  1  0.78568741  0.48496950  0.64330273  1
  O  O188  1  0.74096148  0.99809595  0.13646023  1
  O  O189  1  0.76001892  1.00775159  0.65376227  1
  O  O190  1  -0.00166833  0.35926182  0.25375029  1
  O  O191  1  0.01254789  0.35717510  0.73460778  1
  O  O192  1  0.01199965  0.88200618  0.25631841  1
  O  O193  1  0.00843516  0.87179110  0.74190037  1
  O  O194  1  0.49456086  0.35351549  0.24060994  1
  O  O195  1  0.49775624  0.36054776  0.75895424  1
  O  O196  1  0.48820897  0.85824570  0.25547722  1
  O  O197  1  0.51054937  0.87114746  0.75411107  1
  O  O198  1  0.49608779  0.12162245  0.23354378  1
  O  O199  1  0.49746070  0.12945006  0.74910215  1
  O  O200  1  0.48697833  0.62775338  0.24778923  1
  O  O201  1  0.48219396  0.63302940  0.74589162  1
  O  O202  1  0.99863030  0.12610611  0.24308839  1
  O  O203  1  1.00307436  0.12723286  0.73268168  1
  O  O204  1  0.98930537  0.62713451  0.24457374  1
  O  O205  1  0.98885297  0.64461065  0.74637200  1
  O  O206  1  0.36806814  0.25886169  -0.00012680  1
  O  O207  1  0.38939650  0.25976467  0.51816187  1
  O  O208  1  0.36260260  0.74474925  0.01312024  1
  O  O209  1  0.36758997  0.75697440  0.50838483  1
  O  O210  1  0.92384556  0.29444918  0.01674409  1
  O  O211  1  0.86844142  0.25521880  0.50358389  1
  O  O212  1  0.86820560  0.76508740  0.00941519  1
  O  O213  1  0.87166453  0.74867912  0.52021698  1
  O  O214  1  0.11805628  0.24102891  0.49422090  1
  O  O215  1  0.12416767  0.24141019  0.98789532  1
  O  O216  1  0.12271647  0.76308760  0.48432673  1
  O  O217  1  0.12791927  0.75595170  0.99136841  1
  O  O218  1  0.62778423  0.24564291  0.49160632  1
  O  O219  1  0.62163083  0.23605343  1.00158136  1
  O  O220  1  0.61346347  0.73904204  0.48045262  1
  O  O221  1  0.62947537  0.74760229  0.99828466  1
  O  O222  1  0.50369740  0.23641827  0.12719584  1
  O  O223  1  0.49207134  0.24065486  0.64134323  1
  O  O224  1  0.48927667  0.74471242  0.13139625  1
  O  O225  1  0.48353055  0.74209628  0.62460038  1
  O  O226  1  1.00841265  0.23744631  0.14066605  1
  O  O227  1  0.99952838  0.23510828  0.62864057  1
  O  O228  1  0.98335296  0.74099188  0.11783231  1
  O  O229  1  0.98737803  0.74932793  0.63430817  1
  O  O230  1  0.00092893  0.25914884  0.36107283  1
  O  O231  1  0.00945619  0.23838087  0.85398965  1
  O  O232  1  0.00181291  0.76640133  0.38259805  1
  O  O233  1  0.00801982  0.74948709  0.86731257  1
  O  O234  1  0.48414019  0.24281033  0.36154140  1
  O  O235  1  0.49591249  0.25711752  0.86513711  1
  O  O236  1  0.50241084  0.75379213  0.36617404  1
  O  O237  1  0.51152159  0.75202644  0.88046643  1
  O  O238  1  0.29774845  0.13565701  0.49327969  1
  O  O239  1  0.24295617  0.12753047  0.99509897  1
  O  O240  1  0.22882780  0.60947274  0.54251585  1
  O  O241  1  0.25215911  0.63622948  0.98877399  1
  O  O242  1  0.73435915  0.13137634  0.49808913  1
  O  O243  1  0.73610027  0.11926772  1.00543325  1
  O  O244  1  0.73967914  0.62711897  0.49613634  1
  O  O245  1  0.74057111  0.64038280  0.99493180  1
  O  O246  1  0.25585227  0.37072383  0.00462096  1
  O  O247  1  0.27177859  0.37186660  0.51450320  1
  O  O248  1  0.24039083  0.86178713  0.01633681  1
  O  O249  1  0.25775822  0.88759151  0.50745784  1
  O  O250  1  0.78363253  0.37477718  -0.00756503  1
  O  O251  1  0.76695480  0.36496992  0.48798560  1
  O  O252  1  0.76091454  0.86864334  -0.00470816  1
  O  O253  1  0.75961483  0.86769861  0.46103354  1
  O  O254  1  0.13660161  0.50679088  0.24149441  1
  O  O255  1  0.13187034  0.50426050  0.72277485  1
  O  O256  1  0.12791035  0.98452022  0.24766629  1
  O  O257  1  0.13559398  0.99119488  0.75644740  1
  O  O258  1  0.61953533  0.50610859  0.22883111  1
  O  O259  1  0.63601524  0.55853978  0.73612227  1
  O  O260  1  0.63732143  1.00393056  0.23877750  1
  O  O261  1  0.61466338  0.98911708  0.73629066  1
  O  O262  1  0.38053857  0.00476063  0.23629681  1
  O  O263  1  0.36819394  0.01036350  0.74714587  1
  O  O264  1  0.36951186  0.51120232  0.24781010  1
  O  O265  1  0.37828925  0.50879129  0.76304334  1
  O  O266  1  0.85888596  0.00700162  0.24849403  1
  O  O267  1  0.87726055  0.01096725  0.76553973  1
  O  O268  1  0.88562433  0.50876863  0.26649557  1
  O  O269  1  0.89490002  0.52357405  0.76477301  1
  O  O270  1  0.11216052  0.38553510  0.37676551  1
  O  O271  1  0.13426726  0.36029507  0.86652510  1
  O  O272  1  0.11699588  0.87283957  0.36367666  1
  O  O273  1  0.13230501  0.86823885  0.86423725  1
  O  O274  1  0.60461035  0.41107546  0.38368809  1
  O  O275  1  0.61275141  0.38462576  0.88672732  1
  O  O276  1  0.60891902  0.86191564  0.37531551  1
  O  O277  1  0.62327656  0.86283430  0.88032137  1
  O  O278  1  0.39295251  0.12431636  0.12357049  1
  O  O279  1  0.38730604  0.13242582  0.63671991  1
  O  O280  1  0.37961062  0.63041827  0.12984131  1
  O  O281  1  0.37863423  0.63083037  0.63147505  1
  O  O282  1  0.88631742  0.11870038  0.13714397  1
  O  O283  1  0.88460571  0.13663373  0.61462694  1
  O  O284  1  0.88578263  0.62352776  0.13425871  1
  O  O285  1  0.88025101  0.63737965  0.64149850  1
  O  O286  1  0.24717254  0.26155054  0.11677164  1
  O  O287  1  0.26773079  0.24833660  0.62783459  1
  O  O288  1  0.25220367  0.74834912  0.11915882  1
  O  O289  1  0.25492102  0.76198570  0.62170906  1
  O  O290  1  0.75784836  0.23588790  0.10413776  1
  O  O291  1  0.75840980  0.25070830  0.61039350  1
  O  O292  1  0.76342964  0.74249277  0.11631363  1
  O  O293  1  0.75876560  0.73613465  0.63827658  1
  O  O294  1  0.24927387  0.25845385  0.36945778  1
  O  O295  1  0.24386684  0.23877523  0.87910751  1
  O  O296  1  0.23635360  0.74667437  0.38437222  1
  O  O297  1  0.23576932  0.74221191  0.88224525  1
  O  O298  1  0.75859549  0.24438327  0.38549026  1
  O  O299  1  0.78903097  0.22771693  0.88722170  1
  O  O300  1  0.73526032  0.73233806  0.36379625  1
  O  O301  1  0.73683284  0.74524460  0.88575393  1
  O  O302  1  0.00257181  0.12032288  0.00509416  1
  O  O303  1  -0.00041520  0.10731605  0.50854450  1
  O  O304  1  0.00429844  0.62778003  0.00815019  1
  O  O305  1  -0.00932046  0.61612807  0.50877879  1
  O  O306  1  0.50927088  0.11485460  0.00772514  1
  O  O307  1  0.49873753  0.11599694  0.50706263  1
  O  O308  1  0.50543242  0.62184153  0.00379114  1
  O  O309  1  0.50261331  0.62177882  0.50820958  1
  O  O310  1  0.49110781  0.36890315  0.50662449  1
  O  O311  1  0.49033792  0.37789994  0.99303584  1
  O  O312  1  0.49128968  0.87692246  0.49116648  1
  O  O313  1  0.49984348  0.88985601  1.00339355  1
  O  O314  1  0.99331320  0.37796084  0.49178759  1
  O  O315  1  0.99903240  0.40023810  0.99952873  1
  O  O316  1  0.98432496  0.88742631  0.49430667  1
  O  O317  1  0.98474115  0.88367699  1.00228711  1
  O  O318  1  0.53621476  0.46629655  0.38210407  1
  O  O319  1  0.49095926  0.49329787  0.87822472  1
  O  O320  1  0.50269291  0.98432279  0.38036433  1
  O  O321  1  0.50851601  0.99791681  0.89094999  1
  O  O322  1  0.99335420  0.49453841  0.38501278  1
  O  O323  1  1.02260270  0.51735058  0.88298738  1
  O  O324  1  0.99461722  0.99539585  0.38721130  1
  O  O325  1  0.99635764  1.01037293  0.88595830  1
  O  O326  1  -0.00156475  0.00944297  0.11408734  1
  O  O327  1  -0.01069068  0.00817637  0.61516885  1
  O  O328  1  0.01584305  0.51441815  0.13299936  1
  O  O329  1  -0.01589436  0.51501494  0.61689760  1
  O  O330  1  0.51316576  0.00344332  0.11665347  1
  O  O331  1  0.49281606  0.00869407  0.61628667  1
  O  O332  1  0.50593115  0.50448204  0.11647600  1
  O  O333  1  0.49379863  0.51519418  0.62938041  1
  O  O334  1  0.25119328  0.38357713  0.23564781  1
  O  O335  1  0.25215224  0.36329213  0.73983093  1
  O  O336  1  0.23969278  0.87048752  0.23958779  1
  O  O337  1  0.24206192  0.88079580  0.74074458  1
  O  O338  1  0.75621141  0.33275592  0.21904856  1
  O  O339  1  0.73898154  0.37324506  0.75470813  1
  O  O340  1  0.74906247  0.88294016  0.25717946  1
  O  O341  1  0.72416641  0.87055345  0.74914911  1
  O  O342  1  0.26876704  0.11942885  0.22581849  1
  O  O343  1  0.25799787  0.11731180  0.75620537  1
  O  O344  1  0.26318103  0.61678747  0.25017184  1
  O  O345  1  0.25754526  0.63474479  0.76348584  1
  O  O346  1  0.76387169  0.13586636  0.24768362  1
  O  O347  1  0.76034184  0.13335519  0.75476793  1
  O  O348  1  0.76369058  0.62140812  0.25873277  1
  O  O349  1  0.77117751  0.63269712  0.76424531  1
  O  O350  1  0.38013144  0.11586095  0.34703739  1
  O  O351  1  0.36556802  0.13221907  0.86888651  1
  O  O352  1  0.37793547  0.62593496  0.36552272  1
  O  O353  1  0.36756791  0.62002238  0.86940893  1
  O  O354  1  0.88017450  0.10904438  0.35391270  1
  O  O355  1  0.83974653  0.17334420  0.89984038  1
  O  O356  1  0.86988311  0.62243382  0.37110228  1
  O  O357  1  0.86781600  0.64090079  0.87062007  1
  O  O358  1  0.13355026  0.38833468  0.11463035  1
  O  O359  1  0.14989003  0.36524824  0.62317014  1
  O  O360  1  0.13250408  0.86456392  0.13795468  1
  O  O361  1  0.13317867  0.86781754  0.63441538  1
  O  O362  1  0.63327194  0.39124916  0.11023985  1
  O  O363  1  0.63864705  0.38852400  0.58703857  1
  O  O364  1  0.62273504  0.88664277  0.12440130  1
  O  O365  1  0.61776707  0.86864290  0.62791281  1
  O  O366  1  0.11534856  0.24116062  0.25253077  1
  O  O367  1  0.11743511  0.24325246  0.75414997  1
  O  O368  1  0.12677402  0.76212952  0.26838095  1
  O  O369  1  0.11570606  0.76208852  0.75919984  1
  O  O370  1  0.60543701  0.23471325  0.25534761  1
  O  O371  1  0.61006131  0.24343654  0.74506114  1
  O  O372  1  0.60924123  0.73514955  0.25565516  1
  O  O373  1  0.62155546  0.75151657  0.76724814  1
  O  O374  1  0.39170713  0.23069467  0.23625487  1
  O  O375  1  0.38400778  0.23618582  0.74507269  1
  O  O376  1  0.37718879  0.73451044  0.24354965  1
  O  O377  1  0.37009096  0.74269142  0.73760020  1
  O  O378  1  0.89306531  0.23320542  0.25412056  1
  O  O379  1  0.89192947  0.25585672  0.73656475  1
  O  O380  1  0.87026459  0.74047685  0.23684585  1
  O  O381  1  0.88121003  0.75218374  0.74667387  1
  O  O382  1  0.38843168  0.48320195  0.49931234  1
  O  O383  1  0.37909189  0.49423647  0.99058287  1
  O  O384  1  0.38764693  0.98523443  0.50318423  1
  O  O385  1  0.39131477  1.00599430  1.00245180  1
  O  O386  1  0.88333091  0.48999452  0.49253715  1
  O  O387  1  0.87948973  0.50702049  0.97416227  1
  O  O388  1  0.87113725  1.00231746  0.48825024  1
  O  O389  1  0.87612367  0.98606577  1.00300390  1
  O  O390  1  0.11528167  0.01092827  -0.01017593  1
  O  O391  1  0.10661913  -0.01287253  0.50617305  1
  O  O392  1  0.13121884  0.51188570  0.00750681  1
  O  O393  1  0.10897103  0.48950966  0.51335156  1
  O  O394  1  0.62525234  0.00475277  0.01242480  1
  O  O395  1  0.60896406  0.00833138  0.49827824  1
  O  O396  1  0.61979286  0.51281332  0.00451926  1
  O  O397  1  0.62043632  0.52790801  0.50656846  1
  O  O398  1  0.36556165  0.37909156  0.11077489  1
  O  O399  1  0.37353397  0.35818460  0.63163465  1
  O  O400  1  0.35761558  0.85895527  0.13404927  1
  O  O401  1  0.36614992  0.86748873  0.61762163  1
  O  O402  1  0.87040784  0.42154764  0.10819461  1
  O  O403  1  0.88492395  0.35742447  0.60977141  1
  O  O404  1  0.87691719  0.86284134  0.12892938  1
  O  O405  1  0.86708385  0.86161478  0.63108687  1
  O  O406  1  0.15398987  0.09377991  0.37539906  1
  O  O407  1  0.13578599  0.13248425  0.88009705  1
  O  O408  1  0.11248327  0.64211334  0.37360602  1
  O  O409  1  0.12801942  0.63334289  0.88056654  1
  O  O410  1  0.61753739  0.12061685  0.38572363  1
  O  O411  1  0.62390639  0.12592411  0.88980978  1
  O  O412  1  0.63026831  0.62863694  0.38233876  1
  O  O413  1  0.62796829  0.63789026  0.88937736  1
