# generated using pymatgen
data_V79Zn79O256
_symmetry_space_group_name_H-M   'P 1'
_cell_length_a   16.90021465
_cell_length_b   16.93165274
_cell_length_c   16.89843781
_cell_angle_alpha   90.11530752
_cell_angle_beta   90.03288746
_cell_angle_gamma   90.03992315
_symmetry_Int_Tables_number   1
_chemical_formula_structural   V79Zn79O256
_chemical_formula_sum   'V79 Zn79 O256'
_cell_volume   4835.45197707
_cell_formula_units_Z   1
loop_
 _symmetry_equiv_pos_site_id
 _symmetry_equiv_pos_as_xyz
  1  'x, y, z'
loop_
 _atom_site_type_symbol
 _atom_site_label
 _atom_site_symmetry_multiplicity
 _atom_site_fract_x
 _atom_site_fract_y
 _atom_site_fract_z
 _atom_site_occupancy
  V  V0  1  0.13565581  0.26161542  0.37566336  1
  V  V1  1  0.37702803  0.37672705  0.50110171  1
  V  V2  1  0.23967798  0.87639937  0.12394251  1
  V  V3  1  0.24748430  0.62744518  0.38777085  1
  V  V4  1  0.00023362  0.86346793  0.87782724  1
  V  V5  1  0.50050384  0.76651609  0.25715313  1
  V  V6  1  0.50292549  0.63055247  0.62932107  1
  V  V7  1  0.87656585  0.12207540  0.25308478  1
  V  V8  1  0.62402456  0.13348812  0.49378602  1
  V  V9  1  0.50661716  0.25625865  0.26361411  1
  V  V10  1  -0.00214407  0.50693161  -0.00183842  1
  V  V11  1  0.63711489  -0.00527630  0.62910972  1
  V  V12  1  0.89196552  0.24891291  0.61838441  1
  V  V13  1  0.37573403  0.37356949  0.00017546  1
  V  V14  1  0.50438386  0.50046997  0.50038053  1
  V  V15  1  0.62908733  0.62212515  0.00427456  1
  V  V16  1  0.37641853  0.76220146  0.62175796  1
  V  V17  1  0.50037765  0.12152501  0.12456348  1
  V  V18  1  0.74820268  0.87472770  0.13270346  1
  V  V19  1  0.62154908  0.74724566  0.87169141  1
  V  V20  1  0.64120402  0.49815412  0.63071916  1
  V  V21  1  0.00491737  0.26292250  0.25587937  1
  V  V22  1  0.24973656  -0.01133115  0.74770371  1
  V  V23  1  0.14652211  0.74846740  0.87930119  1
  V  V24  1  0.50520240  0.24968065  0.75108018  1
  V  V25  1  0.74505017  0.37118317  0.13514272  1
  V  V26  1  0.75355468  0.36032490  0.62275252  1
  V  V27  1  0.37976310  0.49908668  0.37783331  1
  V  V28  1  0.13959118  0.62937375  -0.00265769  1
  V  V29  1  0.74572941  0.24687453  -0.00920083  1
  V  V30  1  0.00379882  0.88232715  0.38017376  1
  V  V31  1  0.87924329  0.64216642  0.75052120  1
  V  V32  1  0.62606766  0.76520902  0.37604082  1
  V  V33  1  0.74684736  -0.00071247  0.25590931  1
  V  V34  1  0.87538894  0.87156877  0.00862327  1
  V  V35  1  0.37473177  0.24938816  0.12648173  1
  V  V36  1  0.12466211  0.75489191  0.36338976  1
  V  V37  1  0.24872884  0.37811058  0.62645817  1
  V  V38  1  0.87797559  0.38091395  0.48605707  1
  V  V39  1  0.62514839  0.49453822  0.13645046  1
  V  V40  1  0.25043803  0.76877990  0.50306909  1
  V  V41  1  0.38359283  -0.00139268  0.89454574  1
  V  V42  1  0.74526160  0.13816885  0.37725136  1
  V  V43  1  0.50641039  0.36814402  0.87359939  1
  V  V44  1  0.49891902  0.87157332  0.88329430  1
  V  V45  1  0.63888466  0.63253317  0.50179438  1
  V  V46  1  0.87197955  0.49287336  0.86403904  1
  V  V47  1  0.00902633  -0.00031744  -0.00203746  1
  V  V48  1  0.12241894  0.50868625  0.12582246  1
  V  V49  1  0.12222852  0.37079160  0.76410873  1
  V  V50  1  0.37061506  0.12232950  0.75389558  1
  V  V51  1  0.49151075  -0.01094662  0.49020369  1
  V  V52  1  -0.02561041  0.74656773  0.23294064  1
  V  V53  1  0.23694231  0.24754198  -0.00068853  1
  V  V54  1  0.49381648  0.12000640  0.62316664  1
  V  V55  1  0.62297278  -0.00091996  0.12883303  1
  V  V56  1  0.24164897  0.37696294  0.12704811  1
  V  V57  1  0.75493977  0.74692787  0.00808867  1
  V  V58  1  0.36310346  0.12344074  0.25997001  1
  V  V59  1  0.85852847  0.00149777  0.86704526  1
  V  V60  1  0.50163971  0.49660922  0.00071521  1
  V  V61  1  0.23604847  0.12367722  0.88454675  1
  V  V62  1  0.37708402  0.62762761  0.25280856  1
  V  V63  1  0.75379309  0.62588697  0.35483048  1
  V  V64  1  0.37453410  0.50316735  0.87398203  1
  V  V65  1  0.37925474  0.62972674  0.75135092  1
  V  V66  1  0.00413274  0.51414256  0.49233303  1
  V  V67  1  0.85158395  0.87466342  0.50343990  1
  V  V68  1  0.25029941  0.50584000  0.75258022  1
  V  V69  1  0.12526033  0.00015539  0.14751862  1
  V  V70  1  0.62609501  0.12422045  -0.00807372  1
  V  V71  1  0.36893166  0.24900007  0.62597555  1
  V  V72  1  0.49868451  0.62406175  0.12725578  1
  V  V73  1  0.36357592  -0.01190756  0.37321686  1
  V  V74  1  0.12389529  0.86929528  0.74563408  1
  V  V75  1  0.37224810  0.75986604  0.11340276  1
  V  V76  1  0.87895691  0.37360183  -0.00172121  1
  V  V77  1  0.24607228  0.49878121  0.25132784  1
  V  V78  1  0.00003094  0.12506393  0.12544980  1
  Zn  Zn79  1  -0.00930734  0.24678136  0.77342186  1
  Zn  Zn80  1  0.12462962  0.50848725  0.61860552  1
  Zn  Zn81  1  0.63617414  0.37561747  0.75865593  1
  Zn  Zn82  1  0.62813097  0.37699438  0.27500106  1
  Zn  Zn83  1  0.00613309  0.11884921  0.62012960  1
  Zn  Zn84  1  0.87976681  0.75805236  0.62053095  1
  Zn  Zn85  1  0.25161412  0.23654442  0.49342993  1
  Zn  Zn86  1  0.01225967  0.63551610  0.63019642  1
  Zn  Zn87  1  0.74890241  0.61782664  0.87135139  1
  Zn  Zn88  1  0.87744795  0.51340522  0.36020625  1
  Zn  Zn89  1  0.11236725  -0.00887443  0.61060684  1
  Zn  Zn90  1  0.62704588  0.87190126  0.74595822  1
  Zn  Zn91  1  0.12568357  0.11439901  0.49156710  1
  Zn  Zn92  1  0.88425818  0.00673955  0.38703955  1
  Zn  Zn93  1  0.87354110  0.24674625  0.12658568  1
  Zn  Zn94  1  0.18125053  0.18897728  0.18708951  1
  Zn  Zn95  1  0.15172347  0.16827802  0.70919460  1
  Zn  Zn96  1  0.19207312  0.68669079  0.18653078  1
  Zn  Zn97  1  0.19291737  0.68990173  0.68684242  1
  Zn  Zn98  1  0.68583886  0.18708923  0.18880124  1
  Zn  Zn99  1  0.68328886  0.18501102  0.67177831  1
  Zn  Zn100  1  0.68144680  0.69257474  0.18873798  1
  Zn  Zn101  1  0.69676899  0.68205482  0.69251541  1
  Zn  Zn102  1  0.31567200  0.31525832  0.31093327  1
  Zn  Zn103  1  0.30937934  0.31112208  0.81480159  1
  Zn  Zn104  1  0.30783933  0.81661261  0.30644478  1
  Zn  Zn105  1  0.32140064  0.81206777  0.81567254  1
  Zn  Zn106  1  0.81769307  0.31067712  0.31356657  1
  Zn  Zn107  1  0.78850211  0.25098864  0.78523332  1
  Zn  Zn108  1  0.81584214  0.81222803  0.31829527  1
  Zn  Zn109  1  0.80904889  0.81175908  0.82148392  1
  Zn  Zn110  1  0.18429422  0.43423736  0.43325735  1
  Zn  Zn111  1  0.19225653  0.44218581  0.94111132  1
  Zn  Zn112  1  0.18811458  0.93754386  0.43279333  1
  Zn  Zn113  1  0.19435721  0.93370184  0.94207473  1
  Zn  Zn114  1  0.69956555  0.44853457  0.44032418  1
  Zn  Zn115  1  0.69254162  0.43430063  0.94235956  1
  Zn  Zn116  1  0.68169263  0.94791834  0.44055568  1
  Zn  Zn117  1  0.68069442  0.93363061  0.94515437  1
  Zn  Zn118  1  0.30623516  0.06325288  0.06903247  1
  Zn  Zn119  1  0.30337165  0.05587279  0.56012564  1
  Zn  Zn120  1  0.31503007  0.56541585  0.06275365  1
  Zn  Zn121  1  0.31434108  0.56599526  0.56734246  1
  Zn  Zn122  1  0.81355128  0.05813702  0.05997716  1
  Zn  Zn123  1  0.81595439  0.06343667  0.55970757  1
  Zn  Zn124  1  0.81325926  0.55609794  0.07605597  1
  Zn  Zn125  1  0.82392686  0.56616511  0.56420057  1
  Zn  Zn126  1  0.43654884  0.43590029  0.19023076  1
  Zn  Zn127  1  0.44302013  0.43879947  0.68677079  1
  Zn  Zn128  1  0.43060478  0.94048994  0.18786525  1
  Zn  Zn129  1  0.44545489  0.93682013  0.69957253  1
  Zn  Zn130  1  0.94148486  0.43431500  0.17400173  1
  Zn  Zn131  1  0.94447425  0.43648109  0.67947328  1
  Zn  Zn132  1  0.94028353  0.93279614  0.19624810  1
  Zn  Zn133  1  0.93007418  0.93466953  0.68169823  1
  Zn  Zn134  1  0.06826260  0.07112105  0.32100171  1
  Zn  Zn135  1  0.03128384  0.04348118  0.78270700  1
  Zn  Zn136  1  0.06015480  0.57300818  0.31262496  1
  Zn  Zn137  1  0.06036714  0.56155944  0.81514991  1
  Zn  Zn138  1  0.55681274  0.06418730  0.31027474  1
  Zn  Zn139  1  0.56316924  0.05924851  0.81028925  1
  Zn  Zn140  1  0.56608129  0.56870717  0.31722881  1
  Zn  Zn141  1  0.56314821  0.55985501  0.81326361  1
  Zn  Zn142  1  0.43277749  0.18281236  0.44035765  1
  Zn  Zn143  1  0.43712097  0.18632435  0.93983234  1
  Zn  Zn144  1  0.44056866  0.69096301  0.44220164  1
  Zn  Zn145  1  0.44138144  0.68453113  0.93787584  1
  Zn  Zn146  1  0.94467318  0.18991057  0.44013330  1
  Zn  Zn147  1  0.92964860  0.17794095  0.93970384  1
  Zn  Zn148  1  0.93503689  0.69559970  0.43879436  1
  Zn  Zn149  1  0.93915241  0.68105089  0.93853973  1
  Zn  Zn150  1  0.05583828  0.31718418  -0.05664687  1
  Zn  Zn151  1  0.06504469  0.32713770  0.55266412  1
  Zn  Zn152  1  0.06469271  0.81068342  0.06279678  1
  Zn  Zn153  1  0.06146203  0.80313930  0.55751707  1
  Zn  Zn154  1  0.56251225  0.30761600  0.06419824  1
  Zn  Zn155  1  0.56513660  0.31631066  0.44461684  1
  Zn  Zn156  1  0.56076497  0.81341836  0.06395350  1
  Zn  Zn157  1  0.56214693  0.81456163  0.55995047  1
  O  O158  1  0.11505593  0.10888134  0.13281440  1
  O  O159  1  0.13244490  0.11157209  0.61493803  1
  O  O160  1  0.13542096  0.61967026  0.11105041  1
  O  O161  1  0.12608425  0.61991246  0.63498594  1
  O  O162  1  0.61721869  0.11891699  0.12236853  1
  O  O163  1  0.61285404  0.11394084  0.61323646  1
  O  O164  1  0.61927221  0.61555902  0.12156495  1
  O  O165  1  0.62190884  0.62285587  0.62256124  1
  O  O166  1  0.36881577  0.39071563  0.38489166  1
  O  O167  1  0.38395156  0.38190526  0.87999861  1
  O  O168  1  0.37611328  0.88922545  0.36572400  1
  O  O169  1  0.38716408  0.88546811  0.87795667  1
  O  O170  1  0.86499535  0.38818418  0.38225831  1
  O  O171  1  0.86819652  0.38693633  0.89395390  1
  O  O172  1  0.88490103  0.87710548  0.38637352  1
  O  O173  1  0.88113423  0.87525105  0.88960210  1
  O  O174  1  0.26450205  -0.00211629  0.37304241  1
  O  O175  1  0.26341521  0.00770094  0.87757458  1
  O  O176  1  0.25689309  0.50859269  0.37007450  1
  O  O177  1  0.26680154  0.49482923  0.86844183  1
  O  O178  1  0.74544204  0.01059351  0.36498457  1
  O  O179  1  0.75940090  -0.01372707  0.88219695  1
  O  O180  1  0.75636228  0.52187469  0.37356068  1
  O  O181  1  0.76622633  0.50159088  0.88671810  1
  O  O182  1  0.24868007  0.49703983  0.13212355  1
  O  O183  1  0.25533380  0.49322163  0.63564856  1
  O  O184  1  0.23161613  0.99539689  0.12295291  1
  O  O185  1  0.25449270  0.99554719  0.64753109  1
  O  O186  1  0.73643831  0.48140269  0.12143412  1
  O  O187  1  0.74180722  0.50718558  0.62759145  1
  O  O188  1  0.74325854  0.99521625  0.13467675  1
  O  O189  1  0.73494780  1.00478068  0.61933349  1
  O  O190  1  -0.00795714  0.36035494  0.24148906  1
  O  O191  1  0.02148498  0.37202099  0.74381223  1
  O  O192  1  -0.00955484  0.85587362  0.26655161  1
  O  O193  1  0.01983468  0.87588308  0.76506782  1
  O  O194  1  0.49758723  0.35919979  0.24934701  1
  O  O195  1  0.49868750  0.36644686  0.75748862  1
  O  O196  1  0.49602170  0.86443981  0.24892801  1
  O  O197  1  0.51073995  0.88047089  0.77257209  1
  O  O198  1  0.49213846  0.13858112  0.24326988  1
  O  O199  1  0.48952017  0.12774845  0.74470783  1
  O  O200  1  0.48964592  0.62771507  0.24722883  1
  O  O201  1  0.49309065  0.61889526  0.73972415  1
  O  O202  1  0.98921182  0.12202500  0.24632470  1
  O  O203  1  1.03566898  0.14846477  0.73729537  1
  O  O204  1  1.00583133  0.65129810  0.25229373  1
  O  O205  1  0.98083405  0.61046491  0.74934662  1
  O  O206  1  0.36945588  0.25227703  0.01218040  1
  O  O207  1  0.37435300  0.25968707  0.50729933  1
  O  O208  1  0.38017982  0.73984945  0.01589463  1
  O  O209  1  0.36901627  0.74880158  0.51227015  1
  O  O210  1  0.86127368  0.25366087  0.00727194  1
  O  O211  1  0.88206997  0.27356486  0.50103247  1
  O  O212  1  0.86473895  0.75526198  -0.00170283  1
  O  O213  1  0.87078170  0.76868457  0.49816623  1
  O  O214  1  0.13160931  0.26321931  0.48516149  1
  O  O215  1  0.13861518  0.25836506  1.00292851  1
  O  O216  1  0.14554633  0.75613184  0.49005208  1
  O  O217  1  0.12689193  0.73791331  0.99458619  1
  O  O218  1  0.61332968  0.23173617  0.50585215  1
  O  O219  1  0.63523446  0.23856055  1.00548772  1
  O  O220  1  0.61332951  0.74358208  0.48452080  1
  O  O221  1  0.62991014  0.73743310  0.99902204  1
  O  O222  1  0.48988133  0.24354273  0.13333931  1
  O  O223  1  0.48171597  0.23414575  0.63385690  1
  O  O224  1  0.49377767  0.74600886  0.13718976  1
  O  O225  1  0.49001239  0.74007621  0.61775578  1
  O  O226  1  0.99814685  0.23063643  0.13955517  1
  O  O227  1  0.99366334  0.25976821  0.61570728  1
  O  O228  1  0.99497734  0.75991144  0.13430701  1
  O  O229  1  0.99574522  0.74770619  0.62585993  1
  O  O230  1  0.00131572  0.25380595  0.35946891  1
  O  O231  1  -0.01200927  0.25317664  0.88436730  1
  O  O232  1  0.01689428  0.75415694  0.37210562  1
  O  O233  1  0.00738830  0.76052370  0.88614869  1
  O  O234  1  0.49624421  0.25031440  0.36781521  1
  O  O235  1  0.49141993  0.25761626  0.86525796  1
  O  O236  1  0.50609019  0.74677469  0.36416704  1
  O  O237  1  0.50579632  0.76183666  0.88340954  1
  O  O238  1  0.24240553  0.12523515  0.50018997  1
  O  O239  1  0.25222858  0.13219862  0.99323130  1
  O  O240  1  0.25862335  0.63065314  0.49045126  1
  O  O241  1  0.23902442  0.61726043  0.99318849  1
  O  O242  1  0.73177091  0.11911571  0.49235281  1
  O  O243  1  0.74075728  0.13693861  1.00836867  1
  O  O244  1  0.74018312  0.63031487  0.50513004  1
  O  O245  1  0.74397385  0.63023458  1.01400842  1
  O  O246  1  0.25756966  0.36862316  0.00712633  1
  O  O247  1  0.26354508  0.38291161  0.51082354  1
  O  O248  1  0.25518432  0.87902500  0.02126259  1
  O  O249  1  0.25858212  0.86660407  0.49799694  1
  O  O250  1  0.75213400  0.36160614  0.01160032  1
  O  O251  1  0.76810822  0.39208790  0.51303261  1
  O  O252  1  0.75622884  0.86648518  0.01126308  1
  O  O253  1  0.75171302  0.87553497  0.49473638  1
  O  O254  1  0.13923621  0.51576358  0.24187570  1
  O  O255  1  0.13875108  0.49160233  0.75833943  1
  O  O256  1  0.12324305  0.99795118  0.24558616  1
  O  O257  1  0.14145810  0.98239527  0.76476453  1
  O  O258  1  0.61255648  0.49484616  0.23967687  1
  O  O259  1  0.61930315  0.49534356  0.73450766  1
  O  O260  1  0.63450078  1.00889899  0.24103307  1
  O  O261  1  0.62279546  1.00287883  0.73247022  1
  O  O262  1  0.38350295  0.01573265  0.26113824  1
  O  O263  1  0.36623580  0.00540523  0.76105524  1
  O  O264  1  0.37052553  0.50830533  0.25823773  1
  O  O265  1  0.37246371  0.50636148  0.75584691  1
  O  O266  1  0.86519052  0.00841998  0.25504691  1
  O  O267  1  0.87207758  -0.02071081  0.76921551  1
  O  O268  1  0.87731171  0.51679069  0.22777825  1
  O  O269  1  0.87729279  0.48504563  0.76455822  1
  O  O270  1  0.12582579  0.36382441  0.36511430  1
  O  O271  1  0.12626134  0.37929586  0.87045511  1
  O  O272  1  0.11876108  0.86417764  0.37280348  1
  O  O273  1  0.12306490  0.86016723  0.87980139  1
  O  O274  1  0.62432649  0.38788348  0.38568152  1
  O  O275  1  0.61168744  0.38185770  0.87549685  1
  O  O276  1  0.62583580  0.86369988  0.37881649  1
  O  O277  1  0.62206748  0.86416590  0.87306148  1
  O  O278  1  0.38089619  0.13069502  0.13313904  1
  O  O279  1  0.37313044  0.12765937  0.63527798  1
  O  O280  1  0.37777406  0.63318773  0.13511526  1
  O  O281  1  0.38549808  0.63096816  0.63290269  1
  O  O282  1  0.88030076  0.12016056  0.13668362  1
  O  O283  1  0.87873106  0.14690605  0.60637438  1
  O  O284  1  0.87155698  0.58090141  0.17881873  1
  O  O285  1  0.86981797  0.63896386  0.64070121  1
  O  O286  1  0.25596625  0.25665891  0.12186769  1
  O  O287  1  0.26229560  0.26254863  0.62690820  1
  O  O288  1  0.26377218  0.75930661  0.12824996  1
  O  O289  1  0.26339936  0.74963049  0.61302466  1
  O  O290  1  0.74778836  0.25962551  0.12119774  1
  O  O291  1  0.75621036  0.25974473  0.60689976  1
  O  O292  1  0.73888612  0.76194312  0.11844749  1
  O  O293  1  0.75243449  0.78157391  0.66510227  1
  O  O294  1  0.24176206  0.25601827  0.37201344  1
  O  O295  1  0.25901239  0.23341383  0.88518220  1
  O  O296  1  0.25021949  0.74821923  0.38407940  1
  O  O297  1  0.24534515  0.75337508  0.88340440  1
  O  O298  1  0.74724970  0.23738754  0.36910281  1
  O  O299  1  0.74990985  0.25768469  0.89274608  1
  O  O300  1  0.73105845  0.74412772  0.36509492  1
  O  O301  1  0.73946924  0.74477060  0.89356176  1
  O  O302  1  -0.01170483  0.11005778  0.01634788  1
  O  O303  1  0.00879771  0.12541471  0.50397025  1
  O  O304  1  0.01108649  0.61365232  -0.00002028  1
  O  O305  1  -0.00751285  0.61719721  0.50206384  1
  O  O306  1  0.51340423  0.13537955  0.01359678  1
  O  O307  1  0.50333757  0.11746374  0.50618763  1
  O  O308  1  0.51023421  0.61752963  0.00740925  1
  O  O309  1  0.50833253  0.61852349  0.50986414  1
  O  O310  1  0.48760084  0.38744065  0.50324634  1
  O  O311  1  0.49553582  0.37510526  0.99407422  1
  O  O312  1  0.49674393  0.89093365  0.50160934  1
  O  O313  1  0.51472447  0.88198977  0.98426630  1
  O  O314  1  0.98486965  0.39374948  0.50009821  1
  O  O315  1  0.98839133  0.38727626  1.00831442  1
  O  O316  1  1.00441720  0.87186011  0.48208766  1
  O  O317  1  0.99291208  0.87967703  0.99784051  1
  O  O318  1  0.48993170  0.51221450  0.38755075  1
  O  O319  1  0.49271201  0.48982061  0.87985570  1
  O  O320  1  0.49402040  1.00372234  0.38616132  1
  O  O321  1  0.48876723  0.99547408  0.87693917  1
  O  O322  1  0.99287866  0.51295133  0.38231236  1
  O  O323  1  0.98614333  0.49904013  0.88710085  1
  O  O324  1  1.00276935  0.98466253  0.36376501  1
  O  O325  1  0.99374714  0.98543580  0.88141524  1
  O  O326  1  0.01061602  -0.00070285  0.12372106  1
  O  O327  1  0.01101064  0.00928492  0.66635163  1
  O  O328  1  0.01742523  0.49902977  0.11771931  1
  O  O329  1  0.00110854  0.50802386  0.61017296  1
  O  O330  1  0.50747740  0.01197420  0.13542321  1
  O  O331  1  0.49077381  0.01072848  0.61744027  1
  O  O332  1  0.50393453  0.50186541  0.11984821  1
  O  O333  1  0.50768836  0.50916183  0.61626913  1
  O  O334  1  0.26056646  0.39059664  0.24079935  1
  O  O335  1  0.25046151  0.38668125  0.74533373  1
  O  O336  1  0.26671237  0.88183852  0.22425621  1
  O  O337  1  0.24629592  0.88326199  0.76257748  1
  O  O338  1  0.74621121  0.36679426  0.23857956  1
  O  O339  1  0.74685085  0.35730417  0.72914651  1
  O  O340  1  0.75673917  0.88597771  0.24256004  1
  O  O341  1  0.74387245  0.83969616  0.72733517  1
  O  O342  1  0.26540881  0.13073960  0.24228972  1
  O  O343  1  0.25426553  0.11281841  0.76599216  1
  O  O344  1  0.26269394  0.61946743  0.25799297  1
  O  O345  1  0.26517049  0.61413744  0.74720361  1
  O  O346  1  0.75657195  0.12001216  0.25580761  1
  O  O347  1  0.75031745  0.15145489  0.75114542  1
  O  O348  1  0.74214715  0.62526273  0.25551646  1
  O  O349  1  0.77058834  0.62361799  0.75726587  1
  O  O350  1  0.37306011  0.12356929  0.36311830  1
  O  O351  1  0.37707624  0.11310770  0.86970645  1
  O  O352  1  0.36988099  0.61923531  0.37079051  1
  O  O353  1  0.38853201  0.61360904  0.86534669  1
  O  O354  1  0.86575398  0.12472927  0.37045023  1
  O  O355  1  0.87414286  0.10130539  0.87710834  1
  O  O356  1  0.85567167  0.63922981  0.37412679  1
  O  O357  1  0.87589429  0.61073911  0.86848704  1
  O  O358  1  0.14151467  0.39169045  0.12185532  1
  O  O359  1  0.13920879  0.38390789  0.63168828  1
  O  O360  1  0.13197095  0.88350497  0.12704305  1
  O  O361  1  0.12399145  0.87096465  0.64401217  1
  O  O362  1  0.63204359  0.37824124  0.12586665  1
  O  O363  1  0.64330227  0.39284615  0.61449447  1
  O  O364  1  0.63484159  0.88769739  0.11850579  1
  O  O365  1  0.61580658  0.89086991  0.62526530  1
  O  O366  1  0.11198178  0.24920656  0.25507130  1
  O  O367  1  0.14530234  0.27319369  0.75323240  1
  O  O368  1  0.13863186  0.75354158  0.26310565  1
  O  O369  1  0.14031889  0.76128332  0.76651270  1
  O  O370  1  0.60937073  0.25132402  0.25040158  1
  O  O371  1  0.60645359  0.25343256  0.73530392  1
  O  O372  1  0.60804896  0.74848971  0.25983376  1
  O  O373  1  0.62402257  0.73506926  0.77108652  1
  O  O374  1  0.38223715  0.24280149  0.24474397  1
  O  O375  1  0.37706435  0.23910510  0.74625907  1
  O  O376  1  0.38522874  0.74320425  0.24660923  1
  O  O377  1  0.36707701  0.73868285  0.73825036  1
  O  O378  1  0.88431368  0.23838523  0.24896322  1
  O  O379  1  0.88477245  0.25912963  0.72400809  1
  O  O380  1  0.87358015  0.74725413  0.24320131  1
  O  O381  1  0.88497356  0.74133518  0.76614998  1
  O  O382  1  0.38388223  0.49773872  0.49716909  1
  O  O383  1  0.38123998  0.49604846  0.99384026  1
  O  O384  1  0.38242378  1.00625664  0.48638445  1
  O  O385  1  0.37637428  1.00797545  0.99309977  1
  O  O386  1  0.88450215  0.49768500  0.49586397  1
  O  O387  1  0.88331883  0.49518032  1.00557071  1
  O  O388  1  0.87071812  0.98449723  0.49858534  1
  O  O389  1  0.88180201  0.98729114  0.99429664  1
  O  O390  1  0.11071117  -0.00670648  0.00161590  1
  O  O391  1  0.12574664  -0.00317551  0.49971295  1
  O  O392  1  0.12097812  0.51086742  0.00311788  1
  O  O393  1  0.10926208  0.49525590  0.49553778  1
  O  O394  1  0.63405939  0.01601217  0.01490452  1
  O  O395  1  0.60768287  0.00731587  0.50958702  1
  O  O396  1  0.62112490  0.50543427  0.01043027  1
  O  O397  1  0.62120860  0.51392232  0.51204253  1
  O  O398  1  0.36820050  0.36696080  0.12121887  1
  O  O399  1  0.37148986  0.36955233  0.62119119  1
  O  O400  1  0.38082612  0.86243320  0.11936528  1
  O  O401  1  0.38481258  0.85966759  0.63597119  1
  O  O402  1  0.85881111  0.37349584  0.11782889  1
  O  O403  1  0.86652034  0.37087011  0.61679560  1
  O  O404  1  0.86378317  0.88421949  0.11660679  1
  O  O405  1  0.87313955  0.87520752  0.60859708  1
  O  O406  1  0.12105520  0.14995951  0.37727733  1
  O  O407  1  0.14056445  0.11762181  0.87658790  1
  O  O408  1  0.13937874  0.64083657  0.37245339  1
  O  O409  1  0.12286299  0.63914597  0.88303125  1
  O  O410  1  0.62622366  0.12092096  0.38711972  1
  O  O411  1  0.61770692  0.11755592  0.89334903  1
  O  O412  1  0.63650728  0.63065351  0.38386359  1
  O  O413  1  0.62511993  0.62459806  0.89000118  1
