# generated using pymatgen
data_V79Zn79O256
_symmetry_space_group_name_H-M   'P 1'
_cell_length_a   16.90399840
_cell_length_b   16.93710332
_cell_length_c   16.89386290
_cell_angle_alpha   89.92503685
_cell_angle_beta   90.05200553
_cell_angle_gamma   90.01930968
_symmetry_Int_Tables_number   1
_chemical_formula_structural   V79Zn79O256
_chemical_formula_sum   'V79 Zn79 O256'
_cell_volume   4836.78708335
_cell_formula_units_Z   1
loop_
 _symmetry_equiv_pos_site_id
 _symmetry_equiv_pos_as_xyz
  1  'x, y, z'
loop_
 _atom_site_type_symbol
 _atom_site_label
 _atom_site_symmetry_multiplicity
 _atom_site_fract_x
 _atom_site_fract_y
 _atom_site_fract_z
 _atom_site_occupancy
  V  V0  1  0.23808752  0.37805143  0.63145847  1
  V  V1  1  0.11873389  0.00145836  0.12464823  1
  V  V2  1  0.87017932  0.01613346  0.87127206  1
  V  V3  1  0.64177682  0.74275331  0.37628346  1
  V  V4  1  0.49204303  0.74289511  0.25284228  1
  V  V5  1  0.37786296  -0.00001995  0.88316972  1
  V  V6  1  0.51214449  0.12574376  0.61837217  1
  V  V7  1  0.75052987  0.00427346  0.75096003  1
  V  V8  1  0.50761493  0.00538545  0.49835701  1
  V  V9  1  0.37553192  0.87033653  0.49824702  1
  V  V10  1  -0.00980071  0.12885664  0.64744466  1
  V  V11  1  0.10905360  0.12052969  0.50027748  1
  V  V12  1  0.49841850  0.62551602  0.12285077  1
  V  V13  1  0.74959526  0.37610214  0.62226753  1
  V  V14  1  0.62019912  0.50085073  0.61502817  1
  V  V15  1  0.37149275  0.12049469  0.74666372  1
  V  V16  1  0.87412665  0.37228449  0.49512777  1
  V  V17  1  0.00412334  0.36507400  0.37725631  1
  V  V18  1  -0.00211144  0.24080941  0.24460985  1
  V  V19  1  0.50423960  0.36854318  0.37077216  1
  V  V20  1  0.62529120  0.37326723  0.75384061  1
  V  V21  1  0.87460103  0.74252196  0.61841670  1
  V  V22  1  0.25323335  0.88418123  0.63532467  1
  V  V23  1  0.50362332  0.62800882  0.62752051  1
  V  V24  1  0.87915326  0.51489088  0.37313421  1
  V  V25  1  0.87507248  0.62569050  0.76421432  1
  V  V26  1  0.74946270  0.86350689  0.61875037  1
  V  V27  1  0.61980289  0.00981272  0.12507462  1
  V  V28  1  0.24915915  0.61483266  0.88019373  1
  V  V29  1  0.25459567  0.87647696  0.12245832  1
  V  V30  1  0.11727748  0.87081642  0.25321398  1
  V  V31  1  0.26181870  0.25068942  0.00701052  1
  V  V32  1  0.24463187  0.12500126  0.37777758  1
  V  V33  1  0.85255670  0.12072722  0.24876735  1
  V  V34  1  -0.00259681  -0.00369438  -0.00759592  1
  V  V35  1  0.75727281  0.51997535  0.25393462  1
  V  V36  1  0.11777363  0.25717658  0.86682593  1
  V  V37  1  0.37468419  0.00254571  0.37266112  1
  V  V38  1  0.37855427  0.38773272  0.50128000  1
  V  V39  1  0.86009848  0.00247045  0.37867862  1
  V  V40  1  0.63613866  0.37483573  0.25180097  1
  V  V41  1  0.62405562  0.61863746  -0.00551868  1
  V  V42  1  0.48944339  0.37758940  0.88238378  1
  V  V43  1  0.73982838  0.23962825  0.48910335  1
  V  V44  1  0.63871161  0.62762909  0.49895787  1
  V  V45  1  0.00873581  0.49730141  0.50583132  1
  V  V46  1  0.13568516  0.62079840  0.51364809  1
  V  V47  1  0.63260164  0.50172000  0.12787469  1
  V  V48  1  0.24395096  0.24771893  0.49795268  1
  V  V49  1  0.86449897  0.35934248  0.01337286  1
  V  V50  1  0.25414459  0.37083388  0.12811521  1
  V  V51  1  0.49881708  0.87756436  0.88606519  1
  V  V52  1  0.11995291  0.50266948  0.12971302  1
  V  V53  1  0.24658583  0.74526077  0.50330287  1
  V  V54  1  0.61911382  0.74563842  0.87066792  1
  V  V55  1  0.00380003  0.62166357  0.63316661  1
  V  V56  1  0.87303539  0.25136602  0.63966992  1
  V  V57  1  0.25300635  0.62163459  0.36663937  1
  V  V58  1  0.24681676  -0.00105393  0.25098467  1
  V  V59  1  0.50234406  0.25157308  0.74849936  1
  V  V60  1  0.25003494  0.12235140  0.87004249  1
  V  V61  1  0.11497142  0.75404610  0.87053074  1
  V  V62  1  0.37995083  0.50588567  0.35119489  1
  V  V63  1  0.61915712  0.86906147  0.74874017  1
  V  V64  1  0.75468759  0.50168627  0.76134329  1
  V  V65  1  0.88347764  0.74395231  0.12947866  1
  V  V66  1  0.38143765  0.12852121  0.24068605  1
  V  V67  1  0.74970046  0.87785726  0.13004664  1
  V  V68  1  0.38504702  0.74970062  0.63952295  1
  V  V69  1  0.74961021  0.74422067  -0.00752659  1
  V  V70  1  0.37381299  0.24868460  0.61559646  1
  V  V71  1  0.87420982  0.87271967  -0.01195323  1
  V  V72  1  0.24551850  0.75013825  -0.00093190  1
  V  V73  1  0.13094661  0.36859066  0.25752829  1
  V  V74  1  0.00596824  0.88002866  0.39351066  1
  V  V75  1  -0.00711008  0.50568974  0.00049636  1
  V  V76  1  0.37469966  0.75007922  0.12408259  1
  V  V77  1  0.49843314  0.86696658  0.37200834  1
  V  V78  1  0.12182075  0.13025207  0.00124471  1
  Zn  Zn79  1  0.38569109  0.60184785  0.77316057  1
  Zn  Zn80  1  0.12220800  0.40557331  0.74870334  1
  Zn  Zn81  1  -0.01627254  0.13144878  0.11751708  1
  Zn  Zn82  1  0.51422637  0.03607036  -0.00019921  1
  Zn  Zn83  1  0.87742586  0.88021957  0.50383839  1
  Zn  Zn84  1  0.63570226  0.18039738  -0.06815176  1
  Zn  Zn85  1  0.63355962  0.86889938  0.25127417  1
  Zn  Zn86  1  0.00326504  0.74101521  0.26377601  1
  Zn  Zn87  1  0.11364575  0.88840474  0.76487680  1
  Zn  Zn88  1  0.63630766  0.00296848  0.61700397  1
  Zn  Zn89  1  0.44273266  0.29862032  0.19367349  1
  Zn  Zn90  1  0.94633135  0.58442918  0.18884564  1
  Zn  Zn91  1  0.43149347  0.53438910  -0.04774760  1
  Zn  Zn92  1  -0.01520415  0.38182798  0.86941534  1
  Zn  Zn93  1  0.10032348  -0.00937094  0.63274485  1
  Zn  Zn94  1  0.18514390  0.18800599  0.19239038  1
  Zn  Zn95  1  0.18254170  0.18697874  0.68360077  1
  Zn  Zn96  1  0.18321444  0.68843342  0.18860895  1
  Zn  Zn97  1  0.19298107  0.68173260  0.69956195  1
  Zn  Zn98  1  0.58210759  0.18149356  0.22392182  1
  Zn  Zn99  1  0.69233193  0.18521464  0.77320197  1
  Zn  Zn100  1  0.68864431  0.69247804  0.18437852  1
  Zn  Zn101  1  0.68997002  0.68347142  0.69031589  1
  Zn  Zn102  1  0.31593472  0.30967786  0.32215434  1
  Zn  Zn103  1  0.31078451  0.31053272  0.81173547  1
  Zn  Zn104  1  0.30738840  0.80821703  0.31237820  1
  Zn  Zn105  1  0.31266170  0.81604402  0.81436667  1
  Zn  Zn106  1  0.81077363  0.31146637  0.30560389  1
  Zn  Zn107  1  0.80605047  0.30917226  0.83831048  1
  Zn  Zn108  1  0.82505807  0.81342070  0.31418772  1
  Zn  Zn109  1  0.80955722  0.80940186  0.80700904  1
  Zn  Zn110  1  0.19528163  0.44076654  0.43932960  1
  Zn  Zn111  1  0.18254120  0.43450737  0.94727331  1
  Zn  Zn112  1  0.18383488  0.94065431  0.44855040  1
  Zn  Zn113  1  0.18918585  0.93743942  0.93775245  1
  Zn  Zn114  1  0.69229210  0.44314965  0.43256846  1
  Zn  Zn115  1  0.68681005  0.42918665  0.94008826  1
  Zn  Zn116  1  0.68747959  0.93062057  0.43479321  1
  Zn  Zn117  1  0.68586055  0.93811040  0.93922441  1
  Zn  Zn118  1  0.31113525  0.06155125  0.05959905  1
  Zn  Zn119  1  0.31807996  0.06352002  0.55732721  1
  Zn  Zn120  1  0.29948438  0.56507878  0.06854454  1
  Zn  Zn121  1  0.32000334  0.55171311  0.59974957  1
  Zn  Zn122  1  0.80510204  0.06426783  0.06519475  1
  Zn  Zn123  1  0.81395936  0.06361180  0.56546745  1
  Zn  Zn124  1  0.80977871  0.55868844  0.05587408  1
  Zn  Zn125  1  0.81668878  0.55913220  0.56244406  1
  Zn  Zn126  1  0.41543337  0.46735739  0.14532930  1
  Zn  Zn127  1  0.43514337  0.43722536  0.68930548  1
  Zn  Zn128  1  0.44169901  0.94082261  0.18459706  1
  Zn  Zn129  1  0.43747811  0.94102775  0.68759214  1
  Zn  Zn130  1  0.93425046  0.42230216  0.18949504  1
  Zn  Zn131  1  0.93914776  0.43657671  0.69330906  1
  Zn  Zn132  1  0.93201277  0.93946474  0.18996253  1
  Zn  Zn133  1  0.93456132  0.93710171  0.68853427  1
  Zn  Zn134  1  0.05635806  0.05531544  0.31827495  1
  Zn  Zn135  1  0.06345935  0.06270925  0.81174573  1
  Zn  Zn136  1  0.07364132  0.55667811  0.32200969  1
  Zn  Zn137  1  0.06707094  0.56559535  0.82129124  1
  Zn  Zn138  1  0.57135841  0.04335590  0.30916805  1
  Zn  Zn139  1  0.55646332  0.05572914  0.80418485  1
  Zn  Zn140  1  0.56280082  0.56101753  0.31326351  1
  Zn  Zn141  1  0.56516063  0.55626756  0.80780133  1
  Zn  Zn142  1  0.56655875  0.18475220  0.42622554  1
  Zn  Zn143  1  0.44192008  0.19140489  0.93634653  1
  Zn  Zn144  1  0.43937981  0.67760951  0.44638205  1
  Zn  Zn145  1  0.43489342  0.70213014  0.93988907  1
  Zn  Zn146  1  0.92513567  0.18706108  0.43228035  1
  Zn  Zn147  1  0.93273626  0.19306054  0.93545232  1
  Zn  Zn148  1  0.95102092  0.69327141  0.44476890  1
  Zn  Zn149  1  0.94187586  0.68291825  0.94733980  1
  Zn  Zn150  1  0.05736652  0.31989208  0.06264081  1
  Zn  Zn151  1  0.05937654  0.30375641  0.56442724  1
  Zn  Zn152  1  0.06363027  0.81521786  0.05960140  1
  Zn  Zn153  1  0.05638827  0.81843510  0.59225265  1
  Zn  Zn154  1  0.56748766  0.30645114  0.06979369  1
  Zn  Zn155  1  0.56081937  0.31676267  0.55989282  1
  Zn  Zn156  1  0.56401187  0.81077334  0.06028648  1
  Zn  Zn157  1  0.56486282  0.80933240  0.55816807  1
  O  O158  1  0.12658152  0.11509818  0.11647019  1
  O  O159  1  0.10200004  0.13385796  0.61774713  1
  O  O160  1  0.13995719  0.60038257  0.13247929  1
  O  O161  1  0.11966658  0.62823438  0.62385167  1
  O  O162  1  0.62684757  0.10651982  0.14079425  1
  O  O163  1  0.61084293  0.12047570  0.63151483  1
  O  O164  1  0.61819174  0.62653086  0.11423982  1
  O  O165  1  0.62309028  0.62042123  0.62058027  1
  O  O166  1  0.38146040  0.38893915  0.37753866  1
  O  O167  1  0.38854332  0.36916665  0.87334817  1
  O  O168  1  0.37916419  0.88064906  0.37916648  1
  O  O169  1  0.38462516  0.88989029  0.86607855  1
  O  O170  1  0.88567841  0.38089506  0.38102525  1
  O  O171  1  0.87501869  0.37236692  0.89411711  1
  O  O172  1  0.88417870  0.88521093  0.38032210  1
  O  O173  1  0.87154108  0.87375617  0.88517264  1
  O  O174  1  0.25617645  0.00292915  0.37421560  1
  O  O175  1  0.25912955  0.01463278  0.88516014  1
  O  O176  1  0.26669418  0.50967953  0.37843701  1
  O  O177  1  0.24403728  0.51651024  0.89639055  1
  O  O178  1  0.76034979  -0.01318232  0.36925191  1
  O  O179  1  0.76010832  -0.00709447  0.86348405  1
  O  O180  1  0.76779578  0.50134211  0.36747862  1
  O  O181  1  0.74221575  0.49618026  0.85890497  1
  O  O182  1  0.23645165  0.47739042  0.12406513  1
  O  O183  1  0.23520316  0.47527755  0.61055557  1
  O  O184  1  0.23947551  0.99331098  0.12706404  1
  O  O185  1  0.27128695  0.98317087  0.62259791  1
  O  O186  1  0.73984321  0.50994417  0.13617666  1
  O  O187  1  0.74538024  0.48877052  0.62591953  1
  O  O188  1  0.74259434  0.98236596  0.11975272  1
  O  O189  1  0.75650117  0.98365378  0.63338732  1
  O  O190  1  0.00611089  0.36048857  0.25877805  1
  O  O191  1  0.01067882  0.38365188  0.75812157  1
  O  O192  1  0.00810680  0.87599744  0.25342701  1
  O  O193  1  0.02747344  0.87731652  0.69023620  1
  O  O194  1  0.50754432  0.37658907  0.26255348  1
  O  O195  1  0.50537897  0.37014354  0.75046885  1
  O  O196  1  0.49696592  0.86364543  0.26112360  1
  O  O197  1  0.51458885  0.88339273  0.75462603  1
  O  O198  1  0.47977581  0.10966971  0.24751952  1
  O  O199  1  0.49034679  0.13309407  0.73877274  1
  O  O200  1  0.50656215  0.63761785  0.24086311  1
  O  O201  1  0.50005198  0.62112841  0.73497223  1
  O  O202  1  1.00836620  0.13731245  0.25256088  1
  O  O203  1  0.99476282  0.13220312  0.74611518  1
  O  O204  1  1.02012679  0.63034214  0.25738900  1
  O  O205  1  0.98342657  0.61138446  0.74486165  1
  O  O206  1  0.36034599  0.24228066  0.00122866  1
  O  O207  1  0.36428893  0.25752803  0.50935598  1
  O  O208  1  0.36486833  0.75725870  0.01512989  1
  O  O209  1  0.37291185  0.75956463  0.50595558  1
  O  O210  1  0.87442720  0.25640177  0.00531768  1
  O  O211  1  0.86722148  0.26178795  0.50262492  1
  O  O212  1  0.86841286  0.75499386  0.00371761  1
  O  O213  1  0.87806909  0.75233568  0.51465824  1
  O  O214  1  0.13488018  0.23468435  0.50336133  1
  O  O215  1  0.12868711  0.24067529  0.99632866  1
  O  O216  1  0.14056321  0.73835227  0.51016740  1
  O  O217  1  0.13912037  0.75578995  0.99546481  1
  O  O218  1  0.63371462  0.25095410  0.49916483  1
  O  O219  1  0.66567146  0.25635589  1.02046104  1
  O  O220  1  0.62490427  0.74525092  0.48356350  1
  O  O221  1  0.63036915  0.74033097  0.99096782  1
  O  O222  1  0.52041272  0.23956073  0.14393784  1
  O  O223  1  0.49108713  0.24409394  0.62448873  1
  O  O224  1  0.49432644  0.74743146  0.13185080  1
  O  O225  1  0.49228974  0.74878068  0.62547904  1
  O  O226  1  1.00279644  0.24774080  0.14066870  1
  O  O227  1  0.98134001  0.24479832  0.62383014  1
  O  O228  1  0.98467288  0.75550085  0.11647870  1
  O  O229  1  0.99096061  0.72893556  0.62411131  1
  O  O230  1  -0.00331404  0.26050149  0.37118156  1
  O  O231  1  0.01648611  0.24962354  0.88036680  1
  O  O232  1  -0.00815612  0.77394784  0.37525888  1
  O  O233  1  0.01673481  0.74390402  0.88484458  1
  O  O234  1  0.49935910  0.26988094  0.37683721  1
  O  O235  1  0.49737494  0.26007353  0.85397207  1
  O  O236  1  0.49520661  0.75371926  0.36978579  1
  O  O237  1  0.50969410  0.76068261  0.87514624  1
  O  O238  1  0.24659815  0.12994352  0.49501751  1
  O  O239  1  0.24109116  0.13398671  0.99506395  1
  O  O240  1  0.24781370  0.62887119  0.51353243  1
  O  O241  1  0.25289232  0.64248672  0.99802260  1
  O  O242  1  0.75304483  0.14168424  0.50504520  1
  O  O243  1  0.73751237  0.14653143  1.01344113  1
  O  O244  1  0.73909952  0.62597862  0.50798351  1
  O  O245  1  0.73926574  0.63465285  1.00167194  1
  O  O246  1  0.24683292  0.35979165  0.01520606  1
  O  O247  1  0.25562428  0.36282035  0.50270089  1
  O  O248  1  0.24691108  0.86888938  0.01424932  1
  O  O249  1  0.26380817  0.86697281  0.49899925  1
  O  O250  1  0.76385289  0.38161762  0.00346376  1
  O  O251  1  0.75776593  0.37446121  0.50375906  1
  O  O252  1  0.75708044  0.86444349  0.00560297  1
  O  O253  1  0.74966046  0.87544407  0.51656291  1
  O  O254  1  0.11894813  0.47817119  0.24309428  1
  O  O255  1  0.13659339  0.51636917  0.75166393  1
  O  O256  1  0.12664195  0.99452038  0.24146888  1
  O  O257  1  0.12741992  1.00181177  0.74414135  1
  O  O258  1  0.63808878  0.50312467  0.24723179  1
  O  O259  1  0.63757752  0.49516400  0.73682992  1
  O  O260  1  0.62046928  0.97919723  0.23133359  1
  O  O261  1  0.63843356  0.98606977  0.74172650  1
  O  O262  1  0.36669077  0.00185597  0.25616290  1
  O  O263  1  0.38237758  0.01493694  0.75966946  1
  O  O264  1  0.37464541  0.50377157  0.25280274  1
  O  O265  1  0.36134461  0.51623000  0.70555913  1
  O  O266  1  0.87631205  0.01096461  0.26111766  1
  O  O267  1  0.86593283  -0.01043242  0.76429354  1
  O  O268  1  0.87555525  0.50386234  0.25472764  1
  O  O269  1  0.86131077  0.50707745  0.74674266  1
  O  O270  1  0.12009968  0.38035209  0.36612090  1
  O  O271  1  0.13329159  0.36101711  0.87408890  1
  O  O272  1  0.11379606  0.88654952  0.37027707  1
  O  O273  1  0.12995018  0.86224898  0.87715358  1
  O  O274  1  0.61213586  0.39161616  0.36564860  1
  O  O275  1  0.61407283  0.38484685  0.85750906  1
  O  O276  1  0.61462227  0.85947907  0.37531229  1
  O  O277  1  0.61813841  0.86832230  0.86856873  1
  O  O278  1  0.36054571  0.12069061  0.14238545  1
  O  O279  1  0.38079847  0.13152743  0.62815507  1
  O  O280  1  0.38576024  0.63854576  0.12332090  1
  O  O281  1  0.38639907  0.64580775  0.61565454  1
  O  O282  1  0.87359275  0.11438340  0.14190107  1
  O  O283  1  0.87893236  0.14277639  0.62369453  1
  O  O284  1  0.87205258  0.63968167  0.12047098  1
  O  O285  1  0.88252068  0.62731850  0.62899644  1
  O  O286  1  0.24341688  0.25421028  0.11551542  1
  O  O287  1  0.25625105  0.25014088  0.61616717  1
  O  O288  1  0.25392768  0.75558635  0.12010118  1
  O  O289  1  0.26690823  0.75818863  0.62030490  1
  O  O290  1  0.72178287  0.21184993  0.05988911  1
  O  O291  1  0.76093239  0.26564835  0.61144617  1
  O  O292  1  0.76093587  0.75639867  0.11359059  1
  O  O293  1  0.75580854  0.75767148  0.62870903  1
  O  O294  1  0.25409497  0.23580444  0.38589389  1
  O  O295  1  0.24390507  0.24204435  0.88894870  1
  O  O296  1  0.26342661  0.73202308  0.39037902  1
  O  O297  1  0.25501919  0.75123153  0.89187682  1
  O  O298  1  0.75506492  0.25616959  0.39089922  1
  O  O299  1  0.71517454  0.25295146  0.86033964  1
  O  O300  1  0.73954307  0.75405517  0.36794223  1
  O  O301  1  0.73699657  0.75619517  0.88473013  1
  O  O302  1  0.00588234  0.11629263  0.00060286  1
  O  O303  1  0.00979723  0.13092486  0.49177696  1
  O  O304  1  -0.00268019  0.60688480  0.01051881  1
  O  O305  1  0.01541015  0.61639697  0.50855090  1
  O  O306  1  0.53306765  0.14716307  -0.02042026  1
  O  O307  1  0.50410485  0.11541159  0.50196095  1
  O  O308  1  0.50727589  0.62858995  0.00789738  1
  O  O309  1  0.51656255  0.63048069  0.51695025  1
  O  O310  1  0.49026102  0.37571181  0.48811489  1
  O  O311  1  0.51493073  0.35780589  0.97897300  1
  O  O312  1  0.49221753  0.87800671  0.49134761  1
  O  O313  1  0.50293990  0.87362199  0.98673931  1
  O  O314  1  0.99542888  0.37717977  0.49700920  1
  O  O315  1  0.98830062  0.38158137  0.99878238  1
  O  O316  1  1.00425671  0.87415843  0.49651717  1
  O  O317  1  0.99040756  0.88970676  1.00382885  1
  O  O318  1  0.48382593  0.49847202  0.37110579  1
  O  O319  1  0.49697406  0.48639112  0.87200146  1
  O  O320  1  0.49388008  0.98667759  0.37880380  1
  O  O321  1  0.49506588  0.99379627  0.87882083  1
  O  O322  1  0.99748511  0.48734087  0.38601758  1
  O  O323  1  1.01134455  0.50032319  0.89720975  1
  O  O324  1  0.98849633  0.98534268  0.37617294  1
  O  O325  1  0.98418598  1.00597889  0.88155638  1
  O  O326  1  0.00730723  0.00263195  0.11611186  1
  O  O327  1  -0.01771983  0.02785685  0.62482458  1
  O  O328  1  0.00764426  0.49807204  0.12915135  1
  O  O329  1  -0.00890616  0.50793827  0.61287249  1
  O  O330  1  0.51333319  -0.00870058  0.11371961  1
  O  O331  1  0.49757852  0.00826350  0.61255179  1
  O  O332  1  0.51752022  0.51921451  0.13755383  1
  O  O333  1  0.51590168  0.50666510  0.62638093  1
  O  O334  1  0.23659319  0.35855054  0.24712108  1
  O  O335  1  0.24771106  0.36844190  0.73509715  1
  O  O336  1  0.23947513  0.87948139  0.24588505  1
  O  O337  1  0.24649002  0.87129662  0.73669786  1
  O  O338  1  0.74161416  0.39342349  0.25778458  1
  O  O339  1  0.74343777  0.38543785  0.73970629  1
  O  O340  1  0.75656692  0.86517005  0.23275488  1
  O  O341  1  0.74149005  0.87823034  0.74037295  1
  O  O342  1  0.24884352  0.11815162  0.26129579  1
  O  O343  1  0.25950931  0.13479332  0.75929463  1
  O  O344  1  0.24609898  0.63107704  0.26847512  1
  O  O345  1  0.26487628  0.63470614  0.77742989  1
  O  O346  1  0.75803666  0.12913518  0.24898802  1
  O  O347  1  0.75638155  0.10082463  0.72958278  1
  O  O348  1  0.75050061  0.62007782  0.25015665  1
  O  O349  1  0.75970586  0.61027173  0.74593892  1
  O  O350  1  0.36353264  0.10874033  0.36647681  1
  O  O351  1  0.36881505  0.12319652  0.86561109  1
  O  O352  1  0.36908839  0.61219500  0.38054734  1
  O  O353  1  0.37205629  0.61849230  0.88877438  1
  O  O354  1  0.87388296  0.11107473  0.36547732  1
  O  O355  1  0.86795033  0.11486230  0.87551419  1
  O  O356  1  0.89156128  0.61260453  0.38557894  1
  O  O357  1  0.87768395  0.63087363  0.86290202  1
  O  O358  1  0.13219332  0.37335372  0.13995465  1
  O  O359  1  0.13586557  0.35694181  0.62882751  1
  O  O360  1  0.13015906  0.88530519  0.13104865  1
  O  O361  1  0.15476690  0.87994504  0.60423481  1
  O  O362  1  0.61649354  0.39320965  0.14189325  1
  O  O363  1  0.63041167  0.38372514  0.62807125  1
  O  O364  1  0.64299139  0.86373893  0.12347740  1
  O  O365  1  0.63550715  0.86992740  0.62969467  1
  O  O366  1  0.11282160  0.25837897  0.25346010  1
  O  O367  1  0.13056753  0.24355995  0.76805685  1
  O  O368  1  0.12352332  0.76721263  0.24392252  1
  O  O369  1  0.12995158  0.75261429  0.76740535  1
  O  O370  1  0.64538857  0.27793116  0.24921146  1
  O  O371  1  0.61120132  0.26339610  0.73120287  1
  O  O372  1  0.61571310  0.75008785  0.26295717  1
  O  O373  1  0.63349057  0.75612053  0.76068654  1
  O  O374  1  0.37272308  0.23235106  0.25866111  1
  O  O375  1  0.38132317  0.24300817  0.73692583  1
  O  O376  1  0.38144273  0.75292551  0.24018190  1
  O  O377  1  0.37629673  0.75096230  0.73952072  1
  O  O378  1  0.88702110  0.23451587  0.25876441  1
  O  O379  1  0.86072657  0.26048200  0.73671828  1
  O  O380  1  0.88199669  0.75426357  0.23293355  1
  O  O381  1  0.86627803  0.73138801  0.74028519  1
  O  O382  1  0.36969388  0.48717202  0.50867523  1
  O  O383  1  0.37938352  0.49233670  1.03927756  1
  O  O384  1  0.38508471  0.99106852  0.48968129  1
  O  O385  1  0.38680011  1.01659283  0.98659811  1
  O  O386  1  0.88394493  0.48953153  0.49301619  1
  O  O387  1  0.88801961  0.49109032  1.01113803  1
  O  O388  1  0.86906007  1.00069310  0.48561138  1
  O  O389  1  0.87472580  0.99605929  0.98759638  1
  O  O390  1  0.11696429  0.00753169  0.00338731  1
  O  O391  1  0.12885482  0.01763470  0.51746409  1
  O  O392  1  0.11043856  0.48416097  0.02366832  1
  O  O393  1  0.11649293  0.50318094  0.50012420  1
  O  O394  1  0.63003615  -0.00065272  0.01561773  1
  O  O395  1  0.61235407  -0.00992317  0.49941870  1
  O  O396  1  0.63255107  0.51094797  0.00967186  1
  O  O397  1  0.63202672  0.50902356  0.50750140  1
  O  O398  1  0.35691948  0.36610691  0.14898640  1
  O  O399  1  0.36592019  0.36437291  0.61830183  1
  O  O400  1  0.36113604  0.86972324  0.13528375  1
  O  O401  1  0.37487110  0.86577698  0.61944113  1
  O  O402  1  0.87369287  0.36760517  0.11665032  1
  O  O403  1  0.87081364  0.37023871  0.61582811  1
  O  O404  1  0.86602973  0.86971267  0.11331376  1
  O  O405  1  0.86329184  0.86329119  0.62730609  1
  O  O406  1  0.13433238  0.11184248  0.38961554  1
  O  O407  1  0.13165636  0.13121517  0.88448339  1
  O  O408  1  0.14782903  0.61388749  0.39517256  1
  O  O409  1  0.14277781  0.64268192  0.88001677  1
  O  O410  1  0.61104473  0.14262086  0.33341226  1
  O  O411  1  0.64169469  0.11052176  0.84551300  1
  O  O412  1  0.62178624  0.63641275  0.38229163  1
  O  O413  1  0.61406746  0.63198605  0.88299402  1
