# generated using pymatgen
data_V79Zn79O256
_symmetry_space_group_name_H-M   'P 1'
_cell_length_a   16.88969734
_cell_length_b   16.89249209
_cell_length_c   16.89985408
_cell_angle_alpha   89.84567872
_cell_angle_beta   89.92438660
_cell_angle_gamma   89.98137351
_symmetry_Int_Tables_number   1
_chemical_formula_structural   V79Zn79O256
_chemical_formula_sum   'V79 Zn79 O256'
_cell_volume   4821.65986123
_cell_formula_units_Z   1
loop_
 _symmetry_equiv_pos_site_id
 _symmetry_equiv_pos_as_xyz
  1  'x, y, z'
loop_
 _atom_site_type_symbol
 _atom_site_label
 _atom_site_symmetry_multiplicity
 _atom_site_fract_x
 _atom_site_fract_y
 _atom_site_fract_z
 _atom_site_occupancy
  V  V0  1  0.75172456  0.12482127  0.36934038  1
  V  V1  1  -0.01683986  0.62871396  0.63690214  1
  V  V2  1  0.36278592  0.11839572  0.75335069  1
  V  V3  1  0.74782960  0.63366623  0.37485896  1
  V  V4  1  0.74961670  0.50067147  0.25385162  1
  V  V5  1  0.86809658  0.38551402  0.49626281  1
  V  V6  1  0.49772111  0.88280517  0.88991767  1
  V  V7  1  0.62391797  0.49077609  0.12691785  1
  V  V8  1  0.00036549  0.86247564  0.87790124  1
  V  V9  1  0.25260490  0.25404016  0.51327695  1
  V  V10  1  0.76800453  0.37438090  0.12557200  1
  V  V11  1  0.37965036  0.37518998  0.00099738  1
  V  V12  1  0.76451357  0.75797494  0.51174256  1
  V  V13  1  0.37717936  0.62822588  0.24713121  1
  V  V14  1  0.50000918  0.61884200  0.12093111  1
  V  V15  1  0.00234331  0.00311348  0.00495084  1
  V  V16  1  0.13265873  0.37238280  0.24149080  1
  V  V17  1  0.38052150  0.49885845  0.87736910  1
  V  V18  1  0.62636897  0.86742022  0.25574694  1
  V  V19  1  0.12306963  0.62133626  0.51732367  1
  V  V20  1  0.13334917  0.50294403  0.11652900  1
  V  V21  1  0.62781560  0.49584541  0.62595327  1
  V  V22  1  0.50138699  0.00077474  0.50155324  1
  V  V23  1  0.49874652  0.50186112  0.50736053  1
  V  V24  1  0.12383956  0.25273429  0.37189006  1
  V  V25  1  0.36113911  0.24846240  0.13046967  1
  V  V26  1  0.13108326  0.86866871  0.25580231  1
  V  V27  1  0.62153557  0.11467890  0.00486730  1
  V  V28  1  0.24161675  0.63126683  0.37343748  1
  V  V29  1  0.25883569  0.87175118  0.12147442  1
  V  V30  1  0.25218384  0.87767765  0.63510794  1
  V  V31  1  0.61826343  0.63420073  0.49892908  1
  V  V32  1  0.87907514  0.49359450  0.88362426  1
  V  V33  1  0.37773722  0.74637634  0.62673392  1
  V  V34  1  0.12975047  -0.00432912  0.63000899  1
  V  V35  1  0.74699552  0.87841354  0.12138222  1
  V  V36  1  0.49965345  0.25017256  0.24616543  1
  V  V37  1  0.87701132  0.62109047  0.25527050  1
  V  V38  1  0.12208869  0.86002957  0.75575965  1
  V  V39  1  0.87787852  0.76045377  0.12213138  1
  V  V40  1  0.86356534  0.63856203  0.75737604  1
  V  V41  1  0.75286008  0.12620959  0.87691014  1
  V  V42  1  0.49471094  0.12999636  0.62968309  1
  V  V43  1  0.37695462  0.00443919  0.37170629  1
  V  V44  1  0.87623238  0.00009692  0.88543139  1
  V  V45  1  0.23942663  0.48560187  0.74139455  1
  V  V46  1  0.24931929  0.24847640  -0.02168647  1
  V  V47  1  0.00282672  0.62460258  0.11476968  1
  V  V48  1  0.00580495  0.75003473  0.25343448  1
  V  V49  1  -0.00037000  0.87288520  0.37310387  1
  V  V50  1  0.75372862  0.00428530  0.75215671  1
  V  V51  1  -0.00946804  0.12448580  0.62240975  1
  V  V52  1  0.62999330  0.74541990  0.87673991  1
  V  V53  1  0.74632302  0.00212337  0.24458212  1
  V  V54  1  0.12232081  0.11696075  0.49744377  1
  V  V55  1  0.62913111  0.87516863  0.74863200  1
  V  V56  1  0.37463318  0.87463686  0.50153911  1
  V  V57  1  0.87809536  -0.00240087  0.36862686  1
  V  V58  1  0.50346278  0.25339714  0.75618893  1
  V  V59  1  0.49995564  0.74867971  0.75041950  1
  V  V60  1  0.74554900  0.49564487  0.76111751  1
  V  V61  1  0.50123915  0.11783104  0.12586313  1
  V  V62  1  0.75428822  0.75009143  -0.00036304  1
  V  V63  1  0.13551415  0.12231740  -0.01908664  1
  V  V64  1  0.23386172  0.62668039  0.87816282  1
  V  V65  1  0.37282573  0.49976062  0.37363304  1
  V  V66  1  -0.00212264  0.38867002  0.36919592  1
  V  V67  1  0.50292785  0.37574917  0.36921592  1
  V  V68  1  0.36984642  0.37299655  0.50973624  1
  V  V69  1  0.62450144  0.62134761  0.00078006  1
  V  V70  1  0.36333048  -0.00110409  0.88549065  1
  V  V71  1  -0.05831491  -0.06772165  0.54686890  1
  V  V72  1  0.62374514  0.25085259  0.37415718  1
  V  V73  1  0.25657812  0.00926978  0.25084850  1
  V  V74  1  0.24204526  0.74929405  -0.00284968  1
  V  V75  1  0.37580014  0.62450052  0.75122845  1
  V  V76  1  0.62894635  -0.00185078  0.62661012  1
  V  V77  1  0.12756911  0.00781271  0.12860206  1
  V  V78  1  0.75676446  0.25335883  0.00732080  1
  Zn  Zn79  1  0.51079856  0.74338203  0.25494499  1
  Zn  Zn80  1  0.75290137  0.24869952  0.50027132  1
  Zn  Zn81  1  0.51063516  0.38267257  0.87422967  1
  Zn  Zn82  1  0.50865457  0.86906171  0.38011855  1
  Zn  Zn83  1  0.00595729  0.49750748  0.51163428  1
  Zn  Zn84  1  0.24498167  0.75218230  0.49689331  1
  Zn  Zn85  1  0.62383334  0.12761417  0.50077904  1
  Zn  Zn86  1  0.74530327  0.36703174  0.63324628  1
  Zn  Zn87  1  0.00402373  0.49570297  -0.00718223  1
  Zn  Zn88  1  0.25699802  0.12985391  0.37263453  1
  Zn  Zn89  1  0.38482015  0.75486684  0.11312211  1
  Zn  Zn90  1  0.62975372  0.25948386  0.87575270  1
  Zn  Zn91  1  0.87536372  0.24813469  0.61656756  1
  Zn  Zn92  1  0.25316035  0.49666280  0.24449560  1
  Zn  Zn93  1  0.89855610  0.22675988  0.16835281  1
  Zn  Zn94  1  0.06386888  0.18896317  0.18674304  1
  Zn  Zn95  1  0.18515250  0.18512461  0.68455853  1
  Zn  Zn96  1  0.19072537  0.68538885  0.18432612  1
  Zn  Zn97  1  0.19221192  0.68639012  0.68997249  1
  Zn  Zn98  1  0.68446951  0.19175786  0.18927309  1
  Zn  Zn99  1  0.68517031  0.18719563  0.68622390  1
  Zn  Zn100  1  0.68939905  0.68640062  0.18365092  1
  Zn  Zn101  1  0.68625736  0.68237108  0.68332541  1
  Zn  Zn102  1  0.31139885  0.31034802  0.31478416  1
  Zn  Zn103  1  0.32274636  0.30887603  0.80516130  1
  Zn  Zn104  1  0.32160872  0.81215241  0.31195424  1
  Zn  Zn105  1  0.31253728  0.81445663  0.81939732  1
  Zn  Zn106  1  0.80708165  0.32152411  0.31149140  1
  Zn  Zn107  1  0.81151847  0.31760321  0.82279375  1
  Zn  Zn108  1  0.81519393  0.81202510  0.31116376  1
  Zn  Zn109  1  0.81406998  0.82148203  0.81597224  1
  Zn  Zn110  1  0.18675230  0.43909766  0.43794384  1
  Zn  Zn111  1  0.19302942  0.43555867  0.93428191  1
  Zn  Zn112  1  0.19221235  0.93422237  0.43618685  1
  Zn  Zn113  1  0.18544912  0.93352496  0.93806703  1
  Zn  Zn114  1  0.68419411  0.44359894  0.43415854  1
  Zn  Zn115  1  0.68842331  0.43644628  0.94268898  1
  Zn  Zn116  1  0.69139118  0.93628586  0.43683503  1
  Zn  Zn117  1  0.68401020  0.93467098  0.93905517  1
  Zn  Zn118  1  0.31433770  0.06445850  0.06485770  1
  Zn  Zn119  1  0.31137787  0.06455134  0.56314265  1
  Zn  Zn120  1  0.31302846  0.56514860  0.05732301  1
  Zn  Zn121  1  0.30899781  0.56084845  0.56264698  1
  Zn  Zn122  1  0.81206915  0.06521444  0.06095779  1
  Zn  Zn123  1  0.80533355  0.06055367  0.55439710  1
  Zn  Zn124  1  0.81218607  0.56735266  0.06540021  1
  Zn  Zn125  1  0.80712872  0.56307073  0.56323265  1
  Zn  Zn126  1  0.43645669  0.43549988  0.18329608  1
  Zn  Zn127  1  0.43346469  0.43863021  0.68949918  1
  Zn  Zn128  1  0.44118752  0.93720401  0.18610936  1
  Zn  Zn129  1  0.43944118  0.93932910  0.69462111  1
  Zn  Zn130  1  0.94439150  0.44066090  0.18736132  1
  Zn  Zn131  1  0.92651034  0.44613018  0.68207509  1
  Zn  Zn132  1  0.93996451  1.05176102  0.18831548  1
  Zn  Zn133  1  0.95791738  0.96648518  0.71257482  1
  Zn  Zn134  1  0.06863442  0.05423324  0.31986087  1
  Zn  Zn135  1  0.02814606  0.11054929  0.82759798  1
  Zn  Zn136  1  0.06497383  0.56056448  0.30552601  1
  Zn  Zn137  1  0.05725238  0.55726512  0.80330882  1
  Zn  Zn138  1  0.56460090  0.06117474  0.30903266  1
  Zn  Zn139  1  0.56284699  0.06615555  0.81634180  1
  Zn  Zn140  1  0.56514058  0.56231204  0.31337481  1
  Zn  Zn141  1  0.56342629  0.56398376  0.81195051  1
  Zn  Zn142  1  0.43709684  0.18844116  0.43982637  1
  Zn  Zn143  1  0.43502140  0.18302945  0.93651155  1
  Zn  Zn144  1  0.43738617  0.68941741  0.43392551  1
  Zn  Zn145  1  0.43428900  0.69009763  0.93774132  1
  Zn  Zn146  1  0.91577099  0.21305935  0.38440645  1
  Zn  Zn147  1  0.94459461  0.19744192  0.95350821  1
  Zn  Zn148  1  0.93991421  0.68589147  0.44028777  1
  Zn  Zn149  1  0.93304546  0.68103472  0.93508897  1
  Zn  Zn150  1  0.06865519  0.30976210  0.05476702  1
  Zn  Zn151  1  0.04882637  0.29879797  0.54915283  1
  Zn  Zn152  1  0.06694534  0.81643641  0.06491748  1
  Zn  Zn153  1  0.06832561  0.79849099  0.56531610  1
  Zn  Zn154  1  0.56515802  0.30733680  0.05862615  1
  Zn  Zn155  1  0.55848793  0.31404793  0.56161479  1
  Zn  Zn156  1  0.56579380  0.80933686  0.06904826  1
  Zn  Zn157  1  0.56373749  0.81365606  0.56618372  1
  O  O158  1  0.13166892  0.10906960  0.12631592  1
  O  O159  1  0.12060236  0.11560870  0.61701721  1
  O  O160  1  0.11565780  0.61049100  0.13532955  1
  O  O161  1  0.12428407  0.62302023  0.61987792  1
  O  O162  1  0.61537602  0.13009476  0.11614171  1
  O  O163  1  0.61430441  0.11360981  0.62344107  1
  O  O164  1  0.61852359  0.61849629  0.11968760  1
  O  O165  1  0.62748013  0.61213931  0.60758732  1
  O  O166  1  0.38026227  0.38395241  0.38094204  1
  O  O167  1  0.37714704  0.38183674  0.88411003  1
  O  O168  1  0.37343988  0.88433113  0.38944455  1
  O  O169  1  0.38953338  0.88452354  0.87012065  1
  O  O170  1  0.89110886  0.38039944  0.37969054  1
  O  O171  1  0.87115629  0.39371979  0.88318546  1
  O  O172  1  0.88763966  0.88171862  0.36886960  1
  O  O173  1  0.89219941  0.88456208  0.87360549  1
  O  O174  1  0.25960136  0.00030430  0.36843913  1
  O  O175  1  0.26477945  -0.01377827  0.87479042  1
  O  O176  1  0.26116336  0.50913431  0.37496932  1
  O  O177  1  0.25809257  0.51056433  0.86902583  1
  O  O178  1  0.75592623  0.00497145  0.36727111  1
  O  O179  1  0.75480530  0.00367118  0.87423808  1
  O  O180  1  0.74543992  0.51201714  0.36173317  1
  O  O181  1  0.75366192  0.50230029  0.86590731  1
  O  O182  1  0.23760943  0.50777559  0.12559794  1
  O  O183  1  0.25455750  0.50301160  0.64242670  1
  O  O184  1  0.24957740  0.99135205  0.13167442  1
  O  O185  1  0.24532759  0.98643363  0.62092921  1
  O  O186  1  0.74588313  0.49116155  0.12990137  1
  O  O187  1  0.74296412  0.49529482  0.63424098  1
  O  O188  1  0.75871699  0.98838632  0.13233687  1
  O  O189  1  0.73811144  1.00989255  0.63609964  1
  O  O190  1  0.01085766  0.38179259  0.26285041  1
  O  O191  1  -0.04468728  0.34448307  0.74578605  1
  O  O192  1  0.01427402  0.86480843  0.25773044  1
  O  O193  1  0.01182446  0.87758312  0.76404058  1
  O  O194  1  0.49173739  0.36711718  0.26101658  1
  O  O195  1  0.48720590  0.35677233  0.75027361  1
  O  O196  1  0.52058664  0.87731908  0.24299128  1
  O  O197  1  0.51031099  0.86673234  0.75885532  1
  O  O198  1  0.50525995  0.13374769  0.23610170  1
  O  O199  1  0.49613959  0.12946573  0.74432650  1
  O  O200  1  0.49295837  0.62184654  0.24336569  1
  O  O201  1  0.48901631  0.63754875  0.75653078  1
  O  O202  1  1.00611650  0.11810026  0.25350154  1
  O  O203  1  0.99723807  0.08796404  0.72030343  1
  O  O204  1  0.99531371  0.63097478  0.24320532  1
  O  O205  1  0.98240692  0.62440562  0.74415125  1
  O  O206  1  0.36437478  0.25358692  0.00369592  1
  O  O207  1  0.36078006  0.25728072  0.49221989  1
  O  O208  1  0.35699633  0.74196969  0.00216284  1
  O  O209  1  0.37855780  0.75825511  0.51152673  1
  O  O210  1  0.85781805  0.24411790  0.00533758  1
  O  O211  1  0.87402019  0.26674292  0.48865134  1
  O  O212  1  0.86426402  0.74168348  0.00808135  1
  O  O213  1  0.86433368  0.74483845  0.50207139  1
  O  O214  1  0.13682739  0.24202795  0.49584480  1
  O  O215  1  0.14043487  0.23433498  0.99911968  1
  O  O216  1  0.13053470  0.72871906  0.49848265  1
  O  O217  1  0.14076251  0.74673887  1.00735337  1
  O  O218  1  0.62201017  0.24923209  0.48670001  1
  O  O219  1  0.63954283  0.24167874  1.00013278  1
  O  O220  1  0.62121022  0.73637932  0.50337837  1
  O  O221  1  0.63184549  0.74307446  0.99453803  1
  O  O222  1  0.49598390  0.24790745  0.13435393  1
  O  O223  1  0.50415812  0.23770856  0.63284056  1
  O  O224  1  0.50102691  0.73584640  0.13278469  1
  O  O225  1  0.48984325  0.75745579  0.63904600  1
  O  O226  1  0.99947631  0.25405577  0.11998026  1
  O  O227  1  0.99603316  0.22815587  0.62498376  1
  O  O228  1  0.99672461  0.74626988  0.13111836  1
  O  O229  1  1.00125814  0.72766125  0.62315327  1
  O  O230  1  0.01894281  0.26650705  0.38491233  1
  O  O231  1  0.00464290  0.21279857  0.86350036  1
  O  O232  1  -0.00571787  0.75581344  0.36191252  1
  O  O233  1  -0.00324985  0.76431065  0.88443909  1
  O  O234  1  0.50132181  0.25510078  0.36779616  1
  O  O235  1  0.50135570  0.24676627  0.86389690  1
  O  O236  1  0.48529073  0.76047783  0.36367606  1
  O  O237  1  0.50652607  0.75936467  0.86816060  1
  O  O238  1  0.24486875  0.13736743  0.50035307  1
  O  O239  1  0.24415348  0.13343862  1.00095907  1
  O  O240  1  0.24381561  0.62399281  0.48889412  1
  O  O241  1  0.24787418  0.62938100  0.98566029  1
  O  O242  1  0.74234927  0.12582395  0.48425644  1
  O  O243  1  0.73829359  0.13076479  0.99802584  1
  O  O244  1  0.73997246  0.63208433  0.49306832  1
  O  O245  1  0.73726461  0.63940570  1.00984860  1
  O  O246  1  0.25824534  0.35651080  -0.00655839  1
  O  O247  1  0.25407928  0.36308677  0.49467245  1
  O  O248  1  0.24567763  0.86165474  0.00816895  1
  O  O249  1  0.25999708  0.87150286  0.51016240  1
  O  O250  1  0.74982458  0.37032250  0.01846593  1
  O  O251  1  0.76136702  0.37729235  0.48870881  1
  O  O252  1  0.74300704  0.86310918  0.00861655  1
  O  O253  1  0.74627314  0.85650695  0.49363332  1
  O  O254  1  0.12816789  0.48820582  0.24033964  1
  O  O255  1  0.13958491  0.49655490  0.75534734  1
  O  O256  1  0.13791957  0.98800560  0.24666835  1
  O  O257  1  0.12203130  0.98374021  0.72978732  1
  O  O258  1  0.63776662  0.50942179  0.23860066  1
  O  O259  1  0.63629179  0.51153670  0.74158704  1
  O  O260  1  0.63868502  0.98986769  0.25096314  1
  O  O261  1  0.62994121  0.99387036  0.74619717  1
  O  O262  1  0.37023370  -0.01201998  0.26289847  1
  O  O263  1  0.37958213  0.01021108  0.76112002  1
  O  O264  1  0.37434984  0.50523699  0.25741869  1
  O  O265  1  0.36897946  0.50853041  0.75720424  1
  O  O266  1  0.86178938  -0.00214306  0.26092607  1
  O  O267  1  0.86007517  -0.00247802  0.76526156  1
  O  O268  1  0.86568297  0.51250002  0.24040797  1
  O  O269  1  0.86170495  0.50696212  0.76083861  1
  O  O270  1  0.12035416  0.37288743  0.36598795  1
  O  O271  1  0.09457682  0.37521260  0.90352477  1
  O  O272  1  0.11800846  0.87885696  0.36640578  1
  O  O273  1  0.11917124  0.87607283  0.86217059  1
  O  O274  1  0.61068778  0.36934569  0.37969655  1
  O  O275  1  0.62230136  0.37368864  0.87972221  1
  O  O276  1  0.62711000  0.87757021  0.36003066  1
  O  O277  1  0.61524981  0.86660385  0.86914981  1
  O  O278  1  0.38995763  0.14086766  0.11471494  1
  O  O279  1  0.38506309  0.11268051  0.63900105  1
  O  O280  1  0.38425976  0.61645120  0.13185852  1
  O  O281  1  0.36738883  0.63630453  0.63662042  1
  O  O282  1  0.87658930  0.12382379  0.12805555  1
  O  O283  1  0.88815699  0.11852327  0.60848690  1
  O  O284  1  0.88391145  0.63426561  0.13398908  1
  O  O285  1  0.87709861  0.62356171  0.63630422  1
  O  O286  1  0.26451992  0.24532871  0.12245513  1
  O  O287  1  0.24917598  0.25094278  0.61197333  1
  O  O288  1  0.25348170  0.75367804  0.11545578  1
  O  O289  1  0.26227962  0.75922908  0.62501392  1
  O  O290  1  0.74902424  0.26645015  0.12784161  1
  O  O291  1  0.75626803  0.24985871  0.62174159  1
  O  O292  1  0.75800798  0.75664254  0.11922115  1
  O  O293  1  0.74420846  0.74746439  0.61052960  1
  O  O294  1  0.23844236  0.24745922  0.37967482  1
  O  O295  1  0.25528738  0.24506760  0.87985700  1
  O  O296  1  0.26065589  0.73426188  0.37644126  1
  O  O297  1  0.25045677  0.73933431  0.88375032  1
  O  O298  1  0.73724054  0.24397975  0.37217582  1
  O  O299  1  0.75176263  0.24205992  0.88375073  1
  O  O300  1  0.75376941  0.73831910  0.38114907  1
  O  O301  1  0.73819557  0.75990923  0.88434886  1
  O  O302  1  0.02226216  0.11287527  0.00023641  1
  O  O303  1  0.02059202  0.12493914  0.50733349  1
  O  O304  1  -0.00010348  0.62696027  0.01243359  1
  O  O305  1  0.01114398  0.62170879  0.50697917  1
  O  O306  1  0.51364402  0.13534009  0.01003286  1
  O  O307  1  0.49762923  0.11495516  0.50944662  1
  O  O308  1  0.50983745  0.63166281  0.01021876  1
  O  O309  1  0.50898043  0.61551733  0.49202768  1
  O  O310  1  0.48962039  0.38185737  0.48999428  1
  O  O311  1  0.48246577  0.36269466  0.99510519  1
  O  O312  1  0.49174830  0.88440559  0.50480290  1
  O  O313  1  0.50603464  0.86792476  0.98872584  1
  O  O314  1  0.99523892  0.38077296  0.49099172  1
  O  O315  1  1.03842520  0.37575123  0.96184591  1
  O  O316  1  1.00169264  0.86418055  0.49216825  1
  O  O317  1  1.01892963  0.88905435  0.98352066  1
  O  O318  1  0.49322603  0.49380389  0.38171953  1
  O  O319  1  0.48554575  0.50120352  0.86964986  1
  O  O320  1  0.49616702  0.99592401  0.38467287  1
  O  O321  1  0.50247873  0.98547410  0.87585171  1
  O  O322  1  1.00897096  0.49058271  0.37946046  1
  O  O323  1  0.98438363  0.50710795  0.87549324  1
  O  O324  1  0.99161970  0.98582694  0.37576028  1
  O  O325  1  0.98921551  1.00550286  0.88193047  1
  O  O326  1  0.01425096  -0.00940853  0.11436526  1
  O  O327  1  0.00954935  -0.00365313  0.60087118  1
  O  O328  1  0.00871130  0.50604669  0.11655086  1
  O  O329  1  -0.00202476  0.51746732  0.62770254  1
  O  O330  1  0.49368421  0.01901286  0.12571578  1
  O  O331  1  0.50776473  0.00543795  0.62027570  1
  O  O332  1  0.50949219  0.50857017  0.12997935  1
  O  O333  1  0.50462119  0.49627029  0.61335979  1
  O  O334  1  0.23701111  0.37747935  0.25400170  1
  O  O335  1  0.25729012  0.38671126  0.75647302  1
  O  O336  1  0.24550675  0.87360580  0.24460342  1
  O  O337  1  0.23871595  0.86833248  0.74387224  1
  O  O338  1  0.75109450  0.38842026  0.23791940  1
  O  O339  1  0.75235343  0.39099392  0.75086742  1
  O  O340  1  0.74409483  0.88002769  0.24381971  1
  O  O341  1  0.73650430  0.88717449  0.75969548  1
  O  O342  1  0.25303620  0.10818194  0.25106371  1
  O  O343  1  0.26329220  0.12931048  0.74495366  1
  O  O344  1  0.25775632  0.62107006  0.25962744  1
  O  O345  1  0.25888700  0.62330799  0.76263019  1
  O  O346  1  0.74002838  0.11663766  0.25963366  1
  O  O347  1  0.73909001  0.11517107  0.76512386  1
  O  O348  1  0.75763167  0.62213922  0.25400702  1
  O  O349  1  0.75787791  0.61396969  0.74434491  1
  O  O350  1  0.37591818  0.10951302  0.38187766  1
  O  O351  1  0.37908798  0.11021667  0.86558192  1
  O  O352  1  0.37034623  0.61538296  0.36756420  1
  O  O353  1  0.36963303  0.61790416  0.86792436  1
  O  O354  1  0.86293802  0.10922398  0.38291539  1
  O  O355  1  0.85885131  0.11416709  0.88695815  1
  O  O356  1  0.86914486  0.62812088  0.36199448  1
  O  O357  1  0.87154154  0.61907008  0.86167557  1
  O  O358  1  0.12090787  0.38558936  0.13493503  1
  O  O359  1  0.11068532  0.33656258  0.66217847  1
  O  O360  1  0.13787203  0.88278108  0.13482517  1
  O  O361  1  0.13314293  0.87407494  0.62939127  1
  O  O362  1  0.62456548  0.38819426  0.12001420  1
  O  O363  1  0.62679193  0.38936827  0.61634027  1
  O  O364  1  0.63943040  0.87155639  0.13433630  1
  O  O365  1  0.61912786  0.88581651  0.63749369  1
  O  O366  1  0.12466333  0.26526686  0.25629064  1
  O  O367  1  0.11895599  0.28435280  0.71678965  1
  O  O368  1  0.11782627  0.75639168  0.24259231  1
  O  O369  1  0.12295727  0.76076173  0.74585869  1
  O  O370  1  0.61208919  0.25111651  0.26197352  1
  O  O371  1  0.60887784  0.24375518  0.75286011  1
  O  O372  1  0.63182171  0.76242187  0.24892009  1
  O  O373  1  0.62061365  0.75308632  0.75554656  1
  O  O374  1  0.38124162  0.25506943  0.23824280  1
  O  O375  1  0.38840417  0.22868165  0.75524535  1
  O  O376  1  0.37241648  0.73390133  0.24064059  1
  O  O377  1  0.38042756  0.74576321  0.74773793  1
  O  O378  1  0.87964762  0.24537628  0.27737100  1
  O  O379  1  0.89872936  0.28961549  0.74331678  1
  O  O380  1  0.88510363  0.74289298  0.24113038  1
  O  O381  1  0.86040727  0.73804011  0.75527611  1
  O  O382  1  0.38011081  0.49620049  0.49280831  1
  O  O383  1  0.36601235  0.48316012  0.99376140  1
  O  O384  1  0.38253165  0.99235436  0.49753976  1
  O  O385  1  0.37540132  1.00727824  0.98539447  1
  O  O386  1  0.87608132  0.49041985  0.50017355  1
  O  O387  1  0.87500501  0.51276324  0.98733002  1
  O  O388  1  0.87157751  0.98671582  0.49082560  1
  O  O389  1  0.88705899  0.99969655  0.99523157  1
  O  O390  1  0.12810514  0.00826730  0.00777647  1
  O  O391  1  0.13729854  0.01246874  0.50462302  1
  O  O392  1  0.12775902  0.49659871  0.01365011  1
  O  O393  1  0.12820693  0.51672698  0.49698177  1
  O  O394  1  0.62817452  0.01488564  0.00140430  1
  O  O395  1  0.61639557  -0.00398321  0.50833232  1
  O  O396  1  0.63344612  0.51402159  0.01056881  1
  O  O397  1  0.61601427  0.50689341  0.50437789  1
  O  O398  1  0.37634910  0.36345793  0.11155267  1
  O  O399  1  0.37778203  0.37833170  0.60857025  1
  O  O400  1  0.36357282  0.87310580  0.13117339  1
  O  O401  1  0.37051837  0.87050558  0.62280898  1
  O  O402  1  0.86791251  0.37591380  0.12779051  1
  O  O403  1  0.87221483  0.37292902  0.60527589  1
  O  O404  1  0.86601982  0.86108779  0.12732613  1
  O  O405  1  0.89641921  0.89111724  0.62345791  1
  O  O406  1  0.12896330  0.13010363  0.38724168  1
  O  O407  1  0.13625730  0.11093142  0.88319702  1
  O  O408  1  0.14033829  0.62274310  0.37008512  1
  O  O409  1  0.13589704  0.62100154  0.86787590  1
  O  O410  1  0.62894886  0.13249547  0.37630339  1
  O  O411  1  0.63280074  0.12720448  0.88919028  1
  O  O412  1  0.63295139  0.62058232  0.38834666  1
  O  O413  1  0.61713120  0.63721263  0.88465963  1
