# generated using pymatgen
data_V79Zn79O256
_symmetry_space_group_name_H-M   'P 1'
_cell_length_a   16.85005088
_cell_length_b   16.83915433
_cell_length_c   16.83740404
_cell_angle_alpha   90.01554636
_cell_angle_beta   90.02682731
_cell_angle_gamma   90.03565926
_symmetry_Int_Tables_number   1
_chemical_formula_structural   V79Zn79O256
_chemical_formula_sum   'V79 Zn79 O256'
_cell_volume   4777.45362082
_cell_formula_units_Z   1
loop_
 _symmetry_equiv_pos_site_id
 _symmetry_equiv_pos_as_xyz
  1  'x, y, z'
loop_
 _atom_site_type_symbol
 _atom_site_label
 _atom_site_symmetry_multiplicity
 _atom_site_fract_x
 _atom_site_fract_y
 _atom_site_fract_z
 _atom_site_occupancy
  V  V0  1  0.50285123  0.12226931  0.62077436  1
  V  V1  1  0.62122112  0.88909272  0.23525001  1
  V  V2  1  0.37566287  -0.00196873  0.38006298  1
  V  V3  1  0.86508788  0.00396975  0.35712036  1
  V  V4  1  0.12013588  0.25213344  0.86711328  1
  V  V5  1  0.37313688  0.37279306  0.49850251  1
  V  V6  1  0.14487583  0.75385669  0.37481121  1
  V  V7  1  0.24529312  0.25039464  0.49851201  1
  V  V8  1  0.86178947  0.12452968  0.76289068  1
  V  V9  1  0.00438093  0.51185518  0.00022248  1
  V  V10  1  0.74134431  -0.02014175  0.75857063  1
  V  V11  1  0.49950810  0.12533436  0.12583797  1
  V  V12  1  0.74307157  0.37885968  0.13241118  1
  V  V13  1  0.24422033  0.12675000  0.37446677  1
  V  V14  1  0.51055264  0.37461460  0.37023672  1
  V  V15  1  0.25036097  0.25591771  0.00389864  1
  V  V16  1  0.63498513  0.38268641  0.74949908  1
  V  V17  1  0.63232706  0.24644379  0.87550620  1
  V  V18  1  0.75045059  0.88671332  0.12723985  1
  V  V19  1  0.37170407  0.12801136  0.24965837  1
  V  V20  1  0.25072334  -0.02321031  0.74937194  1
  V  V21  1  0.13884924  0.62876975  0.49420701  1
  V  V22  1  0.63623599  0.13720027  0.49869515  1
  V  V23  1  -0.06135179  -0.07172181  -0.06532122  1
  V  V24  1  0.37550694  -0.00180549  0.87958856  1
  V  V25  1  0.00160123  0.23561655  0.25844358  1
  V  V26  1  0.11651635  0.11577480  0.00253129  1
  V  V27  1  0.75151215  0.36969854  0.61848567  1
  V  V28  1  0.49794264  0.87129810  0.37961511  1
  V  V29  1  0.74553874  0.62418892  0.37918093  1
  V  V30  1  0.74981809  0.13575661  0.36291655  1
  V  V31  1  0.88341569  0.24031112  0.13233169  1
  V  V32  1  0.50468592  0.38604540  0.87067759  1
  V  V33  1  0.75390483  0.24830571  0.00050237  1
  V  V34  1  0.63086110  0.50073027  0.62824346  1
  V  V35  1  0.13049692  0.38557555  0.74948898  1
  V  V36  1  0.15362577  0.74814740  0.88404749  1
  V  V37  1  0.35321250  0.76919233  0.61785368  1
  V  V38  1  0.49797269  0.74215277  0.21467739  1
  V  V39  1  0.87646754  0.75093291  0.12956971  1
  V  V40  1  0.00558977  0.62922562  0.13005470  1
  V  V41  1  0.24763638  0.12572910  0.87159174  1
  V  V42  1  0.50334697  0.50080939  0.49892212  1
  V  V43  1  0.75051010  0.62356703  0.87541523  1
  V  V44  1  0.51070153  0.25853843  0.25278209  1
  V  V45  1  0.12107664  0.12689742  0.49840895  1
  V  V46  1  0.74550974  0.77076228  0.50211021  1
  V  V47  1  0.87661631  0.62480123  0.25173107  1
  V  V48  1  0.62691784  0.12234029  0.00308743  1
  V  V49  1  -0.01274013  0.86690525  0.37151461  1
  V  V50  1  0.13068090  -0.01291662  0.62867672  1
  V  V51  1  0.87206381  0.62451866  0.74673551  1
  V  V52  1  0.12522619  0.50292162  0.62135516  1
  V  V53  1  0.37473142  0.12466292  0.74796933  1
  V  V54  1  0.75254526  0.75269080  0.00050327  1
  V  V55  1  0.37509338  0.37592514  0.00200506  1
  V  V56  1  0.87944474  0.37875653  0.49866811  1
  V  V57  1  0.36977762  0.51520805  0.37491829  1
  V  V58  1  0.24650064  0.86600449  0.12840538  1
  V  V59  1  -0.01465645  -0.00455171  0.50401474  1
  V  V60  1  0.50112065  0.25035228  0.74871387  1
  V  V61  1  0.63106503  0.61702838  0.01664349  1
  V  V62  1  -0.00088583  0.12836214  0.63560591  1
  V  V63  1  0.00743281  0.76553280  0.75232856  1
  V  V64  1  0.51316934  0.49765040  0.01159037  1
  V  V65  1  0.37026256  0.86223458  0.00862173  1
  V  V66  1  0.73590933  0.49900275  0.24902231  1
  V  V67  1  0.87701639  0.24880831  0.62557308  1
  V  V68  1  0.24842832  0.50377171  0.25868885  1
  V  V69  1  0.87088939  0.77107027  0.62170758  1
  V  V70  1  0.87594366  0.50262840  0.87080346  1
  V  V71  1  0.49746308  0.62777356  0.63217869  1
  V  V72  1  0.13275261  0.49373873  0.12577495  1
  V  V73  1  0.35906611  0.62062534  0.74484281  1
  V  V74  1  0.00206053  0.37707583  0.87137016  1
  V  V75  1  0.49651202  0.00287203  0.00003433  1
  V  V76  1  0.36228616  0.50331467  0.86829891  1
  V  V77  1  0.00844359  0.38154318  0.37421786  1
  V  V78  1  -0.00518080  0.62271746  0.61347606  1
  Zn  Zn79  1  0.11542927  0.00112392  0.12844719  1
  Zn  Zn80  1  0.87978749  0.37714868  0.00496621  1
  Zn  Zn81  1  0.25022116  0.71299043  0.01277328  1
  Zn  Zn82  1  0.62247641  0.75256243  0.36729367  1
  Zn  Zn83  1  0.13372378  0.36403896  0.25195502  1
  Zn  Zn84  1  0.11340886  0.86855180  0.24425278  1
  Zn  Zn85  1  0.63253880  -0.01531994  0.62611473  1
  Zn  Zn86  1  0.50277509  -0.00014905  0.50085846  1
  Zn  Zn87  1  0.56437845  0.79953184  0.82836305  1
  Zn  Zn88  1  0.87732250  0.50147062  0.37899538  1
  Zn  Zn89  1  0.62510336  0.62996209  0.50311142  1
  Zn  Zn90  1  0.37232866  0.25032094  0.62519204  1
  Zn  Zn91  1  0.24323591  -0.00233707  0.24872249  1
  Zn  Zn92  1  0.25213788  0.37948001  0.62951242  1
  Zn  Zn93  1  0.36831076  0.26074741  0.13130348  1
  Zn  Zn94  1  0.18321582  0.18809217  0.18518607  1
  Zn  Zn95  1  0.18443456  0.18807284  0.68519581  1
  Zn  Zn96  1  0.18900310  0.68561940  0.19397935  1
  Zn  Zn97  1  0.18524794  0.69053068  0.68639330  1
  Zn  Zn98  1  0.69014977  0.18875949  0.18429698  1
  Zn  Zn99  1  0.68785466  0.18697283  0.68542875  1
  Zn  Zn100  1  0.68293358  0.69182409  0.19105892  1
  Zn  Zn101  1  0.68722227  0.71410537  0.69327101  1
  Zn  Zn102  1  0.31421332  0.31711025  0.31460907  1
  Zn  Zn103  1  0.31167727  0.31497240  0.81509218  1
  Zn  Zn104  1  0.32377747  0.80410043  0.30257321  1
  Zn  Zn105  1  0.35324576  0.79125668  0.82785431  1
  Zn  Zn106  1  0.81614167  0.31366317  0.31205481  1
  Zn  Zn107  1  0.81838031  0.31095469  0.80935944  1
  Zn  Zn108  1  0.80782083  0.81570256  0.31121109  1
  Zn  Zn109  1  0.81349691  0.81010262  0.81246924  1
  Zn  Zn110  1  0.18394049  0.44223785  0.44151246  1
  Zn  Zn111  1  0.18681764  0.44401663  0.94233366  1
  Zn  Zn112  1  0.18398478  0.93662383  0.43818757  1
  Zn  Zn113  1  0.18249348  0.92706168  0.93169551  1
  Zn  Zn114  1  0.69231973  0.43601503  0.43843401  1
  Zn  Zn115  1  0.69501283  0.43446586  0.93731192  1
  Zn  Zn116  1  0.67748415  0.94876838  0.43170858  1
  Zn  Zn117  1  0.68177463  0.93264274  0.92562201  1
  Zn  Zn118  1  0.30305431  0.06190748  0.06701637  1
  Zn  Zn119  1  0.31182890  0.05623139  0.56277103  1
  Zn  Zn120  1  0.33021325  0.56391606  0.07654469  1
  Zn  Zn121  1  0.30989691  0.56231919  0.55906394  1
  Zn  Zn122  1  0.82293986  0.06176129  0.05286697  1
  Zn  Zn123  1  0.80474486  0.05978940  0.57311277  1
  Zn  Zn124  1  0.81839807  0.55983417  0.06470228  1
  Zn  Zn125  1  0.81159250  0.56136416  0.56262949  1
  Zn  Zn126  1  0.43684750  0.45192404  0.18589815  1
  Zn  Zn127  1  0.43959174  0.43964638  0.68701545  1
  Zn  Zn128  1  0.43521820  0.93786238  0.18832627  1
  Zn  Zn129  1  0.44425260  0.93600520  0.69412410  1
  Zn  Zn130  1  0.93442407  0.43471530  0.19027289  1
  Zn  Zn131  1  0.94216837  0.43894859  0.68632376  1
  Zn  Zn132  1  0.93856366  0.94168063  0.18082933  1
  Zn  Zn133  1  0.93209371  0.94806737  0.69836241  1
  Zn  Zn134  1  0.05927206  0.05306598  0.31339023  1
  Zn  Zn135  1  0.06167202  0.05245226  0.81469217  1
  Zn  Zn136  1  0.06414426  0.56576682  0.31427405  1
  Zn  Zn137  1  0.06374405  0.57328822  0.80665009  1
  Zn  Zn138  1  0.56370953  0.06601707  0.31356247  1
  Zn  Zn139  1  0.56544227  0.05974640  0.81470745  1
  Zn  Zn140  1  0.55750256  0.56855853  0.30979011  1
  Zn  Zn141  1  0.58204054  0.60242241  0.79658731  1
  Zn  Zn142  1  0.43844479  0.18817252  0.43584388  1
  Zn  Zn143  1  0.43825862  0.19023146  0.93441242  1
  Zn  Zn144  1  0.43342133  0.69390682  0.44237930  1
  Zn  Zn145  1  0.44418340  0.68057393  0.93887604  1
  Zn  Zn146  1  0.93171704  0.18834510  0.43906591  1
  Zn  Zn147  1  0.93887451  0.18836556  0.94077791  1
  Zn  Zn148  1  0.92661889  0.68916209  0.44154019  1
  Zn  Zn149  1  0.94312972  0.70246394  0.94146860  1
  Zn  Zn150  1  0.06225585  0.31216591  0.05988945  1
  Zn  Zn151  1  0.05983607  0.31288830  0.56293966  1
  Zn  Zn152  1  0.06425572  0.81419031  0.05273414  1
  Zn  Zn153  1  0.06030988  0.80954357  0.55727442  1
  Zn  Zn154  1  0.56089012  0.31149925  0.06539778  1
  Zn  Zn155  1  0.56337328  0.31211784  0.55959384  1
  Zn  Zn156  1  0.57042111  0.82037997  0.03084373  1
  Zn  Zn157  1  0.55367104  0.81042541  0.56639799  1
  O  O158  1  0.13140080  0.12268169  0.10614825  1
  O  O159  1  0.11632390  0.11806015  0.61927263  1
  O  O160  1  0.11326955  0.61250998  0.13751523  1
  O  O161  1  0.11686182  0.62423797  0.61202514  1
  O  O162  1  0.61240628  0.13489647  0.11462821  1
  O  O163  1  0.61734895  0.12946628  0.61462249  1
  O  O164  1  0.63915011  0.61189205  0.11532145  1
  O  O165  1  0.61192144  0.61569662  0.62612670  1
  O  O166  1  0.38466022  0.38116767  0.38755665  1
  O  O167  1  0.38535993  0.38411011  0.87694752  1
  O  O168  1  0.39004420  0.88440058  0.36170950  1
  O  O169  1  0.36454772  0.89236836  0.89589633  1
  O  O170  1  0.88090885  0.37635967  0.38450335  1
  O  O171  1  0.88518753  0.38440579  0.87243426  1
  O  O172  1  0.87836820  0.88883894  0.37271074  1
  O  O173  1  0.87291974  0.88222837  0.87244282  1
  O  O174  1  0.25675698  0.01036686  0.37202316  1
  O  O175  1  0.25397919  0.00885215  0.86627890  1
  O  O176  1  0.25903144  0.50347543  0.37411787  1
  O  O177  1  0.26408527  0.49663420  0.87578127  1
  O  O178  1  0.76181201  0.00360369  0.37485350  1
  O  O179  1  0.74315599  0.00019008  0.86140411  1
  O  O180  1  0.75162941  0.50794459  0.36866597  1
  O  O181  1  0.76775785  0.50543942  0.88014215  1
  O  O182  1  0.23625588  0.49529902  0.13708877  1
  O  O183  1  0.23181556  0.49676425  0.61428583  1
  O  O184  1  0.23956595  0.98890876  0.12829387  1
  O  O185  1  0.23899347  1.00211526  0.63348880  1
  O  O186  1  0.75581240  0.48628528  0.13062101  1
  O  O187  1  0.73803228  0.49046303  0.62142341  1
  O  O188  1  0.75788960  0.98456937  0.11637536  1
  O  O189  1  0.74750311  0.99655172  0.64506273  1
  O  O190  1  -0.00083434  0.36809735  0.26421485  1
  O  O191  1  0.01152059  0.38166116  0.76320345  1
  O  O192  1  -0.00381454  0.87925074  0.26843272  1
  O  O193  1  -0.00448566  0.86493752  0.73878191  1
  O  O194  1  0.49020339  0.36589912  0.25375561  1
  O  O195  1  0.51106358  0.36825658  0.75187901  1
  O  O196  1  0.50909948  0.86796699  0.24643003  1
  O  O197  1  0.53796087  0.87240131  0.72560056  1
  O  O198  1  0.49366513  0.13676200  0.24642837  1
  O  O199  1  0.49718148  0.13401688  0.74462940  1
  O  O200  1  0.51632687  0.64384125  0.23820606  1
  O  O201  1  0.48661280  0.60805519  0.73417166  1
  O  O202  1  0.99985627  0.13584834  0.25912813  1
  O  O203  1  0.98977754  0.11131084  0.73955604  1
  O  O204  1  0.98766909  0.61936227  0.24391315  1
  O  O205  1  0.98897299  0.63844506  0.73462103  1
  O  O206  1  0.36852481  0.25971899  -0.00509918  1
  O  O207  1  0.36728171  0.25731010  0.50038546  1
  O  O208  1  0.37288636  0.76130199  0.00376447  1
  O  O209  1  0.37171615  0.74311190  0.52076482  1
  O  O210  1  0.86906387  0.25216369  0.00876226  1
  O  O211  1  0.87829676  0.26014715  0.51544835  1
  O  O212  1  0.86061063  0.73812036  0.01570373  1
  O  O213  1  0.85914216  0.75291197  0.51235639  1
  O  O214  1  0.13120625  0.23773741  0.50537451  1
  O  O215  1  0.13281252  0.24600438  0.98984241  1
  O  O216  1  0.12070753  0.73975941  0.48906363  1
  O  O217  1  0.13823707  0.74734424  0.98976840  1
  O  O218  1  0.62409857  0.23806922  0.49805595  1
  O  O219  1  0.63167480  0.24597036  0.99365673  1
  O  O220  1  0.63623345  0.75056993  0.50461884  1
  O  O221  1  0.64245636  0.72582591  1.00721921  1
  O  O222  1  0.49238955  0.24561115  0.13547484  1
  O  O223  1  0.49937305  0.24457667  0.63485108  1
  O  O224  1  0.51170055  0.75574688  0.11516217  1
  O  O225  1  0.49110788  0.72844600  0.62137510  1
  O  O226  1  0.98931115  0.25491849  0.13259489  1
  O  O227  1  0.99422556  0.23785618  0.62374310  1
  O  O228  1  0.99039787  0.73957351  0.12105712  1
  O  O229  1  0.98378292  0.74734653  0.62417239  1
  O  O230  1  -0.00851313  0.25668859  0.36389804  1
  O  O231  1  0.01034149  0.26522401  0.88438885  1
  O  O232  1  -0.01256994  0.76651603  0.38272866  1
  O  O233  1  -0.00921717  0.74957372  0.85174450  1
  O  O234  1  0.49531727  0.25813508  0.36124549  1
  O  O235  1  0.50929309  0.26061323  0.86638729  1
  O  O236  1  0.49863197  0.76405544  0.37493483  1
  O  O237  1  0.46071992  0.76244182  0.86448377  1
  O  O238  1  0.24248345  0.12962753  0.49513903  1
  O  O239  1  0.24601222  0.13479691  0.98596272  1
  O  O240  1  0.23814233  0.62940366  0.49910674  1
  O  O241  1  0.26815651  0.60546838  1.00118795  1
  O  O242  1  0.73965148  0.12437615  0.49955534  1
  O  O243  1  0.74040852  0.13807823  1.00986790  1
  O  O244  1  0.74849442  0.62759139  0.49032200  1
  O  O245  1  0.74746690  0.62436314  0.99738101  1
  O  O246  1  0.26161576  0.36734136  -0.01117939  1
  O  O247  1  0.25557416  0.36673414  0.49664659  1
  O  O248  1  0.26054288  0.87855401  0.01147383  1
  O  O249  1  0.25505488  0.88749933  0.50748317  1
  O  O250  1  0.75431380  0.36572421  0.01109902  1
  O  O251  1  0.75895526  0.37481122  0.51011076  1
  O  O252  1  0.74460624  0.85818569  0.01303985  1
  O  O253  1  0.74197174  0.86895091  0.49503300  1
  O  O254  1  0.13389022  0.49741071  0.24805711  1
  O  O255  1  0.12196228  0.49587245  0.73973011  1
  O  O256  1  0.12529722  0.98859341  0.24942368  1
  O  O257  1  0.13385406  0.99934028  0.73673389  1
  O  O258  1  0.63616492  0.50399289  0.25271133  1
  O  O259  1  0.61915590  0.49254026  0.74029123  1
  O  O260  1  0.61553465  0.98910197  0.24339273  1
  O  O261  1  0.63683790  1.00887442  0.74646251  1
  O  O262  1  0.37384129  0.01445737  0.25767900  1
  O  O263  1  0.37033120  0.00382077  0.75935787  1
  O  O264  1  0.36406153  0.48955508  0.27167021  1
  O  O265  1  0.37403234  0.49890802  0.76046917  1
  O  O266  1  0.87630672  0.00453407  0.25862129  1
  O  O267  1  0.85772146  0.01525084  0.75007463  1
  O  O268  1  0.86348338  0.51190561  0.25126746  1
  O  O269  1  0.88516423  0.51197508  0.75928491  1
  O  O270  1  0.11191929  0.37563156  0.37858974  1
  O  O271  1  0.12191379  0.37389317  0.86943849  1
  O  O272  1  0.11172937  0.86274592  0.37931911  1
  O  O273  1  0.13143835  0.84962798  0.86822238  1
  O  O274  1  0.61010184  0.38160831  0.37872629  1
  O  O275  1  0.62352532  0.36941841  0.86725267  1
  O  O276  1  0.61192940  0.87904573  0.35946012  1
  O  O277  1  0.60365852  0.85448890  0.92117341  1
  O  O278  1  0.37899066  0.12990443  0.13444248  1
  O  O279  1  0.38299920  0.12658306  0.62970949  1
  O  O280  1  0.41012243  0.55866374  0.14721079  1
  O  O281  1  0.38411433  0.60819810  0.63248270  1
  O  O282  1  0.87129291  0.14105465  0.12159167  1
  O  O283  1  0.88031145  0.13204723  0.63135993  1
  O  O284  1  0.88222286  0.62979172  0.13408028  1
  O  O285  1  0.87786566  0.62586218  0.63072929  1
  O  O286  1  0.25058610  0.24815107  0.10898367  1
  O  O287  1  0.25140840  0.25291788  0.61260860  1
  O  O288  1  0.24745750  0.75918542  0.12443304  1
  O  O289  1  0.25295965  0.75946481  0.62610868  1
  O  O290  1  0.76098140  0.25888073  0.12226857  1
  O  O291  1  0.75855170  0.26184111  0.62819533  1
  O  O292  1  0.75704853  0.75047776  0.11809712  1
  O  O293  1  0.75764725  0.75179053  0.61469923  1
  O  O294  1  0.25423143  0.23848317  0.38634602  1
  O  O295  1  0.24196558  0.24405496  0.87988852  1
  O  O296  1  0.24422691  0.76037202  0.37579595  1
  O  O297  1  0.25712637  0.74545973  0.87831678  1
  O  O298  1  0.75806321  0.23558161  0.37325110  1
  O  O299  1  0.74268254  0.26081282  0.88628634  1
  O  O300  1  0.74905892  0.74653741  0.38863321  1
  O  O301  1  0.76097788  0.73877157  0.89294620  1
  O  O302  1  0.01741803  0.12769391  -0.00612894  1
  O  O303  1  0.00337526  0.11604392  0.50676323  1
  O  O304  1  -0.00400035  0.61908858  0.01040843  1
  O  O305  1  -0.00210132  0.63082059  0.50985518  1
  O  O306  1  0.50429094  0.12553189  0.00700833  1
  O  O307  1  0.50857099  0.12754703  0.50596834  1
  O  O308  1  0.51737996  0.60965237  -0.00254333  1
  O  O309  1  0.49890391  0.61274335  0.50784285  1
  O  O310  1  0.49416009  0.38220743  0.49354731  1
  O  O311  1  0.49950530  0.37917118  0.98873169  1
  O  O312  1  0.50592562  0.87821205  0.48346794  1
  O  O313  1  0.47713229  0.89454918  1.01517860  1
  O  O314  1  0.99306221  0.36699065  0.48563412  1
  O  O315  1  1.00249109  0.38910437  0.98876413  1
  O  O316  1  1.00143217  0.89036086  0.49103251  1
  O  O317  1  0.98193084  0.84866841  0.98659515  1
  O  O318  1  0.49046994  0.49674402  0.37930824  1
  O  O319  1  0.50509050  0.48869073  0.87459468  1
  O  O320  1  0.49291468  0.99185859  0.37196612  1
  O  O321  1  0.48699217  1.00941165  0.88493218  1
  O  O322  1  0.99689912  0.48642840  0.36992978  1
  O  O323  1  0.99831750  0.50045353  0.88148051  1
  O  O324  1  0.98434066  0.99831050  0.38804017  1
  O  O325  1  1.00609388  0.98199945  0.87869585  1
  O  O326  1  0.00821816  -0.02114973  0.10649040  1
  O  O327  1  0.00696548  0.00521743  0.61743112  1
  O  O328  1  0.00299536  0.50870404  0.11933079  1
  O  O329  1  0.01025705  0.51156796  0.62651394  1
  O  O330  1  0.49161912  0.01716991  0.11709067  1
  O  O331  1  0.50028709  0.01541151  0.62660045  1
  O  O332  1  0.52299733  0.47738752  0.10762106  1
  O  O333  1  0.50930419  0.50000182  0.61465102  1
  O  O334  1  0.24661716  0.38849598  0.25906075  1
  O  O335  1  0.23681535  0.37208616  0.74804425  1
  O  O336  1  0.25391673  0.87298343  0.23600552  1
  O  O337  1  0.26559918  0.88110952  0.75893759  1
  O  O338  1  0.75467191  0.38230930  0.24128662  1
  O  O339  1  0.74081903  0.37297074  0.74191262  1
  O  O340  1  0.73384239  0.87237811  0.23881505  1
  O  O341  1  0.73952118  0.87769821  0.75570713  1
  O  O342  1  0.25482368  0.12955700  0.25832804  1
  O  O343  1  0.25466106  0.12571786  0.75871490  1
  O  O344  1  0.25199802  0.60475952  0.24750195  1
  O  O345  1  0.25985022  0.61494558  0.73830214  1
  O  O346  1  0.73955755  0.12353064  0.26328798  1
  O  O347  1  0.75971172  0.13219774  0.75493648  1
  O  O348  1  0.75289695  0.62018066  0.25954227  1
  O  O349  1  0.76460666  0.63526703  0.76008285  1
  O  O350  1  0.36722945  0.11987321  0.36853797  1
  O  O351  1  0.36654523  0.12084875  0.86903026  1
  O  O352  1  0.37948593  0.61415408  0.37826667  1
  O  O353  1  0.38115136  0.61042344  0.85812899  1
  O  O354  1  0.86147741  0.11328463  0.38207186  1
  O  O355  1  0.87946090  0.13576869  0.86080242  1
  O  O356  1  0.86440887  0.62449791  0.36942651  1
  O  O357  1  0.87305976  0.62015888  0.86891494  1
  O  O358  1  0.11294741  0.39095375  0.13156663  1
  O  O359  1  0.11985230  0.38438479  0.63172938  1
  O  O360  1  0.13645397  0.87024043  0.12398832  1
  O  O361  1  0.12083964  0.88935770  0.61659272  1
  O  O362  1  0.64394975  0.36581337  0.12396406  1
  O  O363  1  0.63162593  0.37912848  0.62981819  1
  O  O364  1  0.63564791  0.87554127  0.12699410  1
  O  O365  1  0.59263388  0.87100241  0.65820182  1
  O  O366  1  0.10741552  0.25074623  0.24281283  1
  O  O367  1  0.12603442  0.25891563  0.76113718  1
  O  O368  1  0.12562881  0.74937739  0.26989828  1
  O  O369  1  0.10948232  0.75310229  0.74287350  1
  O  O370  1  0.60918360  0.25065207  0.24594589  1
  O  O371  1  0.61974994  0.25819292  0.75627177  1
  O  O372  1  0.61433512  0.76475856  0.24828772  1
  O  O373  1  0.61108718  0.71355949  0.76987562  1
  O  O374  1  0.37842233  0.24145559  0.25087229  1
  O  O375  1  0.38629668  0.24725408  0.75141161  1
  O  O376  1  0.39810852  0.75274091  0.23620211  1
  O  O377  1  0.36989723  0.72668605  0.72813637  1
  O  O378  1  0.88489530  0.25048717  0.23991056  1
  O  O379  1  0.87592692  0.24066978  0.73780578  1
  O  O380  1  0.86356554  0.73639839  0.24269138  1
  O  O381  1  0.87682424  0.74596340  0.73343031  1
  O  O382  1  0.38107687  0.49421189  0.49114864  1
  O  O383  1  0.39676118  0.49278494  0.98282923  1
  O  O384  1  0.38081834  1.00696009  0.48511379  1
  O  O385  1  0.37977312  1.01118955  0.99314337  1
  O  O386  1  0.87504359  0.48497148  0.50213986  1
  O  O387  1  0.88749116  0.49983546  0.99012410  1
  O  O388  1  0.88492791  1.00279965  0.50696564  1
  O  O389  1  0.88408720  0.99186746  0.99431505  1
  O  O390  1  0.13533604  0.01557133  -0.01001508  1
  O  O391  1  0.11687935  0.01042603  0.51054380  1
  O  O392  1  0.11858468  0.50001071  0.01583797  1
  O  O393  1  0.12101855  0.51905204  0.50231384  1
  O  O394  1  0.61186741  0.01519038  -0.00793745  1
  O  O395  1  0.62084643  0.01092401  0.50979716  1
  O  O396  1  0.62108676  0.50242755  -0.00534038  1
  O  O397  1  0.61675401  0.49965246  0.50764053  1
  O  O398  1  0.38181527  0.37879253  0.10596553  1
  O  O399  1  0.37444310  0.37701993  0.61133372  1
  O  O400  1  0.36133846  0.88241605  0.11641562  1
  O  O401  1  0.38195692  0.86576913  0.63061415  1
  O  O402  1  0.86710466  0.36489449  0.12373424  1
  O  O403  1  0.87180433  0.37058979  0.62301166  1
  O  O404  1  0.85899522  0.86233200  0.14057726  1
  O  O405  1  0.87380748  0.86896104  0.62588942  1
  O  O406  1  0.13285341  0.11532967  0.38634696  1
  O  O407  1  0.13044977  0.13320727  0.87611707  1
  O  O408  1  0.12101599  0.63869239  0.38469860  1
  O  O409  1  0.12303392  0.65046204  0.86103251  1
  O  O410  1  0.63766824  0.11709626  0.38755434  1
  O  O411  1  0.61776480  0.14036923  0.88536081  1
  O  O412  1  0.63328091  0.63112020  0.37864545  1
  O  O413  1  0.64691071  0.61013595  0.88975914  1
