# generated using pymatgen
data_V79Zn79O256
_symmetry_space_group_name_H-M   'P 1'
_cell_length_a   16.91498951
_cell_length_b   16.91085212
_cell_length_c   16.90867505
_cell_angle_alpha   89.91328647
_cell_angle_beta   89.98040445
_cell_angle_gamma   89.99293502
_symmetry_Int_Tables_number   1
_chemical_formula_structural   V79Zn79O256
_chemical_formula_sum   'V79 Zn79 O256'
_cell_volume   4836.66798949
_cell_formula_units_Z   1
loop_
 _symmetry_equiv_pos_site_id
 _symmetry_equiv_pos_as_xyz
  1  'x, y, z'
loop_
 _atom_site_type_symbol
 _atom_site_label
 _atom_site_symmetry_multiplicity
 _atom_site_fract_x
 _atom_site_fract_y
 _atom_site_fract_z
 _atom_site_occupancy
  V  V0  1  0.00045509  0.01308811  -0.00903924  1
  V  V1  1  0.12964608  0.37631454  0.74540586  1
  V  V2  1  0.12094801  0.01479061  0.12324555  1
  V  V3  1  -0.01206595  0.74160453  0.25731454  1
  V  V4  1  0.13826369  -0.00010834  0.62555459  1
  V  V5  1  0.87209020  0.12106304  0.75063303  1
  V  V6  1  0.38196755  0.24421377  0.13400702  1
  V  V7  1  0.25109317  0.01178980  0.25466198  1
  V  V8  1  0.87638463  0.37521742  0.00239077  1
  V  V9  1  0.12491291  0.27057751  0.36922072  1
  V  V10  1  0.37148374  0.25663691  0.62238223  1
  V  V11  1  0.49326730  -0.00672417  0.50435093  1
  V  V12  1  0.62247594  0.25265686  0.87306353  1
  V  V13  1  0.50718332  0.75041394  0.24819429  1
  V  V14  1  0.62247123  0.60261858  0.50260666  1
  V  V15  1  0.49869701  0.38557455  0.87525795  1
  V  V16  1  0.24619361  0.87515683  0.12896651  1
  V  V17  1  0.60757003  0.74918106  0.87571393  1
  V  V18  1  0.62637227  0.47707444  0.63224608  1
  V  V19  1  0.75329151  0.74496467  0.50390514  1
  V  V20  1  -0.00472088  0.38978960  0.86920022  1
  V  V21  1  0.86049682  0.25386379  0.61697132  1
  V  V22  1  0.01072731  0.75601412  0.75053403  1
  V  V23  1  0.00013110  -0.00010539  0.49558116  1
  V  V24  1  0.24452053  0.37976442  0.12272891  1
  V  V25  1  0.25009418  0.74919376  0.00106722  1
  V  V26  1  0.60837363  0.37475366  0.25025977  1
  V  V27  1  0.74808340  0.87017971  0.63264742  1
  V  V28  1  0.00477975  0.50173624  0.49650984  1
  V  V29  1  0.36226036  0.85732057  0.49833008  1
  V  V30  1  0.38067173  0.38757851  -0.00414243  1
  V  V31  1  0.24480111  0.49504300  0.24376012  1
  V  V32  1  0.26514483  0.49682897  0.74874494  1
  V  V33  1  0.38395361  0.87718400  0.00031979  1
  V  V34  1  0.87507936  0.74110985  0.63994381  1
  V  V35  1  0.25198948  0.25837462  0.49514139  1
  V  V36  1  0.00108323  0.25115840  0.74833519  1
  V  V37  1  0.13180005  0.75877278  0.87085702  1
  V  V38  1  0.26567365  0.61705910  0.87277697  1
  V  V39  1  0.12982291  0.61940564  0.00698553  1
  V  V40  1  0.25100602  0.24905743  -0.00255506  1
  V  V41  1  0.49988097  0.12255002  0.62212938  1
  V  V42  1  0.63679287  0.00026815  0.13072897  1
  V  V43  1  0.62462609  0.60178138  -0.00541005  1
  V  V44  1  0.74848993  0.12623726  0.87292526  1
  V  V45  1  0.64186948  0.87789905  0.24955372  1
  V  V46  1  0.12862856  0.50364422  0.62605957  1
  V  V47  1  0.61877258  -0.00112943  0.62536561  1
  V  V48  1  0.86533857  0.13983434  0.26937551  1
  V  V49  1  0.13083683  0.13094125  0.48618440  1
  V  V50  1  0.75701327  0.62326598  0.86523677  1
  V  V51  1  -0.00089770  0.62114580  0.63419683  1
  V  V52  1  0.38860211  0.37909680  0.49678968  1
  V  V53  1  0.38957166  0.49289094  0.37423302  1
  V  V54  1  0.76156083  0.60977245  0.37554649  1
  V  V55  1  0.75438732  0.25368935  0.00577167  1
  V  V56  1  0.62243945  0.12830560  0.00545274  1
  V  V57  1  0.38340618  0.75197459  0.12570976  1
  V  V58  1  0.37027458  0.01372209  0.37352931  1
  V  V59  1  0.62730054  0.74500620  0.37792825  1
  V  V60  1  -0.00080406  0.50437163  0.00074946  1
  V  V61  1  0.60454002  0.86642350  0.74948913  1
  V  V62  1  0.00307883  0.12471933  0.61993372  1
  V  V63  1  0.49346482  0.62349630  0.62636229  1
  V  V64  1  0.49617205  0.00733784  0.00922168  1
  V  V65  1  0.23375610  0.62817031  0.37950672  1
  V  V66  1  0.24626134  0.12717632  0.88027993  1
  V  V67  1  0.12590654  0.86148057  0.25845610  1
  V  V68  1  0.38085799  0.62268521  0.25243509  1
  V  V69  1  0.76060393  0.48694830  0.74853789  1
  V  V70  1  0.74255187  -0.00023666  0.75193396  1
  V  V71  1  0.86807898  0.38107897  0.50030401  1
  V  V72  1  0.87940856  0.87605375  0.50193630  1
  V  V73  1  -0.01609817  0.63237287  0.12378757  1
  V  V74  1  0.37990638  -0.00146476  0.87780095  1
  V  V75  1  0.50265619  0.25353607  0.74975958  1
  V  V76  1  0.75880493  0.49833227  0.23771035  1
  V  V77  1  0.51194052  0.61066330  0.11990737  1
  V  V78  1  0.37042964  0.12357018  0.75097305  1
  Zn  Zn79  1  0.46295130  0.73806610  0.74382444  1
  Zn  Zn80  1  -0.03800564  0.84641401  0.91404556  1
  Zn  Zn81  1  0.23184531  -0.01846835  0.76792316  1
  Zn  Zn82  1  0.12484323  0.24827132  0.87349692  1
  Zn  Zn83  1  0.05655990  0.32802605  0.21152895  1
  Zn  Zn84  1  0.25382682  0.85491262  0.62907840  1
  Zn  Zn85  1  -0.01386454  0.15521659  0.12853496  1
  Zn  Zn86  1  0.50203106  0.13153018  0.15035262  1
  Zn  Zn87  1  -0.01253585  0.38197994  0.36509856  1
  Zn  Zn88  1  0.74319769  0.38202364  0.12136480  1
  Zn  Zn89  1  0.80420260  0.82225476  0.05789202  1
  Zn  Zn90  1  0.00490922  0.86420422  0.38133262  1
  Zn  Zn91  1  0.62789111  0.25157786  0.37505068  1
  Zn  Zn92  1  0.83502331  -0.04163518  0.92240463  1
  Zn  Zn93  1  0.49531797  0.87267764  0.37447107  1
  Zn  Zn94  1  0.19318952  0.19449973  0.18915549  1
  Zn  Zn95  1  0.18952534  0.18702220  0.68399455  1
  Zn  Zn96  1  0.19176539  0.68312275  0.18820283  1
  Zn  Zn97  1  0.19607978  0.68006853  0.69105544  1
  Zn  Zn98  1  0.69258677  0.18817438  0.19535700  1
  Zn  Zn99  1  0.68356184  0.18893092  0.68463882  1
  Zn  Zn100  1  0.71602418  0.68363307  0.18459749  1
  Zn  Zn101  1  0.68253424  0.68280444  0.68990230  1
  Zn  Zn102  1  0.31080586  0.31162796  0.31387227  1
  Zn  Zn103  1  0.31688120  0.31413841  0.81211330  1
  Zn  Zn104  1  0.31195158  0.81267198  0.31967212  1
  Zn  Zn105  1  0.31462391  0.81127968  0.81128589  1
  Zn  Zn106  1  0.80394786  0.30754137  0.31618260  1
  Zn  Zn107  1  0.81626675  0.30967161  0.81314779  1
  Zn  Zn108  1  0.81612658  0.80864855  0.31810941  1
  Zn  Zn109  1  0.78754038  0.82085457  0.85176155  1
  Zn  Zn110  1  0.19755666  0.44572643  0.43963188  1
  Zn  Zn111  1  0.18606467  0.43563025  0.93389911  1
  Zn  Zn112  1  0.18823282  0.93982157  0.43867827  1
  Zn  Zn113  1  0.18818415  0.93992838  0.94721455  1
  Zn  Zn114  1  0.70037082  0.40740278  0.42114012  1
  Zn  Zn115  1  0.69064957  0.43464226  0.92657390  1
  Zn  Zn116  1  0.67306867  0.91546959  0.45496143  1
  Zn  Zn117  1  0.66695339  0.93370174  0.93840188  1
  Zn  Zn118  1  0.31005943  0.06595242  0.06865809  1
  Zn  Zn119  1  0.31531303  0.06973569  0.55251161  1
  Zn  Zn120  1  0.32095805  0.56558588  0.06381077  1
  Zn  Zn121  1  0.30736972  0.56229233  0.55783530  1
  Zn  Zn122  1  0.81320829  0.07873186  0.06447669  1
  Zn  Zn123  1  0.81292313  0.05929216  0.56471267  1
  Zn  Zn124  1  0.81293903  0.56312529  0.05052106  1
  Zn  Zn125  1  0.81139988  0.55665085  0.56769471  1
  Zn  Zn126  1  0.43226446  0.43275164  0.18320498  1
  Zn  Zn127  1  0.44683492  0.43880975  0.68117697  1
  Zn  Zn128  1  0.44011134  0.93856991  0.19126921  1
  Zn  Zn129  1  0.41196191  0.92612449  0.69246432  1
  Zn  Zn130  1  0.93068330  0.44790732  0.18459050  1
  Zn  Zn131  1  0.93729894  0.43721659  0.68368719  1
  Zn  Zn132  1  0.90121241  0.98172933  0.16978360  1
  Zn  Zn133  1  0.91313779  0.91110804  0.72950586  1
  Zn  Zn134  1  0.03808209  0.04720617  0.29364577  1
  Zn  Zn135  1  0.06270035  0.06619889  0.80736015  1
  Zn  Zn136  1  0.05465135  0.54351552  0.29641397  1
  Zn  Zn137  1  0.07270690  0.56906748  0.81400861  1
  Zn  Zn138  1  0.57603000  0.05261246  0.32905336  1
  Zn  Zn139  1  0.55820670  0.06359806  0.81405602  1
  Zn  Zn140  1  0.57454977  0.55416733  0.31003298  1
  Zn  Zn141  1  0.56733507  0.56024903  0.80265084  1
  Zn  Zn142  1  0.45749633  0.19209849  0.43172084  1
  Zn  Zn143  1  0.43418677  0.19088024  0.94159218  1
  Zn  Zn144  1  0.43940508  0.67794230  0.43834939  1
  Zn  Zn145  1  0.44201469  0.68565416  0.94035019  1
  Zn  Zn146  1  0.94203873  0.19557150  0.43138862  1
  Zn  Zn147  1  0.93974519  0.18515889  0.93881048  1
  Zn  Zn148  1  0.94303889  0.68363544  0.44610783  1
  Zn  Zn149  1  0.93638930  0.68670229  0.93836184  1
  Zn  Zn150  1  0.06549826  0.31359522  0.04678632  1
  Zn  Zn151  1  0.06228162  0.31688293  0.56001083  1
  Zn  Zn152  1  -0.03342445  0.83225693  0.08250442  1
  Zn  Zn153  1  0.06480145  0.81549915  0.57594639  1
  Zn  Zn154  1  0.56392580  0.31833855  0.06641474  1
  Zn  Zn155  1  0.56478252  0.30632468  0.54698708  1
  Zn  Zn156  1  0.61453627  0.78439473  0.08363734  1
  Zn  Zn157  1  0.55486721  0.80759760  0.56435002  1
  O  O158  1  0.12870513  0.11503050  0.13453188  1
  O  O159  1  0.11890423  0.12622996  0.61368333  1
  O  O160  1  0.12687300  0.62922142  0.10976810  1
  O  O161  1  0.11727335  0.60987600  0.63279348  1
  O  O162  1  0.62174708  0.11902634  0.12401230  1
  O  O163  1  0.61085516  0.11221673  0.63366967  1
  O  O164  1  0.61888216  0.62407901  0.10835591  1
  O  O165  1  0.62277873  0.61715638  0.61052587  1
  O  O166  1  0.37608638  0.38353664  0.38062194  1
  O  O167  1  0.38613420  0.37138175  0.88578203  1
  O  O168  1  0.37721849  0.88278863  0.38471494  1
  O  O169  1  0.36785648  0.88766623  0.88835947  1
  O  O170  1  0.87589633  0.37158484  0.39661187  1
  O  O171  1  0.88941458  0.37156054  0.88023382  1
  O  O172  1  0.87925484  0.86545639  0.39749790  1
  O  O173  1  0.88186117  0.88713005  0.84192974  1
  O  O174  1  0.26239532  0.00015462  0.37066236  1
  O  O175  1  0.25971091  0.00921368  0.87937167  1
  O  O176  1  0.26076822  0.50489416  0.35762781  1
  O  O177  1  0.24898657  0.50939796  0.86713575  1
  O  O178  1  0.71668178  0.07741281  0.42694606  1
  O  O179  1  0.73912248  0.01082159  0.86855088  1
  O  O180  1  0.74974084  0.50809288  0.37488056  1
  O  O181  1  0.74371737  0.51002707  0.85968107  1
  O  O182  1  0.26700314  0.49291468  0.13446307  1
  O  O183  1  0.24398770  0.50791657  0.64116215  1
  O  O184  1  0.24596740  0.99378594  0.13362862  1
  O  O185  1  0.23944337  1.01463869  0.62093520  1
  O  O186  1  0.75394656  0.50795994  0.13311109  1
  O  O187  1  0.73650219  0.50203510  0.63714319  1
  O  O188  1  0.73454650  1.00177230  0.11386039  1
  O  O189  1  0.73586327  0.99435448  0.63081501  1
  O  O190  1  0.01138362  0.41906995  0.25925483  1
  O  O191  1  0.00579560  0.36965109  0.75298463  1
  O  O192  1  0.01640101  0.85497876  0.25273294  1
  O  O193  1  0.01357827  0.85652153  0.73557507  1
  O  O194  1  0.50834754  0.37406910  0.24135483  1
  O  O195  1  0.48958430  0.36228528  0.76241436  1
  O  O196  1  0.50532712  0.86114242  0.25359328  1
  O  O197  1  0.50224526  0.86643742  0.73872973  1
  O  O198  1  0.51084511  0.13275607  0.27217753  1
  O  O199  1  0.48999518  0.13394382  0.74467781  1
  O  O200  1  0.50145094  0.62943284  0.24203144  1
  O  O201  1  0.50222627  0.62014728  0.73129955  1
  O  O202  1  0.98953191  0.13889496  0.24870664  1
  O  O203  1  0.99173719  0.13197248  0.74068779  1
  O  O204  1  1.00304726  0.63006143  0.23431465  1
  O  O205  1  1.00498447  0.63211380  0.74146025  1
  O  O206  1  0.36653688  0.25919430  0.00690875  1
  O  O207  1  0.37457812  0.26070966  0.50087994  1
  O  O208  1  0.37171894  0.75746072  0.00419067  1
  O  O209  1  0.37754698  0.75839671  0.48785617  1
  O  O210  1  0.86532340  0.26000969  -0.01037720  1
  O  O211  1  0.88254484  0.26114474  0.51279389  1
  O  O212  1  0.90000301  0.77858193  -0.00632197  1
  O  O213  1  0.87303061  0.75551216  0.51502711  1
  O  O214  1  0.13370839  0.25107100  0.49432336  1
  O  O215  1  0.14618749  0.25922008  0.98974671  1
  O  O216  1  0.15498982  0.74501654  0.54303789  1
  O  O217  1  0.14523285  0.74186179  0.99294119  1
  O  O218  1  0.55867748  0.23656548  0.46281898  1
  O  O219  1  0.63092584  0.24733785  0.99139689  1
  O  O220  1  0.63257555  0.75111165  0.49077353  1
  O  O221  1  0.60756310  0.74400712  0.97804208  1
  O  O222  1  0.48623372  0.24867901  0.11954031  1
  O  O223  1  0.49368370  0.24187096  0.63142660  1
  O  O224  1  0.50598176  0.74091805  0.13496719  1
  O  O225  1  0.50246237  0.72904884  0.62474034  1
  O  O226  1  1.01345914  0.26447522  0.13020761  1
  O  O227  1  0.99971401  0.24191031  0.63286629  1
  O  O228  1  1.00583505  0.73807127  0.13847251  1
  O  O229  1  0.99595352  0.73867830  0.63081294  1
  O  O230  1  0.01969750  0.26493555  0.38058908  1
  O  O231  1  0.00125851  0.25353211  0.85890112  1
  O  O232  1  0.00164924  0.74077954  0.36277668  1
  O  O233  1  0.01434379  0.74926833  0.86672181  1
  O  O234  1  0.50426116  0.20169181  0.31586473  1
  O  O235  1  0.50506925  0.25138513  0.86778943  1
  O  O236  1  0.51360761  0.74163433  0.36580144  1
  O  O237  1  0.50426920  0.73587977  0.85811791  1
  O  O238  1  0.24280070  0.14376104  0.50184471  1
  O  O239  1  0.25921494  0.13580856  0.99101161  1
  O  O240  1  0.24362440  0.60991695  0.47908207  1
  O  O241  1  0.25060305  0.62783275  0.99416677  1
  O  O242  1  0.74002104  0.12033472  0.49013372  1
  O  O243  1  0.74359130  0.13492204  0.99243721  1
  O  O244  1  0.74043548  0.62444986  0.49402712  1
  O  O245  1  0.73228225  0.61383917  0.98326600  1
  O  O246  1  0.26282850  0.37298976  0.00056607  1
  O  O247  1  0.26121676  0.36535635  0.49979516  1
  O  O248  1  0.26066889  0.86781794  0.01074032  1
  O  O249  1  0.25925770  0.87256573  0.49819569  1
  O  O250  1  0.75882012  0.37106784  -0.00514875  1
  O  O251  1  0.77091880  0.39722695  0.51381540  1
  O  O252  1  0.76094194  0.87457976  -0.03914900  1
  O  O253  1  0.75838084  0.86756499  0.51098849  1
  O  O254  1  0.14774311  0.50528976  0.23826705  1
  O  O255  1  0.13254039  0.49239853  0.74512035  1
  O  O256  1  0.13048558  0.98887983  0.24200602  1
  O  O257  1  0.12715790  1.01177302  0.73166285  1
  O  O258  1  0.63979753  0.48703893  0.24920145  1
  O  O259  1  0.63068309  0.48866272  0.73667165  1
  O  O260  1  0.62305472  0.98508577  0.24842033  1
  O  O261  1  0.61990770  0.99030074  0.74407782  1
  O  O262  1  0.36993085  -0.00428329  0.26576857  1
  O  O263  1  0.38443902  0.01375608  0.76324531  1
  O  O264  1  0.37595031  0.50495317  0.25847139  1
  O  O265  1  0.36344783  0.48941085  0.74467754  1
  O  O266  1  0.91998533  0.02659724  0.27200474  1
  O  O267  1  0.86310729  0.01557565  0.73611471  1
  O  O268  1  0.85882506  0.50859507  0.25145389  1
  O  O269  1  0.86017325  0.49971570  0.73862924  1
  O  O270  1  0.12962053  0.37189379  0.37872356  1
  O  O271  1  0.11361938  0.37279105  0.86304419  1
  O  O272  1  0.12849206  0.87609079  0.36166519  1
  O  O273  1  0.14336992  0.85944723  0.87850453  1
  O  O274  1  0.60948754  0.38404111  0.35768216  1
  O  O275  1  0.60930178  0.36254526  0.88129193  1
  O  O276  1  0.62203514  0.86592565  0.36681451  1
  O  O277  1  0.61581897  0.85823354  0.86468215  1
  O  O278  1  0.37712037  0.13923095  0.12592728  1
  O  O279  1  0.38141957  0.13224553  0.63271756  1
  O  O280  1  0.39091594  0.63137170  0.13187136  1
  O  O281  1  0.39612455  0.60878401  0.60840993  1
  O  O282  1  0.88290087  0.10290928  0.14624430  1
  O  O283  1  0.88217216  0.13615608  0.62671726  1
  O  O284  1  0.88523256  0.63448298  0.11164870  1
  O  O285  1  0.88350926  0.63207663  0.62239445  1
  O  O286  1  0.25979123  0.25890959  0.11659740  1
  O  O287  1  0.26602750  0.24826352  0.61875037  1
  O  O288  1  0.26124836  0.75474590  0.11908952  1
  O  O289  1  0.21710002  0.74563585  0.59697366  1
  O  O290  1  0.74633601  0.25128598  0.10676096  1
  O  O291  1  0.76088042  0.24348025  0.62157643  1
  O  O292  1  0.72484845  0.75627003  0.10568289  1
  O  O293  1  0.75628468  0.74903178  0.62480484  1
  O  O294  1  0.23944756  0.25490974  0.38361621  1
  O  O295  1  0.25640140  0.24300311  0.88016973  1
  O  O296  1  0.25330177  0.72680143  0.36336219  1
  O  O297  1  0.25153406  0.73697107  0.88307857  1
  O  O298  1  0.73118330  0.29455640  0.40007137  1
  O  O299  1  0.73916482  0.24662656  0.87849539  1
  O  O300  1  0.74228616  0.73815937  0.38098962  1
  O  O301  1  0.72431322  0.72846268  0.86605303  1
  O  O302  1  0.00343501  0.12198654  0.01084135  1
  O  O303  1  0.00663236  0.12185414  0.50446589  1
  O  O304  1  0.00886033  0.62378186  0.00663504  1
  O  O305  1  -0.00008222  0.61079186  0.51662632  1
  O  O306  1  0.50400334  0.11861916  0.00327212  1
  O  O307  1  0.48533085  0.10584588  0.51635193  1
  O  O308  1  0.50702417  0.62250967  0.01216902  1
  O  O309  1  0.51801685  0.62127754  0.50315622  1
  O  O310  1  0.48618799  0.38265271  0.49675075  1
  O  O311  1  0.49004779  0.37066992  0.98845885  1
  O  O312  1  0.49022867  0.88043025  0.49879722  1
  O  O313  1  0.48644943  0.89087824  1.01031939  1
  O  O314  1  0.99443863  0.38925607  0.50231637  1
  O  O315  1  0.99653538  0.38539051  0.98812341  1
  O  O316  1  0.99700961  0.87938506  0.50596886  1
  O  O317  1  1.00994127  0.90443117  1.00061018  1
  O  O318  1  0.48747309  0.50534866  0.37172021  1
  O  O319  1  0.50469063  0.48301369  0.86528917  1
  O  O320  1  0.49151965  0.99697248  0.38745463  1
  O  O321  1  0.48868464  1.00772502  0.89097249  1
  O  O322  1  1.00492806  0.50763322  0.39558481  1
  O  O323  1  1.00477410  0.49574471  0.87779967  1
  O  O324  1  1.01429913  0.99136476  0.39468309  1
  O  O325  1  1.01021078  1.01278094  0.88997912  1
  O  O326  1  0.01898866  0.00192633  0.12147600  1
  O  O327  1  0.01483948  0.01563465  0.61537861  1
  O  O328  1  -0.00338946  0.51972882  0.11264771  1
  O  O329  1  0.00972405  0.50513015  0.62511917  1
  O  O330  1  0.50396606  0.00986548  0.12392649  1
  O  O331  1  0.50043667  0.00275312  0.62405396  1
  O  O332  1  0.49863973  0.51343244  0.13029881  1
  O  O333  1  0.52053655  0.50592311  0.62489221  1
  O  O334  1  0.25987461  0.38804716  0.23901501  1
  O  O335  1  0.24258879  0.38728143  0.76094232  1
  O  O336  1  0.24557792  0.88023486  0.24646065  1
  O  O337  1  0.28434820  0.89027404  0.73382452  1
  O  O338  1  0.75537959  0.39098438  0.24441555  1
  O  O339  1  0.75121005  0.38638987  0.76024816  1
  O  O340  1  0.74043804  0.87317085  0.25951274  1
  O  O341  1  0.73393394  0.88110415  0.74889217  1
  O  O342  1  0.24843156  0.11073199  0.24856571  1
  O  O343  1  0.26242962  0.12737279  0.75699067  1
  O  O344  1  0.26723705  0.61359236  0.24614106  1
  O  O345  1  0.25106655  0.61018094  0.76414090  1
  O  O346  1  0.76578241  0.12013652  0.24916967  1
  O  O347  1  0.75294025  0.12141393  0.75232046  1
  O  O348  1  0.74014481  0.61420718  0.26685657  1
  O  O349  1  0.74131369  0.61234953  0.75949155  1
  O  O350  1  0.37986653  0.11181838  0.38591004  1
  O  O351  1  0.36866786  0.11960099  0.86995602  1
  O  O352  1  0.37278240  0.61180855  0.36660235  1
  O  O353  1  0.36415801  0.62159505  0.88370230  1
  O  O354  1  0.87018892  0.13488355  0.37287732  1
  O  O355  1  0.86666686  0.13341829  0.85867159  1
  O  O356  1  0.85891148  0.62783918  0.38663533  1
  O  O357  1  0.85537005  0.63254102  0.87883163  1
  O  O358  1  0.14386900  0.37500750  0.11898718  1
  O  O359  1  0.12166176  0.38338706  0.63877587  1
  O  O360  1  0.14129759  0.88171757  0.13614501  1
  O  O361  1  0.13609416  0.89686490  0.61852397  1
  O  O362  1  0.62938897  0.37366108  0.13786783  1
  O  O363  1  0.61977495  0.37802912  0.61452273  1
  O  O364  1  0.62105015  0.88377167  0.14339888  1
  O  O365  1  0.62670160  0.87810144  0.63165550  1
  O  O366  1  0.13530625  0.25853350  0.26494010  1
  O  O367  1  0.11871356  0.25766701  0.74683177  1
  O  O368  1  0.13131188  0.75990861  0.24695220  1
  O  O369  1  0.12483792  0.74043508  0.76056235  1
  O  O370  1  0.63977657  0.26820684  0.25738340  1
  O  O371  1  0.61360034  0.24355713  0.75919951  1
  O  O372  1  0.62482940  0.75817893  0.25836587  1
  O  O373  1  0.61956745  0.75553897  0.75492264  1
  O  O374  1  0.36922029  0.25863477  0.23239318  1
  O  O375  1  0.38163266  0.24431944  0.74203761  1
  O  O376  1  0.38779682  0.74072100  0.24761846  1
  O  O377  1  0.35168050  0.73875997  0.73642089  1
  O  O378  1  0.87146438  0.24281555  0.25330844  1
  O  O379  1  0.88101684  0.24270103  0.73708327  1
  O  O380  1  0.88896099  0.75018945  0.25179794  1
  O  O381  1  0.88890356  0.75124170  0.74132969  1
  O  O382  1  0.36641203  0.48756052  0.48492636  1
  O  O383  1  0.37776444  0.48658616  1.00157531  1
  O  O384  1  0.37659977  0.99086226  0.49001770  1
  O  O385  1  0.37810356  0.99739848  0.99863570  1
  O  O386  1  0.89276836  0.49031668  0.51634010  1
  O  O387  1  0.89005314  0.49467142  0.99375022  1
  O  O388  1  0.88741585  0.98727219  0.51454397  1
  O  O389  1  0.89182023  1.01559214  0.99980483  1
  O  O390  1  0.12687786  0.00635328  0.01617772  1
  O  O391  1  0.12334168  0.01248688  0.50702124  1
  O  O392  1  0.11356031  0.50795214  -0.00764127  1
  O  O393  1  0.11643615  0.48919575  0.51452172  1
  O  O394  1  0.61292283  0.00519643  0.01011355  1
  O  O395  1  0.61018298  -0.01183756  0.51529006  1
  O  O396  1  0.61978344  0.50336025  -0.00681249  1
  O  O397  1  0.63319990  0.50263670  0.50731645  1
  O  O398  1  0.37089416  0.36666264  0.10979661  1
  O  O399  1  0.38428728  0.36696276  0.61173628  1
  O  O400  1  0.36805596  0.87191145  0.12221385  1
  O  O401  1  0.37295555  0.87263467  0.60183083  1
  O  O402  1  0.87334339  0.38303905  0.10528454  1
  O  O403  1  0.88030507  0.35801253  0.62206926  1
  O  O404  1  0.87523049  0.88298420  0.12882700  1
  O  O405  1  0.86626263  0.86346573  0.62624345  1
  O  O406  1  0.11836891  0.13895089  0.38639869  1
  O  O407  1  0.14309278  0.12860240  0.86483096  1
  O  O408  1  0.13735881  0.61269271  0.35690191  1
  O  O409  1  0.13802724  0.63413883  0.88747450  1
  O  O410  1  0.65709825  0.11707405  0.38402913  1
  O  O411  1  0.62689000  0.13388831  0.88197265  1
  O  O412  1  0.63227139  0.62657986  0.38816436  1
  O  O413  1  0.61872247  0.62564170  0.88376948  1
