# generated using pymatgen
data_V79Zn79O256
_symmetry_space_group_name_H-M   'P 1'
_cell_length_a   16.93567908
_cell_length_b   16.91179663
_cell_length_c   16.92758577
_cell_angle_alpha   90.10124131
_cell_angle_beta   89.91959284
_cell_angle_gamma   89.95734331
_symmetry_Int_Tables_number   1
_chemical_formula_structural   V79Zn79O256
_chemical_formula_sum   'V79 Zn79 O256'
_cell_volume   4848.26287183
_cell_formula_units_Z   1
loop_
 _symmetry_equiv_pos_site_id
 _symmetry_equiv_pos_as_xyz
  1  'x, y, z'
loop_
 _atom_site_type_symbol
 _atom_site_label
 _atom_site_symmetry_multiplicity
 _atom_site_fract_x
 _atom_site_fract_y
 _atom_site_fract_z
 _atom_site_occupancy
  V  V0  1  0.62996199  0.50263870  0.63598054  1
  V  V1  1  0.86975811  0.38052065  0.49696802  1
  V  V2  1  0.36575768  0.11740373  0.25065460  1
  V  V3  1  0.87669890  0.75307059  0.11950412  1
  V  V4  1  0.37490053  0.00149283  0.87349138  1
  V  V5  1  -0.00529154  0.24641897  0.24955562  1
  V  V6  1  0.62636978  0.37479369  0.75738847  1
  V  V7  1  0.25122784  0.75732561  0.49962606  1
  V  V8  1  0.62289992  0.37218481  0.26189330  1
  V  V9  1  0.10600174  0.86695786  0.75005508  1
  V  V10  1  0.13304501  0.87291949  0.25214597  1
  V  V11  1  0.75073195  0.88163890  0.61232112  1
  V  V12  1  0.37541061  0.62778400  0.74920905  1
  V  V13  1  0.88767836  -0.00706650  0.88567943  1
  V  V14  1  0.37167881  0.24509383  0.12542154  1
  V  V15  1  -0.00123768  0.87274826  0.37351025  1
  V  V16  1  0.36060971  0.25256077  0.62378486  1
  V  V17  1  0.75265450  0.62835640  0.37935180  1
  V  V18  1  0.37488445  0.75492128  0.62381175  1
  V  V19  1  0.86232846  0.50545089  0.87158707  1
  V  V20  1  0.00675188  0.63629426  0.63717460  1
  V  V21  1  0.24651896  0.12256613  0.87314651  1
  V  V22  1  0.00596498  0.51365826  0.00083755  1
  V  V23  1  0.12516071  -0.00000597  0.13065952  1
  V  V24  1  0.61113678  0.75017836  0.36768836  1
  V  V25  1  0.50169536  0.25027993  0.74781264  1
  V  V26  1  0.92466491  0.54359249  0.32958754  1
  V  V27  1  0.37300435  0.37080133  -0.00083983  1
  V  V28  1  -0.00452407  0.50641982  0.51147070  1
  V  V29  1  0.74600970  0.25557475  -0.00387078  1
  V  V30  1  0.50542053  0.48878053  0.49960089  1
  V  V31  1  0.87950681  0.25034746  0.63309680  1
  V  V32  1  0.50068285  0.25010661  0.25900786  1
  V  V33  1  0.25293208  0.49839199  0.25162513  1
  V  V34  1  0.50829540  0.00144333  0.49199226  1
  V  V35  1  0.00810004  0.12825257  0.62617928  1
  V  V36  1  0.75277727  0.37922480  0.63482115  1
  V  V37  1  0.11738606  0.75095441  0.88351984  1
  V  V38  1  0.25479222  0.86466803  0.11470068  1
  V  V39  1  0.50515494  0.86882162  0.86677326  1
  V  V40  1  0.75490560  -0.00456919  0.24380940  1
  V  V41  1  0.11340664  0.11507781  -0.00155654  1
  V  V42  1  0.12132289  0.36958593  0.24587411  1
  V  V43  1  0.37012327  -0.00425000  0.36487428  1
  V  V44  1  0.75025311  0.50246307  0.25733869  1
  V  V45  1  0.49994129  0.37061479  0.87745898  1
  V  V46  1  0.85935179  0.63306122  0.75650753  1
  V  V47  1  0.12454118  0.74735924  0.37603211  1
  V  V48  1  0.62302901  0.13485269  -0.00906817  1
  V  V49  1  0.75035254  0.12924681  0.37134199  1
  V  V50  1  0.87397797  -0.00350424  0.37757225  1
  V  V51  1  0.24674836  0.37301419  0.12295687  1
  V  V52  1  0.38529396  0.86867405  0.48696122  1
  V  V53  1  -0.00094801  -0.00037414  0.49907486  1
  V  V54  1  0.24594212  0.24798261  -0.00139186  1
  V  V55  1  0.75235539  0.12757111  0.87259078  1
  V  V56  1  0.25174337  -0.01309907  0.74673073  1
  V  V57  1  0.50201307  0.63207539  0.63145269  1
  V  V58  1  0.49894845  -0.00012241  -0.00402582  1
  V  V59  1  0.11595477  0.24902708  0.86944842  1
  V  V60  1  0.38593001  0.63562013  0.24511170  1
  V  V61  1  0.49738775  0.50389243  0.01038769  1
  V  V62  1  0.02428512  0.35439552  0.39997244  1
  V  V63  1  0.62955347  -0.00801386  0.12058760  1
  V  V64  1  0.87413436  0.24419407  0.12799222  1
  V  V65  1  0.25031449  0.63376492  0.88685280  1
  V  V66  1  0.00070544  0.37683577  0.87289726  1
  V  V67  1  0.12407955  0.51669744  0.12008751  1
  V  V68  1  0.62863233  0.64077523  0.00154010  1
  V  V69  1  0.50194012  0.12461918  0.12560442  1
  V  V70  1  0.13221681  -0.00504678  0.62100637  1
  V  V71  1  0.36188759  0.37171829  0.50163697  1
  V  V72  1  0.63003650  0.63338217  0.50349239  1
  V  V73  1  0.13042164  0.37643611  0.74901643  1
  V  V74  1  0.74879705  0.37835234  0.12763660  1
  V  V75  1  0.12903222  0.50049132  0.62655790  1
  V  V76  1  0.25047543  0.62149670  0.38255406  1
  V  V77  1  0.86704215  0.75468695  0.61666148  1
  V  V78  1  0.63034943  0.87089283  0.74714215  1
  Zn  Zn79  1  0.36940773  0.86807893  -0.00395283  1
  Zn  Zn80  1  0.87540141  0.38029881  0.00014602  1
  Zn  Zn81  1  0.61460740  0.87135981  0.25368365  1
  Zn  Zn82  1  0.74868484  0.24806986  0.50515946  1
  Zn  Zn83  1  0.38557030  0.49221600  0.37330610  1
  Zn  Zn84  1  0.61654590  0.24808561  0.38476624  1
  Zn  Zn85  1  0.50926643  0.11899426  0.62936547  1
  Zn  Zn86  1  0.74824821  0.00707823  0.74518156  1
  Zn  Zn87  1  0.37150003  0.49954141  0.87260286  1
  Zn  Zn88  1  0.63190579  0.12333846  0.51156933  1
  Zn  Zn89  1  0.61830317  0.50748353  0.13313557  1
  Zn  Zn90  1  0.88235300  0.12674994  0.75470569  1
  Zn  Zn91  1  0.25199367  0.50092754  0.74825489  1
  Zn  Zn92  1  -0.01152368  0.11072262  0.12669038  1
  Zn  Zn93  1  0.37527243  0.12612872  0.74532529  1
  Zn  Zn94  1  0.18238367  0.18529449  0.18849653  1
  Zn  Zn95  1  0.18497722  0.18391334  0.68854204  1
  Zn  Zn96  1  0.19787578  0.68949828  0.19392161  1
  Zn  Zn97  1  0.19355976  0.69105349  0.68955084  1
  Zn  Zn98  1  0.68776036  0.18511814  0.18852775  1
  Zn  Zn99  1  0.68523959  0.19127054  0.68596132  1
  Zn  Zn100  1  0.68261900  0.68043326  0.18641316  1
  Zn  Zn101  1  0.68648689  0.69535803  0.69356420  1
  Zn  Zn102  1  0.31818338  0.31499819  0.31130765  1
  Zn  Zn103  1  0.31095798  0.31146014  0.81186353  1
  Zn  Zn104  1  0.31307487  0.81367544  0.30996127  1
  Zn  Zn105  1  0.31618932  0.80876202  0.81288800  1
  Zn  Zn106  1  0.81569944  0.31479904  0.31255197  1
  Zn  Zn107  1  0.81552084  0.31445601  0.81307234  1
  Zn  Zn108  1  0.80635687  0.81644255  0.31294646  1
  Zn  Zn109  1  0.82518268  0.82471827  0.80168182  1
  Zn  Zn110  1  0.18078509  0.42715978  0.44545315  1
  Zn  Zn111  1  0.18900887  0.44308325  0.93438279  1
  Zn  Zn112  1  0.17072730  0.97536908  0.41307454  1
  Zn  Zn113  1  0.18196797  0.93247043  0.93646073  1
  Zn  Zn114  1  0.69060848  0.44079508  0.44277922  1
  Zn  Zn115  1  0.68053917  0.44255634  0.94146089  1
  Zn  Zn116  1  0.68695669  0.93421938  0.43261297  1
  Zn  Zn117  1  0.68235372  0.94686428  0.92800447  1
  Zn  Zn118  1  0.30702505  0.05659090  0.06408139  1
  Zn  Zn119  1  0.34592498  0.03818276  0.58110315  1
  Zn  Zn120  1  0.31545268  0.56241691  0.06432203  1
  Zn  Zn121  1  0.31661633  0.56281694  0.56246840  1
  Zn  Zn122  1  0.81052633  0.06426683  0.05678735  1
  Zn  Zn123  1  0.81785055  0.06355269  0.55947963  1
  Zn  Zn124  1  0.80189389  0.56219322  0.05266896  1
  Zn  Zn125  1  0.81292706  0.56695139  0.56874267  1
  Zn  Zn126  1  0.43557287  0.43091378  0.18945972  1
  Zn  Zn127  1  0.43796966  0.43816325  0.68483632  1
  Zn  Zn128  1  0.44191109  0.92530520  0.18719177  1
  Zn  Zn129  1  0.44173452  0.93367251  0.68459439  1
  Zn  Zn130  1  0.94242595  0.43056622  0.18171808  1
  Zn  Zn131  1  0.93843561  0.44224655  0.69339995  1
  Zn  Zn132  1  0.94518619  0.93790719  0.19280812  1
  Zn  Zn133  1  0.93164589  0.94574634  0.69252913  1
  Zn  Zn134  1  0.06484745  0.07105534  0.31262640  1
  Zn  Zn135  1  0.06227823  0.05694739  0.80729448  1
  Zn  Zn136  1  0.08911602  0.54160204  0.32941935  1
  Zn  Zn137  1  0.06331246  0.56685358  0.81327789  1
  Zn  Zn138  1  0.56555126  0.06075166  0.31267955  1
  Zn  Zn139  1  0.56746053  0.06137087  0.80441147  1
  Zn  Zn140  1  0.56583025  0.56315471  0.31579156  1
  Zn  Zn141  1  0.56237093  0.56035471  0.81987012  1
  Zn  Zn142  1  0.43005567  0.18010469  0.44104306  1
  Zn  Zn143  1  0.43548128  0.18775396  0.93432923  1
  Zn  Zn144  1  0.43785258  0.67566049  0.43586624  1
  Zn  Zn145  1  0.46718482  0.67210332  0.92103678  1
  Zn  Zn146  1  0.93178515  0.18382992  0.44290748  1
  Zn  Zn147  1  0.93347117  0.18895550  0.94237433  1
  Zn  Zn148  1  0.94217140  0.69213888  0.44597517  1
  Zn  Zn149  1  0.93925294  0.69031061  0.93286804  1
  Zn  Zn150  1  0.05907362  0.31377780  0.05866341  1
  Zn  Zn151  1  0.06413296  0.31583911  0.56736535  1
  Zn  Zn152  1  0.06717797  0.81564210  0.06025186  1
  Zn  Zn153  1  0.06467590  0.81639176  0.55999597  1
  Zn  Zn154  1  0.56182826  0.31628282  0.07028355  1
  Zn  Zn155  1  0.56630137  0.30745620  0.56828301  1
  Zn  Zn156  1  0.55092228  0.81267033  0.08429314  1
  Zn  Zn157  1  0.56563530  0.81517274  0.56213210  1
  O  O158  1  0.12671722  0.11126775  0.11766000  1
  O  O159  1  0.11591155  0.11466547  0.62612952  1
  O  O160  1  0.13303295  0.61513518  0.13114886  1
  O  O161  1  0.11087454  0.62275364  0.63506810  1
  O  O162  1  0.61629343  0.12133521  0.11507879  1
  O  O163  1  0.62362547  0.12160232  0.62560679  1
  O  O164  1  0.62543356  0.61937344  0.11216466  1
  O  O165  1  0.62278198  0.62273085  0.62372840  1
  O  O166  1  0.37288315  0.37395370  0.39393313  1
  O  O167  1  0.38065670  0.37453425  0.88122729  1
  O  O168  1  0.38489272  0.87979031  0.37540998  1
  O  O169  1  0.38305012  0.88715725  0.87484939  1
  O  O170  1  0.87240831  0.37308966  0.39460120  1
  O  O171  1  0.88263069  0.38998137  0.87267809  1
  O  O172  1  0.88474748  0.88249337  0.36561492  1
  O  O173  1  0.87900680  0.89290312  0.87020677  1
  O  O174  1  0.27239529  -0.01467204  0.36346765  1
  O  O175  1  0.25591096  0.00406999  0.86909934  1
  O  O176  1  0.24143771  0.50556295  0.36757426  1
  O  O177  1  0.25226129  0.51624628  0.87158768  1
  O  O178  1  0.75501668  0.00351254  0.36614250  1
  O  O179  1  0.75787450  0.01619590  0.87811533  1
  O  O180  1  0.74891330  0.50916330  0.36869130  1
  O  O181  1  0.76432913  0.49670991  0.88266634  1
  O  O182  1  0.24292390  0.49210105  0.13037548  1
  O  O183  1  0.23217551  0.51289751  0.62283871  1
  O  O184  1  0.23273004  0.98812416  0.11866411  1
  O  O185  1  0.24555700  1.00934432  0.63478592  1
  O  O186  1  0.75294828  0.49230448  0.13527928  1
  O  O187  1  0.73950404  0.49362511  0.62617748  1
  O  O188  1  0.74479356  1.01466615  0.13836290  1
  O  O189  1  0.76398460  0.98480883  0.62631973  1
  O  O190  1  0.00615231  0.36540504  0.25602731  1
  O  O191  1  0.01081600  0.38353045  0.76526590  1
  O  O192  1  0.01436350  0.87744058  0.26347976  1
  O  O193  1  0.00767868  0.87601001  0.74976539  1
  O  O194  1  0.50965719  0.36217893  0.24652007  1
  O  O195  1  0.50518799  0.37139277  0.75797989  1
  O  O196  1  0.52413638  0.85112561  0.18900709  1
  O  O197  1  0.51032498  0.88294126  0.75880120  1
  O  O198  1  0.49644193  0.12975796  0.23942331  1
  O  O199  1  0.49709638  0.13745163  0.75383365  1
  O  O200  1  0.48413995  0.60946143  0.25431091  1
  O  O201  1  0.49231823  0.61883043  0.73975330  1
  O  O202  1  1.00709109  0.14070395  0.24444536  1
  O  O203  1  1.00100366  0.12025730  0.73032947  1
  O  O204  1  0.99198665  0.59180051  0.27628039  1
  O  O205  1  0.98945239  0.62419215  0.73944552  1
  O  O206  1  0.36630582  0.25031681  0.00525124  1
  O  O207  1  0.38018337  0.26054677  0.51097882  1
  O  O208  1  0.40250131  0.74949050  0.01296286  1
  O  O209  1  0.37545287  0.75159124  0.50184284  1
  O  O210  1  0.86316368  0.25764370  0.00953136  1
  O  O211  1  0.87219184  0.26104095  0.51443823  1
  O  O212  1  0.87066054  0.74799261  0.01602019  1
  O  O213  1  0.87204961  0.74797510  0.51749471  1
  O  O214  1  0.10364057  0.31750020  0.46068046  1
  O  O215  1  0.12868047  0.24206404  0.99010973  1
  O  O216  1  0.13916019  0.75999845  0.48938882  1
  O  O217  1  0.12578609  0.75770234  0.98325506  1
  O  O218  1  0.63134669  0.24720079  0.49840007  1
  O  O219  1  0.63290588  0.24473128  1.00902686  1
  O  O220  1  0.62251449  0.73844706  0.49179018  1
  O  O221  1  0.60628585  0.73935245  1.01725495  1
  O  O222  1  0.49330231  0.24073192  0.13225771  1
  O  O223  1  0.49312354  0.25105272  0.63847000  1
  O  O224  1  0.44166887  0.74724656  0.07961368  1
  O  O225  1  0.49353261  0.73885034  0.61758303  1
  O  O226  1  0.98871005  0.25569308  0.13202694  1
  O  O227  1  0.99863341  0.23512715  0.61547225  1
  O  O228  1  0.98038405  0.74538215  0.12191090  1
  O  O229  1  0.99164463  0.74060144  0.62018169  1
  O  O230  1  -0.01281142  0.25700547  0.36783502  1
  O  O231  1  0.00786281  0.25972963  0.88124913  1
  O  O232  1  0.01190265  0.75917611  0.38634372  1
  O  O233  1  0.01795637  0.74068170  0.87128521  1
  O  O234  1  0.49712273  0.23786812  0.36191550  1
  O  O235  1  0.49227200  0.26095644  0.86459967  1
  O  O236  1  0.51233961  0.74036087  0.37533172  1
  O  O237  1  0.48776720  0.77241308  0.87313068  1
  O  O238  1  0.24930834  0.19807603  0.42801003  1
  O  O239  1  0.23988769  0.12614672  0.98877407  1
  O  O240  1  0.26241412  0.63360116  0.48780958  1
  O  O241  1  0.26079726  0.62511301  0.98558115  1
  O  O242  1  0.75122932  0.12321173  0.48660144  1
  O  O243  1  0.74052130  0.13714724  0.99402500  1
  O  O244  1  0.73890063  0.61493076  0.49406192  1
  O  O245  1  0.72881708  0.62557371  0.99061306  1
  O  O246  1  0.25237551  0.36844210  0.00269153  1
  O  O247  1  0.26346074  0.38029320  0.50757222  1
  O  O248  1  0.25082501  0.87396927  0.00772147  1
  O  O249  1  0.27169409  0.86062391  0.49251523  1
  O  O250  1  0.74524921  0.37143014  0.01026286  1
  O  O251  1  0.75516851  0.37753864  0.51648054  1
  O  O252  1  0.74336413  0.83710993  -0.04124800  1
  O  O253  1  0.74676971  0.87677474  0.51333056  1
  O  O254  1  0.13678783  0.49307003  0.23511856  1
  O  O255  1  0.12593342  0.49486782  0.74383021  1
  O  O256  1  0.12418529  0.99225028  0.23602473  1
  O  O257  1  0.13240794  0.98681685  0.74420912  1
  O  O258  1  0.63252692  0.49022122  0.25192567  1
  O  O259  1  0.61764470  0.49270738  0.74404812  1
  O  O260  1  0.62998762  0.99602391  0.23778527  1
  O  O261  1  0.63266890  0.98482904  0.75470163  1
  O  O262  1  0.39291603  0.00283882  0.25758625  1
  O  O263  1  0.36930213  0.00297987  0.75679085  1
  O  O264  1  0.36072038  0.48865265  0.25518961  1
  O  O265  1  0.37309830  0.51079683  0.74718573  1
  O  O266  1  0.86150490  -0.00552380  0.25327226  1
  O  O267  1  0.86684663  0.00930297  0.76289417  1
  O  O268  1  0.86948048  0.48929922  0.25827331  1
  O  O269  1  0.87621995  0.51242218  0.76412111  1
  O  O270  1  0.11522322  0.40491264  0.35023649  1
  O  O271  1  0.11945576  0.36775894  0.87139661  1
  O  O272  1  0.12175668  0.87267912  0.36794020  1
  O  O273  1  0.12843610  0.86400539  0.86076303  1
  O  O274  1  0.63511493  0.37009829  0.36536185  1
  O  O275  1  0.61446014  0.38260709  0.86728223  1
  O  O276  1  0.62873710  0.85436921  0.37438237  1
  O  O277  1  0.61115193  0.87843140  0.86862085  1
  O  O278  1  0.38423562  0.12394711  0.12804611  1
  O  O279  1  0.37819595  0.14271903  0.62393693  1
  O  O280  1  0.36490903  0.61745925  0.14768218  1
  O  O281  1  0.38467801  0.63131578  0.62883255  1
  O  O282  1  0.87381060  0.13936997  0.11928775  1
  O  O283  1  0.88500004  0.13403990  0.62561133  1
  O  O284  1  0.86977573  0.64794172  0.12035662  1
  O  O285  1  0.87783770  0.63592134  0.63817252  1
  O  O286  1  0.25158096  0.25223001  0.11832548  1
  O  O287  1  0.26091650  0.24825126  0.62979613  1
  O  O288  1  0.24547137  0.76474432  0.12378550  1
  O  O289  1  0.26297110  0.73982981  0.61006099  1
  O  O290  1  0.75466299  0.25694073  0.12076582  1
  O  O291  1  0.76037240  0.26264412  0.62750932  1
  O  O292  1  0.77168467  0.75629623  0.12548095  1
  O  O293  1  0.76095693  0.75914349  0.62832191  1
  O  O294  1  0.23175700  0.24553818  0.37374745  1
  O  O295  1  0.24054703  0.23994343  0.87806810  1
  O  O296  1  0.24611020  0.74197200  0.38106916  1
  O  O297  1  0.24805360  0.73965673  0.87324008  1
  O  O298  1  0.75490987  0.23472695  0.37275689  1
  O  O299  1  0.75602236  0.24854337  0.88928352  1
  O  O300  1  0.75419872  0.73203261  0.36976995  1
  O  O301  1  0.75662924  0.78417514  0.90756946  1
  O  O302  1  0.01119157  0.13432385  0.00832027  1
  O  O303  1  -0.00402799  0.11093928  0.51023967  1
  O  O304  1  -0.00056843  0.61253398  -0.00364171  1
  O  O305  1  -0.00904530  0.61509515  0.51916342  1
  O  O306  1  0.50421228  0.12281575  0.00440947  1
  O  O307  1  0.50267674  0.11090160  0.49905034  1
  O  O308  1  0.48277865  0.60304418  0.01409727  1
  O  O309  1  0.50985047  0.61420294  0.51174923  1
  O  O310  1  0.50441476  0.38727126  0.50832715  1
  O  O311  1  0.49406960  0.37164063  0.99339519  1
  O  O312  1  0.49287500  0.88487125  0.50397851  1
  O  O313  1  0.49921252  0.89118392  0.98836442  1
  O  O314  1  0.98339871  0.38494521  0.50648987  1
  O  O315  1  0.99706037  0.38353199  0.98739645  1
  O  O316  1  1.00497587  0.88684783  0.48705763  1
  O  O317  1  0.97497104  0.85094835  1.01089898  1
  O  O318  1  0.50446320  0.50288375  0.39642238  1
  O  O319  1  0.49276954  0.48629659  0.88880940  1
  O  O320  1  0.49575217  0.99959647  0.38544629  1
  O  O321  1  0.49147577  1.00104770  0.87897999  1
  O  O322  1  0.99298070  0.48712148  0.39164911  1
  O  O323  1  0.99823970  0.49694169  0.88584325  1
  O  O324  1  0.99058315  0.99398159  0.37819287  1
  O  O325  1  0.98747241  1.01105342  0.87567668  1
  O  O326  1  0.01515204  -0.00330253  0.12562308  1
  O  O327  1  0.00542993  0.00564313  0.61821848  1
  O  O328  1  0.00712392  0.49509009  0.11005979  1
  O  O329  1  0.00565003  0.51222244  0.62695354  1
  O  O330  1  0.50800675  0.00918768  0.11325315  1
  O  O331  1  0.46822257  0.00848212  0.60375700  1
  O  O332  1  0.50198029  0.48018224  0.11264164  1
  O  O333  1  0.51158406  0.50824791  0.61916819  1
  O  O334  1  0.24253216  0.37723789  0.24483143  1
  O  O335  1  0.23553098  0.38067477  0.75897142  1
  O  O336  1  0.23998975  0.87244172  0.23865021  1
  O  O337  1  0.25245772  0.88565142  0.75190567  1
  O  O338  1  0.74434110  0.38164652  0.24641640  1
  O  O339  1  0.74052046  0.37247705  0.74496083  1
  O  O340  1  0.73993237  0.89122246  0.25279148  1
  O  O341  1  0.73984234  0.87663786  0.74549805  1
  O  O342  1  0.26672966  0.12501713  0.23934661  1
  O  O343  1  0.24686263  0.11489767  0.76261821  1
  O  O344  1  0.25848148  0.61440445  0.26165374  1
  O  O345  1  0.26305109  0.62446283  0.75490336  1
  O  O346  1  0.74405194  0.11281373  0.26302626  1
  O  O347  1  0.74768830  0.13389405  0.76560873  1
  O  O348  1  0.74637311  0.60992968  0.25886672  1
  O  O349  1  0.75975473  0.62641315  0.75063454  1
  O  O350  1  0.37756376  0.10767889  0.36533207  1
  O  O351  1  0.36336493  0.11796971  0.87316164  1
  O  O352  1  0.36757899  0.61211770  0.36663065  1
  O  O353  1  0.37142145  0.62766421  0.86447561  1
  O  O354  1  0.86311516  0.11076712  0.37724463  1
  O  O355  1  0.86581620  0.12593471  0.87540284  1
  O  O356  1  0.87293108  0.61768069  0.38280084  1
  O  O357  1  0.87677194  0.61836229  0.86652015  1
  O  O358  1  0.12822777  0.38029211  0.13069318  1
  O  O359  1  0.11663024  0.38604263  0.63910473  1
  O  O360  1  0.13021512  0.87978573  0.13010165  1
  O  O361  1  0.12163888  0.88180064  0.63929936  1
  O  O362  1  0.63667685  0.37558254  0.13857179  1
  O  O363  1  0.63257068  0.38397826  0.63646443  1
  O  O364  1  0.64198767  0.89714891  0.09437407  1
  O  O365  1  0.63894154  0.87054948  0.63349189  1
  O  O366  1  0.11583866  0.26147304  0.24528045  1
  O  O367  1  0.12824083  0.25712418  0.76181863  1
  O  O368  1  0.13133285  0.75751369  0.26581767  1
  O  O369  1  0.12867837  0.76428128  0.75058141  1
  O  O370  1  0.61730215  0.25437677  0.25302277  1
  O  O371  1  0.61439879  0.26574332  0.74688417  1
  O  O372  1  0.63163496  0.74382530  0.26542849  1
  O  O373  1  0.62485509  0.76903349  0.75389825  1
  O  O374  1  0.38131555  0.24034420  0.24585672  1
  O  O375  1  0.37999684  0.25230444  0.73888424  1
  O  O376  1  0.37641119  0.73533171  0.25676605  1
  O  O377  1  0.37173758  0.74098198  0.73583366  1
  O  O378  1  0.88248155  0.25688471  0.23961759  1
  O  O379  1  0.87860834  0.25122464  0.73790141  1
  O  O380  1  0.87686310  0.75490072  0.22489679  1
  O  O381  1  0.87353652  0.73746208  0.74797895  1
  O  O382  1  0.38932720  0.48715105  0.50787984  1
  O  O383  1  0.38186936  0.48618425  1.00225512  1
  O  O384  1  0.37952779  0.98898183  0.48093873  1
  O  O385  1  0.38258181  1.00374727  0.98914477  1
  O  O386  1  0.88232482  0.49239767  0.51441400  1
  O  O387  1  0.88432434  0.50319549  0.98997501  1
  O  O388  1  0.88510481  0.99668173  0.48891132  1
  O  O389  1  0.87131740  1.00419277  0.98688590  1
  O  O390  1  0.12404083  0.00768742  0.00460969  1
  O  O391  1  0.11884362  -0.01362933  0.51752483  1
  O  O392  1  0.11448511  0.49840661  0.00533446  1
  O  O393  1  0.10665893  0.49159845  0.51301056  1
  O  O394  1  0.61721150  0.01575761  0.00016059  1
  O  O395  1  0.60999398  -0.00573832  0.49786587  1
  O  O396  1  0.60735843  0.50639866  0.00260767  1
  O  O397  1  0.61844434  0.50638907  0.51228355  1
  O  O398  1  0.36627696  0.36340303  0.12030531  1
  O  O399  1  0.37964601  0.36350485  0.61604220  1
  O  O400  1  0.35742599  0.88497748  0.11951601  1
  O  O401  1  0.38137077  0.85990943  0.61425009  1
  O  O402  1  0.86214788  0.36836670  0.12341290  1
  O  O403  1  0.86949416  0.37282422  0.62656670  1
  O  O404  1  0.87849615  0.85743510  0.12043535  1
  O  O405  1  0.86624604  0.86219732  0.63577393  1
  O  O406  1  0.13556053  0.08162265  0.39364238  1
  O  O407  1  0.12752829  0.12910399  0.87841714  1
  O  O408  1  0.13731115  0.63423305  0.37443263  1
  O  O409  1  0.14075751  0.63761768  0.86712323  1
  O  O410  1  0.63961570  0.12342918  0.37996926  1
  O  O411  1  0.63154004  0.12517325  0.88534076  1
  O  O412  1  0.63335354  0.63228262  0.38419716  1
  O  O413  1  0.58423124  0.63364129  0.90189214  1
