# generated using pymatgen
data_V79Zn79O256
_symmetry_space_group_name_H-M   'P 1'
_cell_length_a   16.91843489
_cell_length_b   16.87462911
_cell_length_c   16.94398302
_cell_angle_alpha   90.08786090
_cell_angle_beta   89.89000164
_cell_angle_gamma   89.96351640
_symmetry_Int_Tables_number   1
_chemical_formula_structural   V79Zn79O256
_chemical_formula_sum   'V79 Zn79 O256'
_cell_volume   4837.36132757
_cell_formula_units_Z   1
loop_
 _symmetry_equiv_pos_site_id
 _symmetry_equiv_pos_as_xyz
  1  'x, y, z'
loop_
 _atom_site_type_symbol
 _atom_site_label
 _atom_site_symmetry_multiplicity
 _atom_site_fract_x
 _atom_site_fract_y
 _atom_site_fract_z
 _atom_site_occupancy
  V  V0  1  0.24565093  0.36334619  0.62267767  1
  V  V1  1  0.24343643  0.49743184  0.75351388  1
  V  V2  1  0.01049369  0.26636159  0.75046957  1
  V  V3  1  0.62685720  0.24976225  0.36724935  1
  V  V4  1  -0.01124936  0.37199876  0.37363708  1
  V  V5  1  0.62939411  0.37984218  0.75637945  1
  V  V6  1  0.62543360  0.87574806  0.74717660  1
  V  V7  1  0.37307738  0.12940354  0.25275971  1
  V  V8  1  0.87344868  0.12635283  0.75434398  1
  V  V9  1  0.36895771  0.35566244  0.50061776  1
  V  V10  1  0.51050274  0.38318124  0.37547059  1
  V  V11  1  0.61762536  0.00239658  0.61977378  1
  V  V12  1  0.62962519  0.48942042  0.13150373  1
  V  V13  1  0.49756438  0.74557549  0.74816793  1
  V  V14  1  0.38528624  -0.00508445  0.37492245  1
  V  V15  1  0.37819218  0.88590256  0.00240015  1
  V  V16  1  0.12052926  0.74981585  0.37498386  1
  V  V17  1  0.76002369  0.48995439  0.24674571  1
  V  V18  1  0.26391247  0.00243886  0.75158180  1
  V  V19  1  0.75461311  0.25169034  0.49795024  1
  V  V20  1  0.62195509  0.61453793  0.00123673  1
  V  V21  1  0.87665105  0.25552304  0.62059340  1
  V  V22  1  0.87236299  -0.00275814  0.35676847  1
  V  V23  1  0.32043029  0.70175213  0.07001106  1
  V  V24  1  0.87228982  0.87605590  -0.00031736  1
  V  V25  1  0.37329660  0.62498371  0.25299789  1
  V  V26  1  0.12486276  -0.00159669  0.62655706  1
  V  V27  1  0.37160493  0.62292531  0.75124998  1
  V  V28  1  0.62320183  0.88322822  0.25765665  1
  V  V29  1  0.50151349  0.36818644  0.88057323  1
  V  V30  1  0.77621930  0.24864914  0.02057798  1
  V  V31  1  0.49565189  0.88149462  0.87766128  1
  V  V32  1  0.17666548  0.31627765  0.30184324  1
  V  V33  1  0.75024945  0.38203531  0.62432683  1
  V  V34  1  0.00022509  0.87194231  0.37578010  1
  V  V35  1  -0.00446330  0.75140660  0.74852454  1
  V  V36  1  0.37374329  0.35969581  0.00726631  1
  V  V37  1  0.50036299  0.75235335  0.25581912  1
  V  V38  1  -0.00657318  0.00039294  0.50120017  1
  V  V39  1  0.50460620  0.62652079  0.12415541  1
  V  V40  1  0.00170419  0.00546133  0.00172361  1
  V  V41  1  0.13997433  0.13051105  0.48824935  1
  V  V42  1  0.87236882  0.86006602  0.50467401  1
  V  V43  1  -0.00673413  0.49410010  0.49774718  1
  V  V44  1  0.37929229  0.14473385  0.74714873  1
  V  V45  1  0.75749162  0.62306716  0.87886303  1
  V  V46  1  0.24983373  0.87326537  0.62222849  1
  V  V47  1  0.63757085  0.73828901  0.37968117  1
  V  V48  1  0.61532045  0.12675466  0.50448223  1
  V  V49  1  0.37845832  0.50143168  0.88261428  1
  V  V50  1  0.37750285  0.50464626  0.38824813  1
  V  V51  1  0.12293858  0.62013087  0.50482959  1
  V  V52  1  0.00702450  0.52725045  0.00366389  1
  V  V53  1  0.24817003  0.61878766  0.37182935  1
  V  V54  1  0.75073119  0.00720428  0.75066874  1
  V  V55  1  0.75191538  0.86170378  0.62147549  1
  V  V56  1  -0.01810972  0.11990870  0.13607873  1
  V  V57  1  0.23663639  0.36385205  0.11618943  1
  V  V58  1  0.13326792  0.73984730  0.88768501  1
  V  V59  1  0.63774634  0.23416630  0.88333450  1
  V  V60  1  0.75551176  0.11806208  0.36609355  1
  V  V61  1  0.62544113  0.74912645  0.87592206  1
  V  V62  1  0.88411708  0.64268525  0.23494161  1
  V  V63  1  0.25932936  0.87979450  0.12571277  1
  V  V64  1  0.12626426  0.51152962  0.13852454  1
  V  V65  1  0.12957816  0.87239117  0.25119602  1
  V  V66  1  0.39444617  0.87726247  0.49628412  1
  V  V67  1  0.75042173  0.75185390  0.00764598  1
  V  V68  1  0.00626359  0.87991837  0.87427856  1
  V  V69  1  0.25004650  0.75037370  0.50180161  1
  V  V70  1  -0.00919657  0.62937237  0.62425543  1
  V  V71  1  0.12558755  0.00398938  0.12657908  1
  V  V72  1  0.49951839  0.13101847  0.12131795  1
  V  V73  1  0.88196105  0.48305261  0.88474704  1
  V  V74  1  0.62496680  0.00599705  0.11377876  1
  V  V75  1  -0.01612537  0.24724099  0.25193296  1
  V  V76  1  0.74588264  0.87925607  0.12696950  1
  V  V77  1  0.12747481  0.25499916  0.89067272  1
  V  V78  1  0.00023307  0.12570675  0.62486009  1
  Zn  Zn79  1  0.24706238  0.00815778  0.26215905  1
  Zn  Zn80  1  0.37735752  0.74269833  0.62102071  1
  Zn  Zn81  1  0.12934292  0.87402216  0.75389545  1
  Zn  Zn82  1  0.87003722  0.00796536  0.87792796  1
  Zn  Zn83  1  0.51156015  0.25386332  0.73152478  1
  Zn  Zn84  1  0.25205558  0.13614510  0.89299500  1
  Zn  Zn85  1  0.11848655  0.49260748  0.63661184  1
  Zn  Zn86  1  0.50301993  0.01512680  -0.01351655  1
  Zn  Zn87  1  0.75470667  0.49839745  0.75491270  1
  Zn  Zn88  1  0.61811012  0.58990339  0.50284526  1
  Zn  Zn89  1  0.50191315  0.58834634  0.61561163  1
  Zn  Zn90  1  0.86423918  0.51155887  0.37567332  1
  Zn  Zn91  1  0.50617534  0.25758892  0.24317788  1
  Zn  Zn92  1  0.87346027  0.62676602  0.74923818  1
  Zn  Zn93  1  0.44580300  0.20432236  0.58655957  1
  Zn  Zn94  1  0.18691875  0.18354376  0.18190659  1
  Zn  Zn95  1  0.18764991  0.18175646  0.68659391  1
  Zn  Zn96  1  0.18111439  0.68877471  0.19154846  1
  Zn  Zn97  1  0.18236772  0.68616827  0.69563279  1
  Zn  Zn98  1  0.69390688  0.18654137  0.18310181  1
  Zn  Zn99  1  0.68628488  0.19393185  0.68828374  1
  Zn  Zn100  1  0.69311644  0.68294157  0.19681899  1
  Zn  Zn101  1  0.68667697  0.67736643  0.68972462  1
  Zn  Zn102  1  0.33894726  0.32819310  0.29594446  1
  Zn  Zn103  1  0.30382464  0.31655019  0.81683536  1
  Zn  Zn104  1  0.31466767  0.81190055  0.31547471  1
  Zn  Zn105  1  0.31263969  0.81498120  0.81630778  1
  Zn  Zn106  1  0.80587229  0.31601799  0.30545120  1
  Zn  Zn107  1  0.81517422  0.30654895  0.81435805  1
  Zn  Zn108  1  0.81241835  0.81320968  0.31180914  1
  Zn  Zn109  1  0.81330991  0.81658881  0.81306202  1
  Zn  Zn110  1  0.18598879  0.43446315  0.44053677  1
  Zn  Zn111  1  0.18239275  0.43418763  0.93491442  1
  Zn  Zn112  1  0.19194378  0.94620692  0.43752776  1
  Zn  Zn113  1  0.20998309  0.97314350  0.95796997  1
  Zn  Zn114  1  0.70084109  0.45888260  0.45079824  1
  Zn  Zn115  1  0.69499035  0.42735910  0.94527164  1
  Zn  Zn116  1  0.68736990  0.93727150  0.44120561  1
  Zn  Zn117  1  0.68499934  0.94179528  0.93398123  1
  Zn  Zn118  1  0.31742089  0.06904060  0.06703348  1
  Zn  Zn119  1  0.31991635  0.06160569  0.56349241  1
  Zn  Zn120  1  0.30497837  0.53903550  0.06453645  1
  Zn  Zn121  1  0.31120886  0.55953486  0.57026809  1
  Zn  Zn122  1  0.80637456  0.06777412  0.05797044  1
  Zn  Zn123  1  0.80790683  0.06260515  0.56180632  1
  Zn  Zn124  1  0.81562787  0.55957764  0.06625561  1
  Zn  Zn125  1  0.80942960  0.57054132  0.55910938  1
  Zn  Zn126  1  0.43720615  0.44238790  0.18705700  1
  Zn  Zn127  1  0.42828765  0.42431004  0.69519245  1
  Zn  Zn128  1  0.44332621  0.94275420  0.18804769  1
  Zn  Zn129  1  0.43898585  0.93071290  0.68363555  1
  Zn  Zn130  1  0.94996550  0.44547119  0.18971249  1
  Zn  Zn131  1  0.93327092  0.44473625  0.68985857  1
  Zn  Zn132  1  0.94616488  0.90786535  0.17796640  1
  Zn  Zn133  1  0.93375989  0.93589431  0.68849127  1
  Zn  Zn134  1  0.05955864  0.06014515  0.31278133  1
  Zn  Zn135  1  0.06696426  0.06886242  0.81608329  1
  Zn  Zn136  1  0.05202503  0.56566344  0.31152364  1
  Zn  Zn137  1  0.05977594  0.56479269  0.81741859  1
  Zn  Zn138  1  0.56241604  0.06382944  0.31175419  1
  Zn  Zn139  1  0.55833313  0.06516963  0.80078800  1
  Zn  Zn140  1  0.56733493  0.56291681  0.30905484  1
  Zn  Zn141  1  0.55910444  0.55838470  0.81204797  1
  Zn  Zn142  1  0.43835644  0.18750271  0.42028265  1
  Zn  Zn143  1  0.43508392  0.18644131  0.92956582  1
  Zn  Zn144  1  0.44264855  0.69041919  0.43461281  1
  Zn  Zn145  1  0.44050431  0.68603144  0.93404066  1
  Zn  Zn146  1  0.93746540  0.18398333  0.43359545  1
  Zn  Zn147  1  0.94731123  0.19103438  0.93691288  1
  Zn  Zn148  1  0.93136428  0.68098044  0.42857921  1
  Zn  Zn149  1  0.94034773  0.69653067  0.93999541  1
  Zn  Zn150  1  0.05901717  0.30419793  0.07195569  1
  Zn  Zn151  1  0.06691943  0.30943286  0.55658454  1
  Zn  Zn152  1  0.06297662  0.80822387  0.06318877  1
  Zn  Zn153  1  0.06139530  0.81115843  0.56273421  1
  Zn  Zn154  1  0.56547615  0.31005675  0.05461413  1
  Zn  Zn155  1  0.55104094  0.39691877  0.57292173  1
  Zn  Zn156  1  0.56148968  0.81150377  0.06518479  1
  Zn  Zn157  1  0.56786250  0.73701829  0.56149258  1
  O  O158  1  0.11606373  0.10717700  0.13413928  1
  O  O159  1  0.11705395  0.11549588  0.61569575  1
  O  O160  1  0.13660436  0.61139388  0.12510078  1
  O  O161  1  0.11669945  0.62296725  0.61566814  1
  O  O162  1  0.61541683  0.11186858  0.13386899  1
  O  O163  1  0.63010195  0.12276366  0.61109433  1
  O  O164  1  0.62124086  0.61795804  0.11819249  1
  O  O165  1  0.61441155  0.64027754  0.61538028  1
  O  O166  1  0.36917084  0.38796332  0.38854443  1
  O  O167  1  0.38002303  0.37920568  0.88470802  1
  O  O168  1  0.37864930  0.87910875  0.38638946  1
  O  O169  1  0.38609748  0.86772640  0.88737507  1
  O  O170  1  0.88767529  0.37639901  0.37377008  1
  O  O171  1  0.87688667  0.38462255  0.87762090  1
  O  O172  1  0.88095222  0.87894724  0.38502354  1
  O  O173  1  0.88178063  0.88122932  0.88328794  1
  O  O174  1  0.27002799  -0.00619691  0.37368655  1
  O  O175  1  0.24244126  -0.01103657  0.84822282  1
  O  O176  1  0.25683843  0.51392731  0.38324541  1
  O  O177  1  0.26238439  0.48681087  0.86149675  1
  O  O178  1  0.76211781  0.00504145  0.38161734  1
  O  O179  1  0.74958239  -0.00472749  0.85598665  1
  O  O180  1  0.75338889  0.47814079  0.35141962  1
  O  O181  1  0.76644451  0.50621335  0.88662395  1
  O  O182  1  0.23339337  0.48471759  0.12739432  1
  O  O183  1  0.24493104  0.49436755  0.63743293  1
  O  O184  1  0.24311107  0.99135395  0.13370130  1
  O  O185  1  0.24347492  0.99079567  0.62851824  1
  O  O186  1  0.73558746  0.49781691  0.12428530  1
  O  O187  1  0.76761130  0.48301277  0.63236680  1
  O  O188  1  0.73318151  0.99567898  0.11968963  1
  O  O189  1  0.74253737  0.99620062  0.63355354  1
  O  O190  1  -0.00214291  0.36049651  0.25856617  1
  O  O191  1  -0.00091950  0.36522060  0.74205359  1
  O  O192  1  0.01493715  0.88041994  0.27238517  1
  O  O193  1  -0.00068248  0.87073158  0.75696687  1
  O  O194  1  0.47387691  0.36886064  0.26988544  1
  O  O195  1  0.50875194  0.37176255  0.76663222  1
  O  O196  1  0.51455510  0.86464492  0.23882158  1
  O  O197  1  0.50335020  0.86764758  0.76069775  1
  O  O198  1  0.49327468  0.12502467  0.24006281  1
  O  O199  1  0.48516519  0.13611845  0.74805431  1
  O  O200  1  0.49345357  0.63297616  0.24495270  1
  O  O201  1  0.49187174  0.63254674  0.75355343  1
  O  O202  1  0.99902491  0.13142129  0.24616007  1
  O  O203  1  0.99479785  0.12626832  0.73448327  1
  O  O204  1  0.98680742  0.62822095  0.24575481  1
  O  O205  1  1.00001153  0.63132289  0.73984865  1
  O  O206  1  0.37142887  0.26080957  -0.00094844  1
  O  O207  1  0.37279151  0.25343182  0.49463592  1
  O  O208  1  0.38082671  0.75741715  0.00757360  1
  O  O209  1  0.36424463  0.76027364  0.49758356  1
  O  O210  1  0.87735505  0.24695451  0.00205615  1
  O  O211  1  0.86731586  0.24333501  0.50863487  1
  O  O212  1  0.86088581  0.76345713  -0.00565273  1
  O  O213  1  0.88114548  0.76095488  0.49701478  1
  O  O214  1  0.12209319  0.22959600  0.49850048  1
  O  O215  1  0.10541509  0.24509916  0.98870822  1
  O  O216  1  0.13150248  0.74103524  0.49498037  1
  O  O217  1  0.12311804  0.75765346  0.98750332  1
  O  O218  1  0.64027802  0.23779664  0.48710272  1
  O  O219  1  0.62579518  0.24561122  0.98481015  1
  O  O220  1  0.62802926  0.77139241  0.47513810  1
  O  O221  1  0.63061389  0.74410765  0.99031497  1
  O  O222  1  0.51314213  0.23527362  0.12796207  1
  O  O223  1  0.51012359  0.28673880  0.62134626  1
  O  O224  1  0.50995967  0.73638616  0.13756742  1
  O  O225  1  0.49359015  0.76421795  0.64563144  1
  O  O226  1  1.00130472  0.23019109  0.14004706  1
  O  O227  1  0.99431812  0.24463803  0.62738593  1
  O  O228  1  0.98748113  0.80768862  0.13977491  1
  O  O229  1  1.00559489  0.74119225  0.63393393  1
  O  O230  1  -0.00322973  0.25829514  0.36578017  1
  O  O231  1  0.01019011  0.24527367  0.85504870  1
  O  O232  1  0.01284381  0.75901265  0.38810827  1
  O  O233  1  0.00800841  0.75994457  0.86948591  1
  O  O234  1  0.51146617  0.25986627  0.37071092  1
  O  O235  1  0.50845740  0.25903835  0.87431333  1
  O  O236  1  0.51133057  0.75001588  0.36079504  1
  O  O237  1  0.50903063  0.75541885  0.86847127  1
  O  O238  1  0.23781621  0.11560283  0.50532378  1
  O  O239  1  0.24209051  0.08049218  0.98945068  1
  O  O240  1  0.24275854  0.63227199  0.49657623  1
  O  O241  1  0.26917949  0.63956858  1.01293355  1
  O  O242  1  0.74583299  0.13387564  0.49158321  1
  O  O243  1  0.75290111  0.14558327  0.99959196  1
  O  O244  1  0.73075369  0.57015636  0.48569216  1
  O  O245  1  0.74159518  0.63386647  0.99563438  1
  O  O246  1  0.26102011  0.38066017  0.00803623  1
  O  O247  1  0.26036761  0.37741662  0.50749144  1
  O  O248  1  0.26388377  0.88346572  0.01362598  1
  O  O249  1  0.24623663  0.86470755  0.50771301  1
  O  O250  1  0.75038812  0.34884186  -0.00110087  1
  O  O251  1  0.74712672  0.36546170  0.51546277  1
  O  O252  1  0.75118083  0.87039476  0.00195701  1
  O  O253  1  0.75791443  0.87894811  0.51409345  1
  O  O254  1  0.11407345  0.50042052  0.23719025  1
  O  O255  1  0.13945114  0.50401322  0.75640958  1
  O  O256  1  0.12683929  0.98825785  0.24681387  1
  O  O257  1  0.13077314  1.00041953  0.73528610  1
  O  O258  1  0.63792550  0.50300950  0.23773426  1
  O  O259  1  0.63478625  0.48550403  0.76643236  1
  O  O260  1  0.61822597  0.98681918  0.24066477  1
  O  O261  1  0.63219586  0.99724652  0.74002516  1
  O  O262  1  0.37625972  0.00216420  0.26144711  1
  O  O263  1  0.36621462  0.00045984  0.74262696  1
  O  O264  1  0.37755461  0.51896126  0.26070489  1
  O  O265  1  0.36680730  0.50524479  0.76030577  1
  O  O266  1  0.88377352  -0.02108720  0.26008223  1
  O  O267  1  0.86783434  0.00989818  0.74793967  1
  O  O268  1  0.86997855  0.50499806  0.24377304  1
  O  O269  1  0.87747422  0.50610741  0.77210791  1
  O  O270  1  0.11987489  0.37707166  0.36583733  1
  O  O271  1  0.12385658  0.35688928  0.87451665  1
  O  O272  1  0.12197113  0.86899397  0.37485304  1
  O  O273  1  0.11013033  0.87501085  0.87421097  1
  O  O274  1  0.61175767  0.36847819  0.37411751  1
  O  O275  1  0.61880916  0.36767236  0.87523694  1
  O  O276  1  0.62986264  0.87786121  0.35864553  1
  O  O277  1  0.61926830  0.86542736  0.86981697  1
  O  O278  1  0.39165413  0.11389704  0.13908289  1
  O  O279  1  0.37642937  0.12869217  0.63535457  1
  O  O280  1  0.37779655  0.62974668  0.12934372  1
  O  O281  1  0.38136324  0.62407839  0.63817593  1
  O  O282  1  0.88443029  0.11041975  0.13639129  1
  O  O283  1  0.88316614  0.13330705  0.62939631  1
  O  O284  1  0.87441221  0.62793082  0.13246568  1
  O  O285  1  0.88599760  0.62133881  0.62567284  1
  O  O286  1  0.23876574  0.26292016  0.11657487  1
  O  O287  1  0.24725078  0.26447234  0.63115038  1
  O  O288  1  0.25420301  0.75861681  0.12751501  1
  O  O289  1  0.24917294  0.75449574  0.61816479  1
  O  O290  1  0.76251362  0.24738967  0.12251498  1
  O  O291  1  0.75942612  0.25521437  0.61786170  1
  O  O292  1  0.73431338  0.76129980  0.11211501  1
  O  O293  1  0.74728123  0.76310179  0.63263006  1
  O  O294  1  0.24266749  0.26765582  0.35621782  1
  O  O295  1  0.23646393  0.25268911  0.88018926  1
  O  O296  1  0.24120747  0.74268127  0.38572247  1
  O  O297  1  0.23107815  0.75888277  0.86783960  1
  O  O298  1  0.74889747  0.24561867  0.37990613  1
  O  O299  1  0.73996697  0.24515424  0.87374347  1
  O  O300  1  0.73654567  0.74902796  0.36612641  1
  O  O301  1  0.74082501  0.74530221  0.88145886  1
  O  O302  1  -0.00749532  0.11267648  0.01788496  1
  O  O303  1  0.00177476  0.11618390  0.50913702  1
  O  O304  1  0.00336181  0.62664169  0.00493914  1
  O  O305  1  0.00606141  0.61946972  0.50491518  1
  O  O306  1  0.48851078  0.12811009  0.01579367  1
  O  O307  1  0.51349444  0.13956451  0.50051030  1
  O  O308  1  0.51196314  0.63203474  0.00883498  1
  O  O309  1  0.50656270  0.64332534  0.51192892  1
  O  O310  1  0.47797070  0.37040858  0.47978606  1
  O  O311  1  0.48416524  0.37169222  0.99402701  1
  O  O312  1  0.48884506  0.86573552  0.50642807  1
  O  O313  1  0.49564150  0.87169302  0.99196764  1
  O  O314  1  1.00834115  0.38006144  0.48427522  1
  O  O315  1  0.96428131  0.37259363  1.03985658  1
  O  O316  1  0.99437935  0.88116697  0.49578127  1
  O  O317  1  0.98762437  0.88450033  0.99119650  1
  O  O318  1  0.49326256  0.48960091  0.36710745  1
  O  O319  1  0.48516232  0.48774923  0.87129989  1
  O  O320  1  0.48664520  1.00039459  0.37397778  1
  O  O321  1  0.50946610  0.98600236  0.87204131  1
  O  O322  1  1.00023163  0.48564498  0.37921905  1
  O  O323  1  0.98962748  0.50687412  0.88906425  1
  O  O324  1  0.99143454  0.99184130  0.38518664  1
  O  O325  1  1.00101514  0.99864729  0.88402049  1
  O  O326  1  0.00439455  0.00416778  0.12445239  1
  O  O327  1  0.00478505  0.00446307  0.61978016  1
  O  O328  1  0.01516415  0.50195956  0.11159356  1
  O  O329  1  0.00229937  0.50668685  0.61735366  1
  O  O330  1  0.51247830  0.00789907  0.11999348  1
  O  O331  1  0.51815367  -0.00704930  0.62910943  1
  O  O332  1  0.51125145  0.51739588  0.13569272  1
  O  O333  1  0.50517936  0.48069278  0.63903387  1
  O  O334  1  0.24552632  0.36732295  0.23418914  1
  O  O335  1  0.26064046  0.38756217  0.73373344  1
  O  O336  1  0.24420200  0.87219760  0.24496883  1
  O  O337  1  0.25298632  0.88153029  0.73530095  1
  O  O338  1  0.76475602  0.38822806  0.22866637  1
  O  O339  1  0.74848068  0.37337931  0.74440819  1
  O  O340  1  0.73400496  0.86921690  0.23620716  1
  O  O341  1  0.74780664  0.88236424  0.74011447  1
  O  O342  1  0.26907317  0.12316118  0.23687197  1
  O  O343  1  0.26098512  0.11133772  0.74137476  1
  O  O344  1  0.25818695  0.63582032  0.26431474  1
  O  O345  1  0.25981876  0.61174985  0.74540789  1
  O  O346  1  0.74452727  0.12485110  0.26770329  1
  O  O347  1  0.76190424  0.11949146  0.73907420  1
  O  O348  1  0.76379746  0.60758576  0.24155952  1
  O  O349  1  0.75193056  0.62065182  0.76438005  1
  O  O350  1  0.37780987  0.11173168  0.36226403  1
  O  O351  1  0.36675226  0.13021257  0.85491077  1
  O  O352  1  0.36807322  0.62305633  0.37215039  1
  O  O353  1  0.38035553  0.61004601  0.86916987  1
  O  O354  1  0.86919589  0.10980700  0.37772677  1
  O  O355  1  0.88645595  0.12623255  0.85709977  1
  O  O356  1  0.87629753  0.62210268  0.35435550  1
  O  O357  1  0.86273653  0.62900264  0.88049756  1
  O  O358  1  0.13240838  0.38155376  0.11517024  1
  O  O359  1  0.14069323  0.37950185  0.61127855  1
  O  O360  1  0.13887617  0.88017821  0.13657431  1
  O  O361  1  0.13239155  0.88148197  0.62471496  1
  O  O362  1  0.60887179  0.39224165  0.12097596  1
  O  O363  1  0.64644275  0.37250133  0.64156579  1
  O  O364  1  0.62844222  0.88693889  0.12651848  1
  O  O365  1  0.64135933  0.88365833  0.63002526  1
  O  O366  1  0.11703623  0.24855888  0.25082142  1
  O  O367  1  0.10993668  0.25081052  0.73628493  1
  O  O368  1  0.12938735  0.75928087  0.26517408  1
  O  O369  1  0.11273917  0.75447069  0.75918624  1
  O  O370  1  0.62851279  0.24380531  0.26400096  1
  O  O371  1  0.62802208  0.26124650  0.76251241  1
  O  O372  1  0.62011925  0.75625071  0.25820536  1
  O  O373  1  0.61840145  0.75279883  0.76027570  1
  O  O374  1  0.38359451  0.23190419  0.25475537  1
  O  O375  1  0.37100828  0.24639287  0.74756527  1
  O  O376  1  0.38577489  0.73915184  0.25827372  1
  O  O377  1  0.38029655  0.73932546  0.75546359  1
  O  O378  1  0.88544010  0.24688372  0.25197700  1
  O  O379  1  0.88698224  0.24337565  0.74084069  1
  O  O380  1  0.86970366  0.74408654  0.24462834  1
  O  O381  1  0.88999436  0.74740392  0.75946936  1
  O  O382  1  0.37677639  0.50503019  0.49041618  1
  O  O383  1  0.37237805  0.49478945  0.98516185  1
  O  O384  1  0.37630541  0.98633552  0.49203766  1
  O  O385  1  0.38722237  0.98827795  1.00343306  1
  O  O386  1  0.89148185  0.50439167  0.49509145  1
  O  O387  1  0.89073418  0.50657141  0.99296576  1
  O  O388  1  0.88569874  0.99160506  0.50190915  1
  O  O389  1  0.87999691  0.99445190  0.99700325  1
  O  O390  1  0.10834150  -0.01629865  0.01644925  1
  O  O391  1  0.11327591  0.00166269  0.50933807  1
  O  O392  1  0.10783213  0.49875600  -0.00497856  1
  O  O393  1  0.11604782  0.51096257  0.49721278  1
  O  O394  1  0.62082696  0.00081910  0.00937237  1
  O  O395  1  0.63008319  0.01764421  0.50437586  1
  O  O396  1  0.63129451  0.50956319  0.00746237  1
  O  O397  1  0.60058558  0.47327066  0.49844354  1
  O  O398  1  0.36625341  0.38391505  0.11262215  1
  O  O399  1  0.36383024  0.37649277  0.60621344  1
  O  O400  1  0.36943485  0.88006361  0.12097571  1
  O  O401  1  0.36527643  0.87317345  0.61069824  1
  O  O402  1  0.91105701  0.37622948  0.09515065  1
  O  O403  1  0.86703722  0.36261039  0.63297244  1
  O  O404  1  0.85295385  0.88855177  0.10994036  1
  O  O405  1  0.86197061  0.87793825  0.61920580  1
  O  O406  1  0.12431294  0.10981739  0.39002172  1
  O  O407  1  0.13418222  0.14516958  0.86040379  1
  O  O408  1  0.12892299  0.63066617  0.38217397  1
  O  O409  1  0.12263648  0.64007159  0.87547645  1
  O  O410  1  0.63144296  0.12772818  0.38491239  1
  O  O411  1  0.61755770  0.13635779  0.86660141  1
  O  O412  1  0.61988356  0.63514001  0.38146406  1
  O  O413  1  0.63116682  0.62940191  0.88224160  1
