# generated using pymatgen
data_V79Zn79O256
_symmetry_space_group_name_H-M   'P 1'
_cell_length_a   16.96504470
_cell_length_b   16.95878970
_cell_length_c   16.94692659
_cell_angle_alpha   89.97005296
_cell_angle_beta   90.11387216
_cell_angle_gamma   90.12236844
_symmetry_Int_Tables_number   1
_chemical_formula_structural   V79Zn79O256
_chemical_formula_sum   'V79 Zn79 O256'
_cell_volume   4875.72165577
_cell_formula_units_Z   1
loop_
 _symmetry_equiv_pos_site_id
 _symmetry_equiv_pos_as_xyz
  1  'x, y, z'
loop_
 _atom_site_type_symbol
 _atom_site_label
 _atom_site_symmetry_multiplicity
 _atom_site_fract_x
 _atom_site_fract_y
 _atom_site_fract_z
 _atom_site_occupancy
  V  V0  1  -0.00130683  0.13413687  0.12275377  1
  V  V1  1  0.12452744  -0.00580953  0.62737344  1
  V  V2  1  0.74422953  0.12924526  0.88472924  1
  V  V3  1  0.63169829  0.13162167  0.49645138  1
  V  V4  1  0.86445942  0.87997694  0.01472336  1
  V  V5  1  0.74823387  0.62694690  0.37408302  1
  V  V6  1  0.37279411  0.61503686  0.25914087  1
  V  V7  1  0.50096052  0.49932356  0.00176653  1
  V  V8  1  0.75153224  0.26132092  0.01569539  1
  V  V9  1  0.01101215  0.51016128  0.50264864  1
  V  V10  1  0.75370399  0.51044957  0.74438707  1
  V  V11  1  0.37409705  0.09902100  0.25299452  1
  V  V12  1  -0.00294369  -0.01569784  0.49948061  1
  V  V13  1  -0.00064555  0.88350580  0.88156439  1
  V  V14  1  0.12418400  0.75608315  0.89463449  1
  V  V15  1  0.12076837  0.00303476  0.12780646  1
  V  V16  1  0.87638336  0.50284050  0.37911074  1
  V  V17  1  0.87709606  0.13790152  0.24909767  1
  V  V18  1  0.25317972  0.12183470  0.87082900  1
  V  V19  1  0.49195114  -0.00476558  0.49147465  1
  V  V20  1  0.20772748  0.59182773  0.87435275  1
  V  V21  1  0.75380279  0.73749056  0.01544814  1
  V  V22  1  0.75856669  0.87566682  0.62007589  1
  V  V23  1  0.35175058  0.74511628  0.12252657  1
  V  V24  1  0.37168378  0.24937975  0.62263875  1
  V  V25  1  0.75419187  0.00287405  0.74910775  1
  V  V26  1  0.49843064  0.12046036  0.62130279  1
  V  V27  1  -0.00717634  0.74683934  0.75543397  1
  V  V28  1  -0.00161402  0.62209631  0.62864538  1
  V  V29  1  0.11783211  0.50878402  0.12043630  1
  V  V30  1  0.75091843  0.49391450  0.24819380  1
  V  V31  1  0.75702509  0.75537009  0.49953458  1
  V  V32  1  0.02431517  0.25537448  0.25605383  1
  V  V33  1  0.23841481  0.60777463  0.37136476  1
  V  V34  1  0.61894604  0.49430317  0.62770732  1
  V  V35  1  -0.00122125  0.75301802  0.26379584  1
  V  V36  1  0.50689778  0.37290417  0.86185286  1
  V  V37  1  0.62346782  0.00995262  0.11806584  1
  V  V38  1  0.87432840  0.37314049  0.49863905  1
  V  V39  1  0.12437117  0.12069300  0.00153047  1
  V  V40  1  0.00034241  0.63261162  0.11280978  1
  V  V41  1  0.12453478  0.12680373  0.48653484  1
  V  V42  1  0.38579137  0.73544578  0.61842413  1
  V  V43  1  0.36644009  0.38131530  0.49618504  1
  V  V44  1  0.49631352  0.87935209  0.37109720  1
  V  V45  1  0.75316542  0.13435495  0.37765086  1
  V  V46  1  0.24147049  0.38419812  0.13469910  1
  V  V47  1  0.87903718  -0.01080868  0.37933171  1
  V  V48  1  0.62738803  -0.00068586  0.61978545  1
  V  V49  1  0.63165798  0.87478896  0.23935863  1
  V  V50  1  0.87714162  0.00370236  0.88173565  1
  V  V51  1  0.62105768  0.36894128  0.25125198  1
  V  V52  1  0.62649788  0.49361534  0.12817087  1
  V  V53  1  0.23934543  0.88301152  0.11718867  1
  V  V54  1  0.00177169  0.12957367  0.63015008  1
  V  V55  1  0.74811051  0.36843913  0.62186491  1
  V  V56  1  0.62458635  0.75128121  0.37319429  1
  V  V57  1  0.37312974  0.37891020  -0.00327257  1
  V  V58  1  0.61794322  0.87173979  0.75784039  1
  V  V59  1  0.37869701  0.51304044  0.85753715  1
  V  V60  1  0.38018091  0.11891452  0.75075657  1
  V  V61  1  0.87508468  0.63009133  0.24486163  1
  V  V62  1  0.11768917  0.87388187  0.26263595  1
  V  V63  1  0.38285880  0.25438254  0.13577645  1
  V  V64  1  0.25694842  0.22703273  0.48464471  1
  V  V65  1  0.87757545  0.24894725  0.62396618  1
  V  V66  1  0.49864159  0.36876416  0.37269858  1
  V  V67  1  0.49861214  0.75303588  0.24636009  1
  V  V68  1  0.61858748  0.62641258  0.50160953  1
  V  V69  1  0.24755291  0.25452880  -0.00262840  1
  V  V70  1  0.86758420  0.51634873  0.87192273  1
  V  V71  1  0.75275600  -0.00231004  0.24550829  1
  V  V72  1  0.25466016  -0.00235515  0.74804088  1
  V  V73  1  0.12021240  0.25231427  0.85392458  1
  V  V74  1  0.27300140  0.87429189  0.62245068  1
  V  V75  1  0.24384513  0.75819803  0.48896423  1
  V  V76  1  0.49816349  0.50268342  0.49227131  1
  V  V77  1  0.50063707  0.62538164  0.12474349  1
  V  V78  1  -0.01348216  0.36833485  0.86633997  1
  Zn  Zn79  1  0.88167708  0.37068145  0.01595011  1
  Zn  Zn80  1  0.50565991  0.13390843  0.12178826  1
  Zn  Zn81  1  0.48835144  -0.00428450  -0.01552107  1
  Zn  Zn82  1  0.63258298  0.73206287  0.87828429  1
  Zn  Zn83  1  0.12586309  0.87236774  0.75284512  1
  Zn  Zn84  1  0.01228384  0.36822151  0.37812442  1
  Zn  Zn85  1  0.44633464  0.56902198  0.68297951  1
  Zn  Zn86  1  0.64331830  0.61659083  -0.00167857  1
  Zn  Zn87  1  0.17926919  0.43342613  0.31144461  1
  Zn  Zn88  1  0.51092372  0.25639098  0.73756433  1
  Zn  Zn89  1  0.88166187  0.13194704  0.75538779  1
  Zn  Zn90  1  0.62672749  0.25353953  0.87223222  1
  Zn  Zn91  1  0.86158907  0.73921566  0.64590988  1
  Zn  Zn92  1  0.48386156  0.73654112  0.77049135  1
  Zn  Zn93  1  0.62628847  0.24949623  0.37280756  1
  Zn  Zn94  1  0.20023798  0.18518594  0.18905027  1
  Zn  Zn95  1  0.19386885  0.18188687  0.67730527  1
  Zn  Zn96  1  0.17944820  0.68368411  0.20049065  1
  Zn  Zn97  1  0.19803843  0.61249499  0.68906773  1
  Zn  Zn98  1  0.69160902  0.18667294  0.18931269  1
  Zn  Zn99  1  0.68842968  0.19024158  0.68822960  1
  Zn  Zn100  1  0.68873964  0.68609353  0.18189431  1
  Zn  Zn101  1  0.67368587  0.68678609  0.68493969  1
  Zn  Zn102  1  0.31357306  0.31094813  0.31413884  1
  Zn  Zn103  1  0.32179540  0.31994240  0.80596783  1
  Zn  Zn104  1  0.29045404  0.87850122  0.32578482  1
  Zn  Zn105  1  0.30403225  0.79299326  0.80253161  1
  Zn  Zn106  1  0.81588011  0.31680940  0.31267966  1
  Zn  Zn107  1  0.80216259  0.31122330  0.79828393  1
  Zn  Zn108  1  0.81249836  0.81097233  0.30932903  1
  Zn  Zn109  1  0.80639895  0.81257180  0.82450898  1
  Zn  Zn110  1  0.14295779  0.38042355  0.50198082  1
  Zn  Zn111  1  0.17844139  0.43631364  0.93072260  1
  Zn  Zn112  1  0.17687585  0.93312805  0.44520654  1
  Zn  Zn113  1  0.37079711  0.87078373  0.97878845  1
  Zn  Zn114  1  0.68763782  0.43736617  0.43698705  1
  Zn  Zn115  1  0.69101001  0.43940359  0.93494849  1
  Zn  Zn116  1  0.68738752  0.93937095  0.43125940  1
  Zn  Zn117  1  0.69070890  0.93846381  0.93932366  1
  Zn  Zn118  1  0.34069914  0.08080750  0.04255791  1
  Zn  Zn119  1  0.31086206  0.04895341  0.42219044  1
  Zn  Zn120  1  0.30656463  0.56675846  0.05211126  1
  Zn  Zn121  1  0.30217109  0.56630242  0.54714009  1
  Zn  Zn122  1  0.81439075  0.06774917  0.06441576  1
  Zn  Zn123  1  0.81527213  0.06376980  0.55959858  1
  Zn  Zn124  1  0.83126724  0.53162718  0.07262507  1
  Zn  Zn125  1  0.81050614  0.56847262  0.56518179  1
  Zn  Zn126  1  0.43578885  0.43484358  0.18749794  1
  Zn  Zn127  1  0.22029588  0.42646113  0.66744554  1
  Zn  Zn128  1  0.42738787  0.93766773  0.13255029  1
  Zn  Zn129  1  0.43872814  0.92560494  0.81525828  1
  Zn  Zn130  1  0.94608486  0.43336790  0.18922797  1
  Zn  Zn131  1  0.93470255  0.43835783  0.68871091  1
  Zn  Zn132  1  0.94270468  0.94721847  0.19179680  1
  Zn  Zn133  1  0.93869607  0.93914997  0.69076215  1
  Zn  Zn134  1  0.05857745  0.05959162  0.30897474  1
  Zn  Zn135  1  0.06696686  0.06238099  0.81437531  1
  Zn  Zn136  1  0.06117522  0.56170353  0.30498965  1
  Zn  Zn137  1  0.04081793  0.56893894  0.83069788  1
  Zn  Zn138  1  0.55783670  0.06776687  0.30316278  1
  Zn  Zn139  1  0.56611644  0.06190709  0.81086935  1
  Zn  Zn140  1  0.56060269  0.56023439  0.31322072  1
  Zn  Zn141  1  0.56403198  0.56967269  0.81842837  1
  Zn  Zn142  1  0.44282313  0.18174895  0.42892360  1
  Zn  Zn143  1  0.44298432  0.18825934  0.93896967  1
  Zn  Zn144  1  0.43171090  0.69661496  0.43749716  1
  Zn  Zn145  1  0.44310947  0.69639578  0.94009325  1
  Zn  Zn146  1  0.94131885  0.18634391  0.43734564  1
  Zn  Zn147  1  0.93469715  0.19427394  0.93947442  1
  Zn  Zn148  1  0.93806788  0.68668618  0.43979614  1
  Zn  Zn149  1  0.92570063  0.69834046  0.94028323  1
  Zn  Zn150  1  0.06014939  0.31315302  0.05818491  1
  Zn  Zn151  1  0.06614599  0.31789741  0.67821841  1
  Zn  Zn152  1  0.04766951  0.81801625  0.06795688  1
  Zn  Zn153  1  0.06372892  0.80160941  0.56872939  1
  Zn  Zn154  1  0.57004105  0.31146768  0.05343216  1
  Zn  Zn155  1  0.55802987  0.31386435  0.55778344  1
  Zn  Zn156  1  0.56610141  0.81358010  0.05130167  1
  Zn  Zn157  1  0.56500903  0.81779604  0.56249969  1
  O  O158  1  0.12363744  0.12239031  0.12223628  1
  O  O159  1  0.11942694  0.11296186  0.61802794  1
  O  O160  1  0.11494223  0.61871444  0.12653939  1
  O  O161  1  0.09886404  0.63044549  0.63717708  1
  O  O162  1  0.62497564  0.11515884  0.13014796  1
  O  O163  1  0.62125140  0.11791002  0.61672997  1
  O  O164  1  0.61408855  0.61165311  0.12657741  1
  O  O165  1  0.63052055  0.61027290  0.60836360  1
  O  O166  1  0.38314656  0.36781376  0.38941380  1
  O  O167  1  0.38609650  0.38220146  0.88243687  1
  O  O168  1  0.39842786  0.87542239  0.35972166  1
  O  O169  1  0.37529071  0.85113238  0.86849334  1
  O  O170  1  0.87942924  0.38698244  0.38050825  1
  O  O171  1  0.88591126  0.35709627  0.86441984  1
  O  O172  1  0.87113290  0.89105478  0.36994803  1
  O  O173  1  0.87745463  0.88925331  0.88385597  1
  O  O174  1  0.24956327  -0.02610569  0.37111778  1
  O  O175  1  0.24482312  0.01981953  0.86178134  1
  O  O176  1  0.24871046  0.50959704  0.37499850  1
  O  O177  1  0.27761458  0.49518794  0.87779200  1
  O  O178  1  0.76166629  0.00917857  0.36763620  1
  O  O179  1  0.75826262  0.01116949  0.86910082  1
  O  O180  1  0.75535605  0.50737780  0.36716943  1
  O  O181  1  0.75469537  0.49160333  0.85187474  1
  O  O182  1  0.24636443  0.48864675  0.12056357  1
  O  O183  1  0.24027097  0.52739761  0.63056369  1
  O  O184  1  0.23253574  0.98725536  0.12628061  1
  O  O185  1  0.23951367  0.98841496  0.63417794  1
  O  O186  1  0.73471910  0.51015217  0.13917087  1
  O  O187  1  0.74170862  0.49356926  0.62699503  1
  O  O188  1  0.74410238  1.01043350  0.13959288  1
  O  O189  1  0.74628490  0.99688914  0.62815536  1
  O  O190  1  0.00280313  0.35974060  0.25279706  1
  O  O191  1  0.00412473  0.37561552  0.75766239  1
  O  O192  1  0.00242844  0.86064295  0.24200848  1
  O  O193  1  -0.00411858  0.87138373  0.76420691  1
  O  O194  1  0.50903649  0.38588654  0.26204967  1
  O  O195  1  0.49588019  0.37461711  0.76362706  1
  O  O196  1  0.51313414  0.86267257  0.25116656  1
  O  O197  1  0.51743704  0.87239837  0.74436713  1
  O  O198  1  0.48212791  0.12540515  0.23931474  1
  O  O199  1  0.49487085  0.12089264  0.73660125  1
  O  O200  1  0.49410835  0.62913299  0.24441775  1
  O  O201  1  0.52188244  0.63317403  0.73694004  1
  O  O202  1  0.99661253  0.13770829  0.24510091  1
  O  O203  1  0.99865554  0.11408249  0.73455107  1
  O  O204  1  0.99199750  0.63704636  0.24759723  1
  O  O205  1  0.99265410  0.63766150  0.74802267  1
  O  O206  1  0.36302602  0.26236629  0.00123998  1
  O  O207  1  0.36941264  0.23753223  0.50350340  1
  O  O208  1  0.37795580  0.74847929  0.02317500  1
  O  O209  1  0.36365171  0.75207931  0.51026164  1
  O  O210  1  0.85903419  0.25341023  -0.00059275  1
  O  O211  1  0.88565635  0.26405917  0.50643474  1
  O  O212  1  0.86335756  0.76936249  0.00351287  1
  O  O213  1  0.85742198  0.74696293  0.49664262  1
  O  O214  1  0.14636165  0.23016145  0.50324403  1
  O  O215  1  0.13815171  0.24298264  1.00049845  1
  O  O216  1  0.14422324  0.75216555  0.50722314  1
  O  O217  1  0.11254614  0.76191158  0.99329285  1
  O  O218  1  0.62071814  0.23437558  0.49861269  1
  O  O219  1  0.64354008  0.25234664  0.99027048  1
  O  O220  1  0.62890528  0.74283923  0.49381175  1
  O  O221  1  0.64026986  0.74124635  1.00831405  1
  O  O222  1  0.48421973  0.25598684  0.11087501  1
  O  O223  1  0.49400090  0.23600373  0.61642174  1
  O  O224  1  0.50675087  0.73624566  0.13235234  1
  O  O225  1  0.48567352  0.75507203  0.61305906  1
  O  O226  1  1.00912314  0.24356913  0.14003498  1
  O  O227  1  0.99411046  0.23926089  0.62651076  1
  O  O228  1  1.00001273  0.73525193  0.13500648  1
  O  O229  1  0.99097570  0.74602252  0.64002993  1
  O  O230  1  0.00017372  0.24831352  0.35980810  1
  O  O231  1  0.01245922  0.24955747  0.86755812  1
  O  O232  1  -0.00545557  0.74919212  0.36340027  1
  O  O233  1  -0.00555170  0.76329743  0.87215653  1
  O  O234  1  0.50533422  0.26388364  0.37932559  1
  O  O235  1  0.50066151  0.26538621  0.87892208  1
  O  O236  1  0.50613540  0.75675935  0.36591136  1
  O  O237  1  0.51820172  0.74951419  0.87784522  1
  O  O238  1  0.24224763  0.12037168  0.49040553  1
  O  O239  1  0.24935822  0.13540272  0.99037281  1
  O  O240  1  0.25772130  0.64256833  0.47298075  1
  O  O241  1  0.24454530  0.61312773  0.96831133  1
  O  O242  1  0.74320894  0.11908507  0.48884229  1
  O  O243  1  0.75614797  0.13498649  0.98853746  1
  O  O244  1  0.73927695  0.63402170  0.49309000  1
  O  O245  1  0.76407242  0.63490467  1.01685455  1
  O  O246  1  0.25562738  0.37137710  0.00205212  1
  O  O247  1  0.26735801  0.35795932  0.49812206  1
  O  O248  1  0.24906041  0.86508632  0.02205306  1
  O  O249  1  0.24443198  0.87272301  0.51813404  1
  O  O250  1  0.75334312  0.36334539  -0.00573821  1
  O  O251  1  0.76400381  0.38371943  0.50645066  1
  O  O252  1  0.76187255  0.87994899  0.00690004  1
  O  O253  1  0.73849883  0.86654351  0.50769436  1
  O  O254  1  0.12577524  0.49811516  0.23371873  1
  O  O255  1  0.14078769  0.51314079  0.84547478  1
  O  O256  1  0.11105385  0.98357400  0.24142727  1
  O  O257  1  0.13591049  1.00043557  0.74396727  1
  O  O258  1  0.63179857  0.49316953  0.24748530  1
  O  O259  1  0.63065419  0.49787565  0.72968336  1
  O  O260  1  0.63640173  0.99395750  0.24664317  1
  O  O261  1  0.63382116  0.99608322  0.73585164  1
  O  O262  1  0.37566610  0.00242322  0.22896297  1
  O  O263  1  0.36416579  0.00888091  0.74998491  1
  O  O264  1  0.37922447  0.51642683  0.24535763  1
  O  O265  1  0.38642256  0.50496389  0.75816693  1
  O  O266  1  0.87290974  0.01046278  0.26157636  1
  O  O267  1  0.86662049  0.00264952  0.75954636  1
  O  O268  1  0.86942122  0.50826167  0.26254092  1
  O  O269  1  0.86014943  0.50054534  0.75223665  1
  O  O270  1  0.12396714  0.38033211  0.39251580  1
  O  O271  1  0.11720131  0.35307412  0.87480015  1
  O  O272  1  0.11500850  0.87803835  0.36077013  1
  O  O273  1  0.10181126  0.87372241  0.87839284  1
  O  O274  1  0.61871653  0.37308135  0.36936346  1
  O  O275  1  0.60877754  0.38068042  0.87807127  1
  O  O276  1  0.62001062  0.86966437  0.36247245  1
  O  O277  1  0.63098187  0.88927750  0.85643953  1
  O  O278  1  0.36722488  0.14894494  0.13585425  1
  O  O279  1  0.38836080  0.13054869  0.63257668  1
  O  O280  1  0.37802103  0.63021008  0.13109277  1
  O  O281  1  0.37893993  0.63102819  0.61244110  1
  O  O282  1  0.88839898  0.11936473  0.13642986  1
  O  O283  1  0.88532895  0.13360531  0.61737733  1
  O  O284  1  0.88962058  0.61204125  0.13853629  1
  O  O285  1  0.88549572  0.62890527  0.62564245  1
  O  O286  1  0.25931329  0.26539683  0.11692625  1
  O  O287  1  0.26854097  0.23625619  0.60930910  1
  O  O288  1  0.25134173  0.73774808  0.12538099  1
  O  O289  1  0.26638877  0.76503642  0.61797563  1
  O  O290  1  0.74763504  0.25157258  0.11502113  1
  O  O291  1  0.75798675  0.25876970  0.62144054  1
  O  O292  1  0.74995007  0.75610703  0.11709568  1
  O  O293  1  0.74682171  0.75817919  0.61691932  1
  O  O294  1  0.25919668  0.24311354  0.38688414  1
  O  O295  1  0.23757677  0.24370480  0.87891028  1
  O  O296  1  0.25534003  0.77897121  0.39159019  1
  O  O297  1  0.22130944  0.76590264  0.87605239  1
  O  O298  1  0.75084768  0.23795889  0.37018349  1
  O  O299  1  0.75265908  0.23383873  0.86829525  1
  O  O300  1  0.74306337  0.74728537  0.37971800  1
  O  O301  1  0.74453183  0.75959808  0.90149055  1
  O  O302  1  0.01194026  0.14231737  0.01212139  1
  O  O303  1  0.01257503  0.12099035  0.50752705  1
  O  O304  1  -0.01206117  0.63224890  0.01479497  1
  O  O305  1  -0.00455215  0.62088822  0.51383138  1
  O  O306  1  0.46376908  0.10920842  0.01422912  1
  O  O307  1  0.51120675  0.11285228  0.50049273  1
  O  O308  1  0.49675050  0.61167827  0.01298300  1
  O  O309  1  0.50895530  0.61741370  0.48758922  1
  O  O310  1  0.49216161  0.38323208  0.49108907  1
  O  O311  1  0.49135479  0.38544801  0.99894335  1
  O  O312  1  0.51130706  0.88876532  0.48777927  1
  O  O313  1  0.48481341  0.88374333  1.02858522  1
  O  O314  1  0.98365014  0.40126782  0.49871992  1
  O  O315  1  0.99604170  0.36333499  0.97609833  1
  O  O316  1  1.00660831  0.88605053  0.50522308  1
  O  O317  1  0.98243433  0.87410485  0.98748382  1
  O  O318  1  0.50298408  0.48959519  0.38586754  1
  O  O319  1  0.49448534  0.49011245  0.88335415  1
  O  O320  1  0.51444382  0.99426617  0.38501066  1
  O  O321  1  0.49364365  1.00517664  0.87188423  1
  O  O322  1  0.98953150  0.51352066  0.38694837  1
  O  O323  1  0.97288065  0.48299407  0.86486126  1
  O  O324  1  0.98560603  1.00436145  0.38230775  1
  O  O325  1  0.99097890  0.99287732  0.87035760  1
  O  O326  1  0.01115720  0.01948775  0.12969832  1
  O  O327  1  0.00268365  0.00690150  0.61669315  1
  O  O328  1  0.01206806  0.51424726  0.13020011  1
  O  O329  1  -0.00929140  0.51251164  0.61650948  1
  O  O330  1  0.52284942  0.00336567  0.13472146  1
  O  O331  1  0.51374229  0.00743260  0.60711504  1
  O  O332  1  0.50516718  0.50588197  0.12099896  1
  O  O333  1  0.51369290  0.49919106  0.60999792  1
  O  O334  1  0.25308999  0.37531084  0.23862952  1
  O  O335  1  0.24067873  0.35479974  0.74433883  1
  O  O336  1  0.22041906  0.86003059  0.23640878  1
  O  O337  1  0.24720748  0.88111848  0.73741099  1
  O  O338  1  0.74132776  0.38833620  0.25804799  1
  O  O339  1  0.74979692  0.38568284  0.72821361  1
  O  O340  1  0.74378060  0.88668476  0.25663025  1
  O  O341  1  0.74525066  0.88856919  0.74194628  1
  O  O342  1  0.27495516  0.13042766  0.25130266  1
  O  O343  1  0.26000939  0.11895893  0.74982459  1
  O  O344  1  0.26424603  0.63409737  0.26288765  1
  O  O345  1  0.24503682  0.63468802  0.78879916  1
  O  O346  1  0.75912513  0.11800567  0.25816164  1
  O  O347  1  0.75407526  0.11336345  0.75371757  1
  O  O348  1  0.75683673  0.61894544  0.25421970  1
  O  O349  1  0.74360929  0.60918696  0.73709148  1
  O  O350  1  0.38524881  0.11113018  0.36107731  1
  O  O351  1  0.36529371  0.14211767  0.85779905  1
  O  O352  1  0.37558913  0.62785714  0.36127484  1
  O  O353  1  0.39122595  0.61016935  0.87936446  1
  O  O354  1  0.86959450  0.12049899  0.36875163  1
  O  O355  1  0.87021549  0.11874351  0.87392413  1
  O  O356  1  0.86767484  0.62053215  0.36743323  1
  O  O357  1  0.87958861  0.61428352  0.87609090  1
  O  O358  1  0.13854258  0.37832711  0.12266163  1
  O  O359  1  0.13297522  0.37622445  0.61168278  1
  O  O360  1  0.12356734  0.88421734  0.12558691  1
  O  O361  1  0.11612566  0.88871005  0.63049320  1
  O  O362  1  0.61356056  0.38697300  0.13556503  1
  O  O363  1  0.63288457  0.38771347  0.60751027  1
  O  O364  1  0.62683689  0.88519589  0.13694804  1
  O  O365  1  0.63501673  0.88455476  0.63144151  1
  O  O366  1  0.12287040  0.24580662  0.25319190  1
  O  O367  1  0.12493238  0.23980959  0.75242253  1
  O  O368  1  0.10619897  0.75782962  0.24931126  1
  O  O369  1  0.09848052  0.75826340  0.76692726  1
  O  O370  1  0.63111159  0.26600828  0.24869850  1
  O  O371  1  0.62051516  0.24438687  0.75726735  1
  O  O372  1  0.62051588  0.75386693  0.25273819  1
  O  O373  1  0.63640399  0.76823243  0.75336240  1
  O  O374  1  0.38286188  0.26757062  0.23475938  1
  O  O375  1  0.38333831  0.24287216  0.73287329  1
  O  O376  1  0.39059095  0.73554208  0.23438282  1
  O  O377  1  0.37661524  0.74829518  0.72522317  1
  O  O378  1  0.87534081  0.23952855  0.25053258  1
  O  O379  1  0.87068320  0.24675514  0.72910235  1
  O  O380  1  0.88194209  0.73976652  0.25232097  1
  O  O381  1  0.88487627  0.76012778  0.75918895  1
  O  O382  1  0.37938322  0.48564179  0.50627855  1
  O  O383  1  0.38528553  0.49219755  1.00085459  1
  O  O384  1  0.39473471  1.00342709  0.49519679  1
  O  O385  1  0.37173223  0.97614180  1.03257260  1
  O  O386  1  0.87067988  0.50093160  0.48828084  1
  O  O387  1  0.85416492  0.48721934  0.96848788  1
  O  O388  1  0.88144044  1.00280379  0.48701145  1
  O  O389  1  0.86864537  0.99608340  0.98994810  1
  O  O390  1  0.12458939  0.02012442  0.00993257  1
  O  O391  1  0.11575556  0.00816952  0.50837103  1
  O  O392  1  0.12572478  0.49240066  0.02124578  1
  O  O393  1  0.10715546  0.50698391  0.50041150  1
  O  O394  1  0.62989492  -0.00367096  0.01759445  1
  O  O395  1  0.62780653  0.00884010  0.50664056  1
  O  O396  1  0.61772025  0.49570642  0.01152498  1
  O  O397  1  0.61790381  0.50782115  0.50119668  1
  O  O398  1  0.36566277  0.37253768  0.11536854  1
  O  O399  1  0.38529000  0.35071861  0.60290810  1
  O  O400  1  0.34690069  0.85227779  0.14573029  1
  O  O401  1  0.36926334  0.88079120  0.62306691  1
  O  O402  1  0.86884676  0.42585525  0.11282427  1
  O  O403  1  0.86946436  0.36904750  0.61695426  1
  O  O404  1  0.88330776  0.89170911  0.11194046  1
  O  O405  1  0.85993931  0.87687222  0.62842555  1
  O  O406  1  0.11819681  0.11728354  0.38849175  1
  O  O407  1  0.13004663  0.13576063  0.88160193  1
  O  O408  1  0.14072797  0.62530501  0.35972965  1
  O  O409  1  0.11067043  0.64948730  0.88325484  1
  O  O410  1  0.63481560  0.12533031  0.37818665  1
  O  O411  1  0.64365119  0.11880280  0.87514562  1
  O  O412  1  0.62943758  0.63065680  0.37946128  1
  O  O413  1  0.63781094  0.61495054  0.88602973  1
