# generated using pymatgen
data_V79Zn79O256
_symmetry_space_group_name_H-M   'P 1'
_cell_length_a   16.91457784
_cell_length_b   16.87433623
_cell_length_c   16.90270680
_cell_angle_alpha   89.98325911
_cell_angle_beta   89.98760814
_cell_angle_gamma   90.02074160
_symmetry_Int_Tables_number   1
_chemical_formula_structural   V79Zn79O256
_chemical_formula_sum   'V79 Zn79 O256'
_cell_volume   4824.40836903
_cell_formula_units_Z   1
loop_
 _symmetry_equiv_pos_site_id
 _symmetry_equiv_pos_as_xyz
  1  'x, y, z'
loop_
 _atom_site_type_symbol
 _atom_site_label
 _atom_site_symmetry_multiplicity
 _atom_site_fract_x
 _atom_site_fract_y
 _atom_site_fract_z
 _atom_site_occupancy
  V  V0  1  0.86823499  0.51061373  0.87616607  1
  V  V1  1  0.49566510  -0.01111232  0.00148118  1
  V  V2  1  0.36928513  0.38742139  0.50349650  1
  V  V3  1  0.24378084  -0.01266031  0.74424242  1
  V  V4  1  0.12696109  0.62657666  -0.00096679  1
  V  V5  1  0.50597755  0.87134929  0.86158022  1
  V  V6  1  0.37425232  0.37348425  0.00156888  1
  V  V7  1  0.00308368  -0.00335994  -0.00100615  1
  V  V8  1  0.49628686  0.72460751  0.74261008  1
  V  V9  1  0.62429752  0.62443862  -0.00403131  1
  V  V10  1  0.49790508  0.50420362  0.01083920  1
  V  V11  1  0.63315472  0.11269698  0.50160013  1
  V  V12  1  0.48803501  0.13650424  0.12850672  1
  V  V13  1  0.89094598  0.87034859  0.50629137  1
  V  V14  1  0.50778139  0.12505089  0.63190020  1
  V  V15  1  0.62318309  0.50446195  0.13404328  1
  V  V16  1  0.25457604  0.87441475  0.13411632  1
  V  V17  1  0.37654818  0.50322133  0.86752444  1
  V  V18  1  0.87206182  0.25356702  0.60989128  1
  V  V19  1  0.74844173  0.37791539  0.13038747  1
  V  V20  1  0.74950887  0.24841464  0.00376929  1
  V  V21  1  0.25366896  0.62211737  0.37713883  1
  V  V22  1  0.00131830  0.37819966  0.87088666  1
  V  V23  1  0.86757407  0.62527235  0.73555955  1
  V  V24  1  0.12207308  0.49310282  0.62690832  1
  V  V25  1  0.37309638  0.75340478  0.60462395  1
  V  V26  1  0.00017126  0.25265136  0.26520666  1
  V  V27  1  0.89037934  -0.00756063  0.37784888  1
  V  V28  1  0.74500624  0.49900939  0.75160387  1
  V  V29  1  0.62997261  0.24716936  0.38994778  1
  V  V30  1  0.74745853  0.00045353  0.25468365  1
  V  V31  1  0.00248257  0.62791243  0.12829727  1
  V  V32  1  0.15088737  0.13345097  0.48183944  1
  V  V33  1  0.63619486  0.77058172  0.37150965  1
  V  V34  1  0.25421333  0.62421250  0.86657075  1
  V  V35  1  -0.00113464  0.25466005  0.75190216  1
  V  V36  1  0.74359486  0.87331060  0.13108679  1
  V  V37  1  -0.01224398  0.48425852  0.49689149  1
  V  V38  1  0.12508630  0.25439470  0.87173276  1
  V  V39  1  0.86689692  0.12763691  0.75585643  1
  V  V40  1  0.87458068  0.13043625  0.24606002  1
  V  V41  1  0.74880835  0.37152664  0.61488773  1
  V  V42  1  0.48707449  -0.00873912  0.50400492  1
  V  V43  1  0.24435359  0.48936802  0.74768060  1
  V  V44  1  0.62234694  0.36960765  0.25413896  1
  V  V45  1  0.50594113  0.59908611  0.59113712  1
  V  V46  1  0.62445375  0.12212356  0.00088623  1
  V  V47  1  0.74846030  0.62230793  0.37232487  1
  V  V48  1  0.50151217  0.38656060  0.39161897  1
  V  V49  1  0.75477824  0.75632297  0.51377382  1
  V  V50  1  0.12083949  0.62223701  0.49531340  1
  V  V51  1  0.25151541  0.12521489  0.86999674  1
  V  V52  1  0.25406991  0.24938207  0.00290694  1
  V  V53  1  0.25831340  0.75764149  -0.00409822  1
  V  V54  1  0.87708720  0.75263598  0.12584269  1
  V  V55  1  0.74861821  0.74411143  -0.00196487  1
  V  V56  1  0.37095249  0.24677237  0.62551300  1
  V  V57  1  0.86826474  0.00206164  0.87680622  1
  V  V58  1  -0.00018150  0.11778689  0.62100390  1
  V  V59  1  0.50051196  0.36727016  0.87190213  1
  V  V60  1  0.37921525  0.74358987  0.13313177  1
  V  V61  1  -0.00136197  0.50281795  -0.00073769  1
  V  V62  1  0.87357186  0.37090289  0.00521845  1
  V  V63  1  0.87531984  0.48923514  0.36800217  1
  V  V64  1  0.25346123  0.49923070  0.25353661  1
  V  V65  1  0.00705217  0.76602829  0.25497532  1
  V  V66  1  0.62184929  -0.00361357  0.13424286  1
  V  V67  1  0.48485098  0.87354830  0.37309924  1
  V  V68  1  0.11982611  0.37115147  0.26671055  1
  V  V69  1  0.12853518  0.75909210  0.37494728  1
  V  V70  1  0.12657808  0.75386670  0.86471205  1
  V  V71  1  0.00034849  0.13305855  0.12560275  1
  V  V72  1  0.12936480  -0.00797370  0.13624469  1
  V  V73  1  -0.00242991  0.74752708  0.73965652  1
  V  V74  1  0.37378730  -0.00910848  0.87618384  1
  V  V75  1  0.00475714  0.87723066  0.86234974  1
  V  V76  1  0.12660944  0.12443830  -0.00086181  1
  V  V77  1  0.62464720  0.36806380  0.75207855  1
  V  V78  1  0.24427838  0.37439611  0.12278564  1
  Zn  Zn79  1  0.63321742  0.74830826  0.86327745  1
  Zn  Zn80  1  0.87455422  0.62050297  0.24932111  1
  Zn  Zn81  1  0.74542737  0.12049456  0.87481387  1
  Zn  Zn82  1  0.12303997  0.50217391  0.12811474  1
  Zn  Zn83  1  0.24209279  0.36325624  0.62094096  1
  Zn  Zn84  1  0.11711094  -0.00253384  0.62706941  1
  Zn  Zn85  1  0.87444397  0.87496265  -0.00043327  1
  Zn  Zn86  1  -0.00750283  0.62480309  0.61817181  1
  Zn  Zn87  1  0.38766283  0.13020920  0.75550739  1
  Zn  Zn88  1  0.61864128  0.24050129  0.87171812  1
  Zn  Zn89  1  0.51141502  0.74675135  0.24420344  1
  Zn  Zn90  1  0.45527113  0.22181699  0.28323342  1
  Zn  Zn91  1  0.29398239  0.09899252  0.37248050  1
  Zn  Zn92  1  0.39299659  0.60527960  0.24275295  1
  Zn  Zn93  1  0.75697785  0.12919567  0.38232886  1
  Zn  Zn94  1  0.18492979  0.18883604  0.18955316  1
  Zn  Zn95  1  0.18385436  0.18886387  0.68823652  1
  Zn  Zn96  1  0.19170404  0.69127881  0.19247602  1
  Zn  Zn97  1  0.18895109  0.68362419  0.68012498  1
  Zn  Zn98  1  0.68045843  0.18767857  0.18960075  1
  Zn  Zn99  1  0.68804288  0.18958015  0.68528727  1
  Zn  Zn100  1  0.68674133  0.68309597  0.19040675  1
  Zn  Zn101  1  0.67715951  0.68020313  0.68397705  1
  Zn  Zn102  1  0.31358518  0.31439859  0.31766107  1
  Zn  Zn103  1  0.31761352  0.31079276  0.80873938  1
  Zn  Zn104  1  0.30948532  0.92634553  0.31605069  1
  Zn  Zn105  1  0.31895707  0.80945891  0.80354878  1
  Zn  Zn106  1  0.80919854  0.30970718  0.31216585  1
  Zn  Zn107  1  0.81025279  0.31256636  0.81821675  1
  Zn  Zn108  1  0.81770960  0.81108214  0.31168453  1
  Zn  Zn109  1  0.82975388  0.79978359  0.82586741  1
  Zn  Zn110  1  0.18760207  0.43935775  0.44287613  1
  Zn  Zn111  1  0.18634450  0.43971148  0.93610483  1
  Zn  Zn112  1  0.17957075  0.94871760  0.45037130  1
  Zn  Zn113  1  0.18768545  0.93661181  0.93723743  1
  Zn  Zn114  1  0.68505450  0.44490643  0.44013911  1
  Zn  Zn115  1  0.68496988  0.43739228  0.93895796  1
  Zn  Zn116  1  0.69930724  0.93813826  0.44570232  1
  Zn  Zn117  1  0.68483153  0.93046751  0.94357558  1
  Zn  Zn118  1  0.31368324  0.05836579  0.06320498  1
  Zn  Zn119  1  0.31264288  0.06478020  0.56163237  1
  Zn  Zn120  1  0.31158663  0.56200874  0.06244801  1
  Zn  Zn121  1  0.31405206  0.57499982  0.57023889  1
  Zn  Zn122  1  0.81283718  0.06119962  0.06447731  1
  Zn  Zn123  1  0.81037253  0.05493908  0.56512408  1
  Zn  Zn124  1  0.81073656  0.56172492  0.06561281  1
  Zn  Zn125  1  0.78804331  0.55498318  0.55165198  1
  Zn  Zn126  1  0.42458272  0.40014795  0.20432534  1
  Zn  Zn127  1  0.43930463  0.43782303  0.68611518  1
  Zn  Zn128  1  0.43866264  0.92704028  0.18548317  1
  Zn  Zn129  1  0.42610058  0.93768009  0.68311489  1
  Zn  Zn130  1  0.93954086  0.43602992  0.18658562  1
  Zn  Zn131  1  0.93106201  0.43989989  0.68446514  1
  Zn  Zn132  1  0.93568463  0.94138466  0.18828655  1
  Zn  Zn133  1  0.89603103  0.95260093  0.67581688  1
  Zn  Zn134  1  0.06857771  0.06383423  0.31382636  1
  Zn  Zn135  1  0.06137692  0.06517007  0.80663264  1
  Zn  Zn136  1  0.06018831  0.55732604  0.31430845  1
  Zn  Zn137  1  0.06019428  0.56562293  0.80884763  1
  Zn  Zn138  1  0.45504739  0.05350617  0.31044067  1
  Zn  Zn139  1  0.57191170  0.04392569  0.80846588  1
  Zn  Zn140  1  0.56553392  0.56702110  0.31970394  1
  Zn  Zn141  1  0.56580147  0.55579066  0.81648029  1
  Zn  Zn142  1  0.44807768  0.19358632  0.45287161  1
  Zn  Zn143  1  0.43664290  0.18174094  0.94305348  1
  Zn  Zn144  1  0.44751724  0.68196536  0.42205360  1
  Zn  Zn145  1  0.43910884  0.68787167  0.93835687  1
  Zn  Zn146  1  0.93935062  0.18068769  0.43596207  1
  Zn  Zn147  1  0.93719662  0.18853220  0.94003419  1
  Zn  Zn148  1  0.93507780  0.68217150  0.43580527  1
  Zn  Zn149  1  0.93877379  0.68917754  0.93570950  1
  Zn  Zn150  1  0.06371457  0.31320795  0.05881683  1
  Zn  Zn151  1  0.06136636  0.30651294  0.55738770  1
  Zn  Zn152  1  0.06729526  0.81299145  0.05802136  1
  Zn  Zn153  1  0.05931915  0.81220134  0.55240434  1
  Zn  Zn154  1  0.56430897  0.31452082  0.06031065  1
  Zn  Zn155  1  0.56211680  0.31165216  0.56989204  1
  Zn  Zn156  1  0.56180387  0.81077551  0.06006637  1
  Zn  Zn157  1  0.56550774  0.80506424  0.56349656  1
  O  O158  1  0.12234188  0.11331654  0.12096925  1
  O  O159  1  0.10314344  0.12562589  0.63893744  1
  O  O160  1  0.11991883  0.62984848  0.11411573  1
  O  O161  1  0.12294593  0.61295722  0.61183533  1
  O  O162  1  0.61658140  0.11601387  0.11632830  1
  O  O163  1  0.61768850  0.13205605  0.61333889  1
  O  O164  1  0.62729059  0.61422163  0.11719839  1
  O  O165  1  0.60025784  0.62655713  0.62212967  1
  O  O166  1  0.38984523  0.37176556  0.39244601  1
  O  O167  1  0.37937551  0.38247264  0.88271727  1
  O  O168  1  0.38740121  0.86267407  0.38126280  1
  O  O169  1  0.38517480  0.88417089  0.87222073  1
  O  O170  1  0.86283023  0.38980553  0.37304334  1
  O  O171  1  0.88250094  0.38469547  0.88660201  1
  O  O172  1  0.87511866  0.88990742  0.37067592  1
  O  O173  1  0.88608169  0.88409243  0.87895562  1
  O  O174  1  0.24511566  -0.00340415  0.37357901  1
  O  O175  1  0.25480261  0.00575936  0.87073530  1
  O  O176  1  0.24153492  0.50721270  0.36377249  1
  O  O177  1  0.25513147  0.50457959  0.86922169  1
  O  O178  1  0.75537754  0.00518858  0.36350613  1
  O  O179  1  0.76417921  -0.00331598  0.88859534  1
  O  O180  1  0.76387262  0.51333848  0.37821140  1
  O  O181  1  0.76024809  0.49278942  0.86840984  1
  O  O182  1  0.24378570  0.49320927  0.13159967  1
  O  O183  1  0.24190026  0.50243925  0.63458128  1
  O  O184  1  0.23971733  0.98771568  0.11623007  1
  O  O185  1  0.25385399  1.01069426  0.64425896  1
  O  O186  1  0.73682660  0.48868285  0.11815672  1
  O  O187  1  0.76357216  0.47805486  0.64246539  1
  O  O188  1  0.74397754  0.99230188  0.13019780  1
  O  O189  1  0.79090078  0.98946180  0.64990907  1
  O  O190  1  0.01167264  0.36810982  0.24450783  1
  O  O191  1  -0.01175103  0.36981461  0.76264112  1
  O  O192  1  0.00160781  0.86500357  0.24481674  1
  O  O193  1  -0.00679957  0.86586119  0.76040275  1
  O  O194  1  0.51653605  0.38158317  0.27106123  1
  O  O195  1  0.51116028  0.38351720  0.76145447  1
  O  O196  1  0.49860396  0.86575638  0.26867573  1
  O  O197  1  0.49919316  0.88305889  0.76168305  1
  O  O198  1  0.50532662  0.12792043  0.23173685  1
  O  O199  1  0.50889032  0.11133112  0.73562589  1
  O  O200  1  0.48729427  0.64320325  0.29082083  1
  O  O201  1  0.49510161  0.62488622  0.75743333  1
  O  O202  1  0.99626697  0.13353524  0.24366906  1
  O  O203  1  0.98794285  0.13762902  0.74877349  1
  O  O204  1  1.00465387  0.63025262  0.23556352  1
  O  O205  1  0.98834055  0.63090277  0.74480939  1
  O  O206  1  0.36337203  0.26001119  -0.00758773  1
  O  O207  1  0.38116535  0.25877925  0.51907496  1
  O  O208  1  0.36305284  0.74209688  0.00697588  1
  O  O209  1  0.38805376  0.74616155  0.50549525  1
  O  O210  1  0.86719573  0.26177264  -0.00189268  1
  O  O211  1  0.87733032  0.24662407  0.51142418  1
  O  O212  1  0.86889188  0.74953661  0.00883038  1
  O  O213  1  0.87085463  0.76336348  0.48752173  1
  O  O214  1  0.12776890  0.22718402  0.51677118  1
  O  O215  1  0.13397736  0.24483025  0.99190414  1
  O  O216  1  0.11291331  0.73420395  0.48360210  1
  O  O217  1  0.13248682  0.74228672  0.98811006  1
  O  O218  1  0.62445479  0.24449254  0.49424012  1
  O  O219  1  0.62933007  0.23743638  0.99769574  1
  O  O220  1  0.64681919  0.76207117  0.49021000  1
  O  O221  1  0.63172932  0.74075699  1.00154500  1
  O  O222  1  0.50084303  0.23594189  0.11395492  1
  O  O223  1  0.49501007  0.23246436  0.62430184  1
  O  O224  1  0.48473125  0.75833002  0.12654121  1
  O  O225  1  0.49678985  0.74535531  0.63455639  1
  O  O226  1  1.00574175  0.23625797  0.12522282  1
  O  O227  1  0.98696059  0.24947100  0.63480390  1
  O  O228  1  0.99723146  0.74735436  0.12973517  1
  O  O229  1  1.01270604  0.74807402  0.63746162  1
  O  O230  1  -0.00289454  0.24940561  0.36453127  1
  O  O231  1  0.00336434  0.25870243  0.87202820  1
  O  O232  1  0.00758000  0.74581463  0.35903856  1
  O  O233  1  0.00704320  0.75635770  0.86695283  1
  O  O234  1  0.51705436  0.26299214  0.37894297  1
  O  O235  1  0.49718423  0.26242053  0.88338384  1
  O  O236  1  0.52403388  0.76943537  0.39318439  1
  O  O237  1  0.49613604  0.76075687  0.86570158  1
  O  O238  1  0.25651253  0.12955686  0.48432365  1
  O  O239  1  0.24789685  0.13088385  0.99149459  1
  O  O240  1  0.23580504  0.60993400  0.48555470  1
  O  O241  1  0.24171833  0.63047140  0.98978595  1
  O  O242  1  0.73826994  0.11886762  0.50290246  1
  O  O243  1  0.74122780  0.13027443  1.00553143  1
  O  O244  1  0.76913384  0.64967197  0.48223181  1
  O  O245  1  0.74235308  0.63573774  1.00736202  1
  O  O246  1  0.25372926  0.36936884  0.00177957  1
  O  O247  1  0.26424574  0.37353992  0.49919683  1
  O  O248  1  0.24477711  0.86252839  0.00380482  1
  O  O249  1  0.20411071  0.87940618  0.54504110  1
  O  O250  1  0.75422964  0.36908674  0.00721358  1
  O  O251  1  0.74664719  0.37381769  0.51691931  1
  O  O252  1  0.75199867  0.86477469  0.01481793  1
  O  O253  1  0.76824639  0.86531736  0.49970703  1
  O  O254  1  0.12672291  0.48532908  0.24816039  1
  O  O255  1  0.12968267  0.50464184  0.73958374  1
  O  O256  1  0.12455772  1.00197895  0.23463085  1
  O  O257  1  0.13779155  1.00061783  0.74928605  1
  O  O258  1  0.62056911  0.49530838  0.23997109  1
  O  O259  1  0.63703131  0.48756591  0.75780927  1
  O  O260  1  0.63609385  1.00559520  0.23684396  1
  O  O261  1  0.64428893  0.99227264  0.72707155  1
  O  O262  1  0.37766355  -0.00698911  0.25257366  1
  O  O263  1  0.36398786  0.00646279  0.76048737  1
  O  O264  1  0.35897761  0.49208833  0.24456774  1
  O  O265  1  0.36573868  0.49317399  0.76248322  1
  O  O266  1  0.86892520  0.00862436  0.25672255  1
  O  O267  1  0.88730654  0.01482920  0.77145466  1
  O  O268  1  0.88543513  0.50111609  0.26292557  1
  O  O269  1  0.86816740  0.50688974  0.75909233  1
  O  O270  1  0.12784074  0.37300246  0.36491670  1
  O  O271  1  0.10936177  0.37210288  0.88288331  1
  O  O272  1  0.13529772  0.85697965  0.38636347  1
  O  O273  1  0.11757881  0.86379439  0.87777264  1
  O  O274  1  0.62473990  0.36928735  0.37733691  1
  O  O275  1  0.61523053  0.37250680  0.87252164  1
  O  O276  1  0.63725082  0.87114626  0.37059227  1
  O  O277  1  0.61047620  0.87368496  0.87610945  1
  O  O278  1  0.38858762  0.12196120  0.11882135  1
  O  O279  1  0.38730935  0.13360483  0.62649851  1
  O  O280  1  0.36868134  0.63585902  0.12846114  1
  O  O281  1  0.40187667  0.63237558  0.61626835  1
  O  O282  1  0.88874645  0.11415869  0.13536537  1
  O  O283  1  0.88127756  0.13982656  0.63567493  1
  O  O284  1  0.88431130  0.63454860  0.12490048  1
  O  O285  1  0.87013315  0.61361922  0.63360534  1
  O  O286  1  0.24246831  0.25738380  0.11076789  1
  O  O287  1  0.26418967  0.24606939  0.63076764  1
  O  O288  1  0.25191188  0.75859756  0.11640597  1
  O  O289  1  0.27427561  0.72693899  0.62275205  1
  O  O290  1  0.74037330  0.26116221  0.11361273  1
  O  O291  1  0.76424790  0.25701344  0.62873148  1
  O  O292  1  0.75792223  0.75465421  0.12281195  1
  O  O293  1  0.74758354  0.74303793  0.61239930  1
  O  O294  1  0.24004348  0.22920973  0.33917226  1
  O  O295  1  0.24646451  0.24474795  0.88071436  1
  O  O296  1  0.22981608  0.72890914  0.36747331  1
  O  O297  1  0.24688695  0.74408939  0.87559666  1
  O  O298  1  0.73579064  0.24680935  0.37409134  1
  O  O299  1  0.74546093  0.24758810  0.89266586  1
  O  O300  1  0.74535976  0.74806872  0.37580278  1
  O  O301  1  0.74719429  0.76283156  0.89108721  1
  O  O302  1  0.00552952  0.11767748  0.00636147  1
  O  O303  1  -0.00537914  0.12746652  0.52024407  1
  O  O304  1  0.00789895  0.62566345  0.00688943  1
  O  O305  1  0.00526683  0.61435357  0.50072048  1
  O  O306  1  0.50710204  0.11236127  0.00689751  1
  O  O307  1  0.51242851  0.11139210  0.51005768  1
  O  O308  1  0.50709327  0.61385466  -0.00243548  1
  O  O309  1  0.50640349  0.61097866  0.49057534  1
  O  O310  1  0.49624573  0.37302496  0.49691605  1
  O  O311  1  0.49181960  0.38219856  0.99413411  1
  O  O312  1  0.50995501  0.88809476  0.50120711  1
  O  O313  1  0.50287475  0.88425499  0.99006470  1
  O  O314  1  0.99837599  0.38477429  0.50121240  1
  O  O315  1  0.99117751  0.38061419  0.99495198  1
  O  O316  1  0.99036328  0.87235836  0.48527435  1
  O  O317  1  1.00074034  0.88304541  0.99056903  1
  O  O318  1  0.51459191  0.48496784  0.38509772  1
  O  O319  1  0.49184922  0.49072270  0.88514298  1
  O  O320  1  0.50339954  0.98207948  0.38909758  1
  O  O321  1  0.49478571  0.99049780  0.88034321  1
  O  O322  1  0.98830655  0.49929589  0.38668838  1
  O  O323  1  0.99167030  0.49624370  0.87907047  1
  O  O324  1  0.98900273  1.00260539  0.36825200  1
  O  O325  1  0.99922914  0.99516725  0.88298885  1
  O  O326  1  0.01196730  0.00382278  0.11815218  1
  O  O327  1  -0.00732239  0.01532735  0.63762725  1
  O  O328  1  0.00095150  0.51150708  0.11744651  1
  O  O329  1  0.00324844  0.49927020  0.61489436  1
  O  O330  1  0.50607055  -0.00087503  0.11803552  1
  O  O331  1  0.49266598  0.01047380  0.61489715  1
  O  O332  1  0.50599120  0.49008417  0.11467868  1
  O  O333  1  0.50089397  0.49991464  0.61623974  1
  O  O334  1  0.23476389  0.37997021  0.24259298  1
  O  O335  1  0.24851273  0.38509047  0.74844198  1
  O  O336  1  0.24698150  0.86987098  0.23212175  1
  O  O337  1  0.25201845  0.88767374  0.75368662  1
  O  O338  1  0.74093340  0.37085500  0.23823283  1
  O  O339  1  0.74266266  0.37938964  0.75216229  1
  O  O340  1  0.75874951  0.88533904  0.23857286  1
  O  O341  1  0.63817893  0.91322651  0.70860141  1
  O  O342  1  0.25502834  0.16952993  0.28026314  1
  O  O343  1  0.24844170  0.12252478  0.76492032  1
  O  O344  1  0.24474833  0.61213384  0.25807643  1
  O  O345  1  0.24510407  0.61427556  0.76325612  1
  O  O346  1  0.75886600  0.11777674  0.24480863  1
  O  O347  1  0.76191380  0.13386102  0.75562008  1
  O  O348  1  0.75751791  0.63203937  0.26489735  1
  O  O349  1  0.75327834  0.61171049  0.74346550  1
  O  O350  1  0.40103952  0.14279728  0.36241363  1
  O  O351  1  0.36784745  0.11655436  0.87458028  1
  O  O352  1  0.35316819  0.62821826  0.37617530  1
  O  O353  1  0.36486338  0.61399575  0.88284168  1
  O  O354  1  0.87391814  0.11436858  0.36552742  1
  O  O355  1  0.87217563  0.11953127  0.87443181  1
  O  O356  1  0.87092065  0.61529020  0.36913772  1
  O  O357  1  0.87787963  0.61572520  0.86842822  1
  O  O358  1  0.13509612  0.37930814  0.12103305  1
  O  O359  1  0.12699656  0.38749067  0.61523203  1
  O  O360  1  0.13331044  0.88501055  0.12028623  1
  O  O361  1  0.14161463  0.88223630  0.59819341  1
  O  O362  1  0.62781635  0.38117751  0.13365003  1
  O  O363  1  0.64045499  0.36387407  0.63679097  1
  O  O364  1  0.63339114  0.88168308  0.12203774  1
  O  O365  1  0.63654002  0.89735305  0.63271550  1
  O  O366  1  0.11406916  0.26465211  0.24322556  1
  O  O367  1  0.10897716  0.24952097  0.75668440  1
  O  O368  1  0.11477819  0.74948608  0.25781427  1
  O  O369  1  0.11765445  0.73832400  0.75953175  1
  O  O370  1  0.62513167  0.26030582  0.26206490  1
  O  O371  1  0.63040951  0.26117926  0.75699813  1
  O  O372  1  0.62740260  0.74792357  0.26697169  1
  O  O373  1  0.60519527  0.74360357  0.75198240  1
  O  O374  1  0.38676931  0.29503342  0.23590854  1
  O  O375  1  0.38103253  0.24872924  0.73655602  1
  O  O376  1  0.36923226  0.74851942  0.23149086  1
  O  O377  1  0.39391695  0.74864247  0.74592994  1
  O  O378  1  0.88137413  0.23852828  0.25284538  1
  O  O379  1  0.88359712  0.24487609  0.75528197  1
  O  O380  1  0.89036855  0.74872895  0.24034641  1
  O  O381  1  0.88293785  0.73854388  0.75120967  1
  O  O382  1  0.37159077  0.48596255  0.51049504  1
  O  O383  1  0.37880561  0.49355870  0.99098165  1
  O  O384  1  0.38777059  1.00121442  0.49868147  1
  O  O385  1  0.38460352  1.00373952  0.98828944  1
  O  O386  1  0.88401717  0.50137082  0.49400705  1
  O  O387  1  0.87801305  0.49587296  0.99375868  1
  O  O388  1  0.87190664  0.98938756  0.48428673  1
  O  O389  1  0.88880666  1.00103061  0.99619464  1
  O  O390  1  0.11740227  0.00490469  0.00393598  1
  O  O391  1  0.13064275  0.03254955  0.51529053  1
  O  O392  1  0.11901961  0.51334608  -0.00223512  1
  O  O393  1  0.11065052  0.50322987  0.50385296  1
  O  O394  1  0.61815099  0.00448151  0.01008288  1
  O  O395  1  0.62268431  0.01018859  0.49713451  1
  O  O396  1  0.61686633  0.50466475  0.00788748  1
  O  O397  1  0.68102139  0.52369814  0.51724865  1
  O  O398  1  0.35959923  0.38445205  0.10683941  1
  O  O399  1  0.37529626  0.36470867  0.61908307  1
  O  O400  1  0.36028717  0.86471638  0.11996702  1
  O  O401  1  0.37834703  0.85485146  0.62393344  1
  O  O402  1  0.86490888  0.38472911  0.11371992  1
  O  O403  1  0.86610334  0.36068968  0.62970383  1
  O  O404  1  0.86898363  0.86648758  0.12285046  1
  O  O405  1  0.89403419  0.86486847  0.60658152  1
  O  O406  1  0.12216339  0.13094520  0.38499882  1
  O  O407  1  0.13191754  0.13163267  0.87983116  1
  O  O408  1  0.12591943  0.62384181  0.38133924  1
  O  O409  1  0.13079084  0.63245890  0.88144774  1
  O  O410  1  0.62427727  0.13753766  0.39158681  1
  O  O411  1  0.62514921  0.11648509  0.88618762  1
  O  O412  1  0.64579916  0.62995396  0.37773830  1
  O  O413  1  0.62486555  0.62506368  0.89123640  1
