# generated using pymatgen
data_V79Zn79O256
_symmetry_space_group_name_H-M   'P 1'
_cell_length_a   16.91595816
_cell_length_b   16.93935874
_cell_length_c   16.92018601
_cell_angle_alpha   89.93082082
_cell_angle_beta   90.08772356
_cell_angle_gamma   89.98691287
_symmetry_Int_Tables_number   1
_chemical_formula_structural   V79Zn79O256
_chemical_formula_sum   'V79 Zn79 O256'
_cell_volume   4848.39353995
_cell_formula_units_Z   1
loop_
 _symmetry_equiv_pos_site_id
 _symmetry_equiv_pos_as_xyz
  1  'x, y, z'
loop_
 _atom_site_type_symbol
 _atom_site_label
 _atom_site_symmetry_multiplicity
 _atom_site_fract_x
 _atom_site_fract_y
 _atom_site_fract_z
 _atom_site_occupancy
  V  V0  1  0.37564964  0.38276897  -0.00903089  1
  V  V1  1  0.36863554  0.00288771  0.37809953  1
  V  V2  1  0.87974101  -0.00298339  0.38439970  1
  V  V3  1  0.50637076  0.75479152  0.75566770  1
  V  V4  1  0.50660834  0.36564075  0.87340086  1
  V  V5  1  -0.00799649  0.87346721  0.87985063  1
  V  V6  1  0.88038177  0.49138732  0.88342506  1
  V  V7  1  0.25489197  0.62612802  0.37769817  1
  V  V8  1  0.74683893  0.73886205  0.49861085  1
  V  V9  1  0.25012630  0.62262650  0.87452973  1
  V  V10  1  0.75511498  0.51641730  0.24877088  1
  V  V11  1  0.25348600  0.50090317  0.25288183  1
  V  V12  1  0.12001946  0.25354523  0.87387223  1
  V  V13  1  0.50967949  -0.00085197  0.00086772  1
  V  V14  1  0.12125222  0.75010033  0.87409011  1
  V  V15  1  -0.00609150  -0.00329591  0.00404669  1
  V  V16  1  0.12784972  0.74982723  0.37221923  1
  V  V17  1  0.25214599  0.12699978  0.86839049  1
  V  V18  1  0.87342237  0.75956432  0.61707486  1
  V  V19  1  0.75007547  0.11838223  0.37315272  1
  V  V20  1  0.63968422  0.37515450  0.24779345  1
  V  V21  1  0.24668761  0.87674464  0.12769862  1
  V  V22  1  0.37615094  0.87654493  -0.00542179  1
  V  V23  1  0.37185104  0.00520968  0.87460201  1
  V  V24  1  0.87289095  0.12810924  0.74251015  1
  V  V25  1  0.74409725  0.00341242  0.74661030  1
  V  V26  1  0.37698961  0.74962560  0.12457678  1
  V  V27  1  0.37568579  0.62029963  0.75188435  1
  V  V28  1  0.51366491  0.61935953  0.62042690  1
  V  V29  1  0.50806887  0.88037977  0.37903022  1
  V  V30  1  0.00491558  0.13210274  0.13048904  1
  V  V31  1  0.62282248  0.37748666  0.73812369  1
  V  V32  1  0.87097282  0.50962535  0.37409395  1
  V  V33  1  0.62396368  0.24971229  0.37794852  1
  V  V34  1  -0.01557768  0.74812416  0.24823259  1
  V  V35  1  0.86946681  0.62346935  0.74898355  1
  V  V36  1  0.37211527  0.86886729  0.49728167  1
  V  V37  1  0.36966549  0.74402338  0.61962409  1
  V  V38  1  0.37168496  0.36879723  0.50463708  1
  V  V39  1  0.12316363  0.50250286  0.12385848  1
  V  V40  1  0.49202669  0.38294148  0.37370860  1
  V  V41  1  -0.01093314  0.62652779  0.12944433  1
  V  V42  1  0.11902322  0.37621219  0.75090971  1
  V  V43  1  0.24777325  0.25326167  -0.00110081  1
  V  V44  1  -0.00567819  0.87483040  0.38566294  1
  V  V45  1  -0.00213531  0.25070236  0.73574026  1
  V  V46  1  0.25393732  0.49871716  0.75257248  1
  V  V47  1  0.50999073  0.62172549  0.12286748  1
  V  V48  1  0.50689637  0.11978203  0.12179210  1
  V  V49  1  0.13834737  0.11585506  0.50164573  1
  V  V50  1  0.75417348  0.24874776  0.50962154  1
  V  V51  1  0.50752539  0.50058390  0.50163703  1
  V  V52  1  0.13856496  0.24681055  0.38313131  1
  V  V53  1  0.49901163  0.25289908  0.24737824  1
  V  V54  1  -0.00106181  0.62638407  0.62378051  1
  V  V55  1  0.87213785  0.00332693  0.87193711  1
  V  V56  1  0.75148753  0.38578462  0.62451434  1
  V  V57  1  0.73641457  0.88244857  0.61749116  1
  V  V58  1  0.50538280  0.75473356  0.25194988  1
  V  V59  1  0.00018752  0.50057507  0.49849105  1
  V  V60  1  0.61357886  0.11436592  0.51290126  1
  V  V61  1  0.36657778  0.12406191  0.25121421  1
  V  V62  1  0.74337287  0.62981812  0.88909797  1
  V  V63  1  0.37872734  0.61992910  0.25383082  1
  V  V64  1  -0.00105044  0.37129831  0.37517086  1
  V  V65  1  0.13236889  0.62809218  0.49919625  1
  V  V66  1  0.00161277  0.10395567  0.61586112  1
  V  V67  1  0.37408806  0.25080360  0.12268998  1
  V  V68  1  0.12576583  0.50093934  0.62445460  1
  V  V69  1  0.24995461  0.74905184  -0.00064399  1
  V  V70  1  0.25297033  0.36175960  0.62337281  1
  V  V71  1  0.86971261  0.12463065  0.24162677  1
  V  V72  1  0.49118188  0.24176041  0.73339566  1
  V  V73  1  -0.00255777  0.75112020  0.75045413  1
  V  V74  1  0.11782762  0.62288734  0.00157874  1
  V  V75  1  0.62635834  0.73538349  0.38299780  1
  V  V76  1  0.50520511  0.50598816  -0.01058188  1
  V  V77  1  0.24489035  0.87605382  0.62668528  1
  V  V78  1  0.25082321  0.37769532  0.12402463  1
  Zn  Zn79  1  0.12552932  0.37202830  0.25112701  1
  Zn  Zn80  1  0.73975159  0.50660548  0.74650601  1
  Zn  Zn81  1  0.24374022  0.00245218  0.25191952  1
  Zn  Zn82  1  0.76433291  0.77346135  0.02648732  1
  Zn  Zn83  1  0.12003355  0.87673799  0.25042242  1
  Zn  Zn84  1  0.11992209  0.88379137  0.74644620  1
  Zn  Zn85  1  0.61906104  0.88461065  0.75931684  1
  Zn  Zn86  1  0.24639047  0.00621085  0.74533186  1
  Zn  Zn87  1  0.81932844  0.30883060  0.04397542  1
  Zn  Zn88  1  0.12307306  -0.00279088  0.12782638  1
  Zn  Zn89  1  0.62724453  0.75440965  0.89819881  1
  Zn  Zn90  1  -0.00223798  0.25296097  0.25190671  1
  Zn  Zn91  1  0.63750607  0.49794233  0.11236548  1
  Zn  Zn92  1  0.12818394  0.12116045  0.00170340  1
  Zn  Zn93  1  0.87967398  0.36941503  0.50570320  1
  Zn  Zn94  1  0.18352405  0.19248190  0.19142836  1
  Zn  Zn95  1  0.18191034  0.18227795  0.68495470  1
  Zn  Zn96  1  0.18650647  0.68989014  0.18896806  1
  Zn  Zn97  1  0.18718165  0.69027951  0.68862482  1
  Zn  Zn98  1  0.68707435  0.18654632  0.18953988  1
  Zn  Zn99  1  0.67867727  0.19070827  0.69211899  1
  Zn  Zn100  1  0.68381425  0.68908136  0.19357691  1
  Zn  Zn101  1  0.68958850  0.69178894  0.68479319  1
  Zn  Zn102  1  0.31459243  0.31415296  0.31253308  1
  Zn  Zn103  1  0.31412711  0.31123920  0.81025966  1
  Zn  Zn104  1  0.31582312  0.80984944  0.31133661  1
  Zn  Zn105  1  0.31414809  0.80891071  0.81030254  1
  Zn  Zn106  1  0.81850224  0.30717150  0.31892479  1
  Zn  Zn107  1  0.85607260  0.28461943  0.86276616  1
  Zn  Zn108  1  0.80747129  0.81250130  0.31288351  1
  Zn  Zn109  1  0.80541109  0.81562394  0.80977621  1
  Zn  Zn110  1  0.18888542  0.43787602  0.43665957  1
  Zn  Zn111  1  0.18408612  0.43892583  0.93645892  1
  Zn  Zn112  1  0.18706374  0.93234717  0.43958236  1
  Zn  Zn113  1  0.18201247  0.93882493  0.93694545  1
  Zn  Zn114  1  0.68763980  0.43848847  0.43609433  1
  Zn  Zn115  1  0.68767540  0.44172004  0.92406047  1
  Zn  Zn116  1  0.68899626  0.93820724  0.43867817  1
  Zn  Zn117  1  0.69001896  0.93903131  0.93620349  1
  Zn  Zn118  1  0.31300549  0.06390723  0.06079216  1
  Zn  Zn119  1  0.31411951  0.05557156  0.55768279  1
  Zn  Zn120  1  0.31570015  0.56361623  0.06343726  1
  Zn  Zn121  1  0.32003239  0.55122259  0.56147152  1
  Zn  Zn122  1  0.83449814  0.12248572  0.02447825  1
  Zn  Zn123  1  0.81133066  0.06523261  0.56249018  1
  Zn  Zn124  1  0.81308718  0.55832402  0.06119885  1
  Zn  Zn125  1  0.81319312  0.56377170  0.55914867  1
  Zn  Zn126  1  0.44155757  0.43825108  0.18197910  1
  Zn  Zn127  1  0.43840079  0.43591116  0.68495634  1
  Zn  Zn128  1  0.43394908  0.93758635  0.18830935  1
  Zn  Zn129  1  0.42625699  0.93260269  0.69097840  1
  Zn  Zn130  1  0.93710740  0.43830451  0.18701591  1
  Zn  Zn131  1  0.93313978  0.43786235  0.68888138  1
  Zn  Zn132  1  0.93285714  0.94375333  0.19481539  1
  Zn  Zn133  1  0.93356497  0.93567486  0.68840994  1
  Zn  Zn134  1  0.06519034  0.06116606  0.31710887  1
  Zn  Zn135  1  0.06363647  0.06282507  0.80956006  1
  Zn  Zn136  1  0.06223880  0.56206091  0.31073939  1
  Zn  Zn137  1  0.05809574  0.56104311  0.81354246  1
  Zn  Zn138  1  0.55268121  0.06883364  0.31910412  1
  Zn  Zn139  1  0.55882885  0.06468229  0.81764167  1
  Zn  Zn140  1  0.56574124  0.55956231  0.31292850  1
  Zn  Zn141  1  0.56608463  0.56356784  0.80998856  1
  Zn  Zn142  1  0.43489464  0.18923243  0.43994245  1
  Zn  Zn143  1  0.43725369  0.18801027  0.93760997  1
  Zn  Zn144  1  0.44017937  0.68633522  0.43880973  1
  Zn  Zn145  1  0.43656999  0.68677422  0.93456427  1
  Zn  Zn146  1  0.93930485  0.18443887  0.43822593  1
  Zn  Zn147  1  0.95554337  0.17824072  0.93051360  1
  Zn  Zn148  1  0.93760395  0.68985295  0.43817562  1
  Zn  Zn149  1  0.92339943  0.69070387  0.94065359  1
  Zn  Zn150  1  0.05786817  0.31854225  0.06108203  1
  Zn  Zn151  1  0.06754427  0.31117131  0.55985200  1
  Zn  Zn152  1  0.05647307  0.81030380  0.06167170  1
  Zn  Zn153  1  0.06313455  0.81015118  0.56029551  1
  Zn  Zn154  1  0.56579150  0.31697689  0.06238501  1
  Zn  Zn155  1  0.56064166  0.30920787  0.56123776  1
  Zn  Zn156  1  0.56120770  0.80850999  0.05479269  1
  Zn  Zn157  1  0.55893599  0.81046423  0.56345324  1
  O  O158  1  0.11517649  0.12086398  0.12726567  1
  O  O159  1  0.11308433  0.12593634  0.61248769  1
  O  O160  1  0.12382867  0.62012347  0.11836102  1
  O  O161  1  0.12189385  0.62280516  0.61717946  1
  O  O162  1  0.60460497  0.12456411  0.13807580  1
  O  O163  1  0.62659128  0.12696928  0.61165724  1
  O  O164  1  0.61421263  0.62167118  0.13190705  1
  O  O165  1  0.61176545  0.62843102  0.62582818  1
  O  O166  1  0.38419076  0.37345967  0.38362180  1
  O  O167  1  0.38301720  0.37457148  0.88550267  1
  O  O168  1  0.38169711  0.87782278  0.38021740  1
  O  O169  1  0.36781560  0.88042356  0.88920629  1
  O  O170  1  0.88522895  0.38112675  0.38041596  1
  O  O171  1  0.85805399  0.39425877  0.86138916  1
  O  O172  1  0.87591005  0.88959288  0.36640383  1
  O  O173  1  0.88398843  0.88600250  0.86718398  1
  O  O174  1  0.26572559  -0.01011628  0.37122510  1
  O  O175  1  0.25559461  0.01191676  0.88349670  1
  O  O176  1  0.24427842  0.51169573  0.36232264  1
  O  O177  1  0.24283946  0.50555278  0.86053119  1
  O  O178  1  0.75860027  0.01074173  0.37673889  1
  O  O179  1  0.76375864  -0.00158359  0.86485719  1
  O  O180  1  0.76381489  0.49458554  0.36852432  1
  O  O181  1  0.75544701  0.51579991  0.86658487  1
  O  O182  1  0.24347096  0.49891529  0.13255603  1
  O  O183  1  0.24428790  0.49403694  0.63549474  1
  O  O184  1  0.24887238  0.98870469  0.12390700  1
  O  O185  1  0.26251150  0.98033479  0.62866128  1
  O  O186  1  0.75142646  0.50276794  0.14265360  1
  O  O187  1  0.74775655  0.48882257  0.61951578  1
  O  O188  1  0.79617209  0.93722127  0.08900286  1
  O  O189  1  0.75369586  0.98819989  0.62843360  1
  O  O190  1  0.00274079  0.37495281  0.26095594  1
  O  O191  1  0.01185471  0.36910944  0.74027480  1
  O  O192  1  -0.00320862  0.86120660  0.25471404  1
  O  O193  1  -0.00073773  0.86812771  0.75878886  1
  O  O194  1  0.50443891  0.37287764  0.25733528  1
  O  O195  1  0.50483870  0.36940268  0.75282541  1
  O  O196  1  0.48969466  0.86243146  0.26197086  1
  O  O197  1  0.49938087  0.85922400  0.74140396  1
  O  O198  1  0.48780215  0.13044958  0.24186159  1
  O  O199  1  0.51163622  0.14509183  0.75806584  1
  O  O200  1  0.49566637  0.62896864  0.24482205  1
  O  O201  1  0.49332707  0.62911983  0.73926465  1
  O  O202  1  0.99390057  0.12225882  0.24063741  1
  O  O203  1  0.99818555  0.12983151  0.73306629  1
  O  O204  1  1.00540403  0.63692402  0.24147614  1
  O  O205  1  0.99127102  0.63139649  0.74334369  1
  O  O206  1  0.36841757  0.26094340  0.00395853  1
  O  O207  1  0.37795722  0.26848010  0.49673504  1
  O  O208  1  0.37285779  0.75686856  0.00362319  1
  O  O209  1  0.37849570  0.75536915  0.50797579  1
  O  O210  1  0.85740127  0.23099755  -0.03504936  1
  O  O211  1  0.85691791  0.24939494  0.49310457  1
  O  O212  1  0.86985872  0.74756093  0.01708768  1
  O  O213  1  0.86478898  0.74574011  0.50749617  1
  O  O214  1  0.12574946  0.24261541  0.48931039  1
  O  O215  1  0.12768388  0.25911598  0.98851210  1
  O  O216  1  0.12047303  0.73621342  0.48743568  1
  O  O217  1  0.12937547  0.74056521  0.99518804  1
  O  O218  1  0.63231352  0.24395681  0.49085838  1
  O  O219  1  0.66010887  0.29852602  0.99687077  1
  O  O220  1  0.62805118  0.75331295  0.48919034  1
  O  O221  1  0.65095537  0.76403404  1.01302682  1
  O  O222  1  0.49584540  0.24207008  0.12507303  1
  O  O223  1  0.49632929  0.24967871  0.63276289  1
  O  O224  1  0.49904327  0.74472880  0.13234882  1
  O  O225  1  0.49070837  0.73678366  0.62977527  1
  O  O226  1  1.00663348  0.23449284  0.12798309  1
  O  O227  1  1.00224568  0.24760826  0.63298090  1
  O  O228  1  1.00227366  0.74087428  0.13903065  1
  O  O229  1  0.99172435  0.74676265  0.62765620  1
  O  O230  1  0.00486877  0.26078140  0.37887183  1
  O  O231  1  0.01279706  0.24797255  0.85991077  1
  O  O232  1  0.00511738  0.75304233  0.36499234  1
  O  O233  1  -0.00104376  0.75522811  0.87192250  1
  O  O234  1  0.50754488  0.25845669  0.36817084  1
  O  O235  1  0.50127190  0.26292002  0.87782921  1
  O  O236  1  0.50887084  0.75694259  0.37258259  1
  O  O237  1  0.50492560  0.74231749  0.85998627  1
  O  O238  1  0.23859757  0.12612074  0.51309897  1
  O  O239  1  0.24656779  0.13612083  0.99405741  1
  O  O240  1  0.24342757  0.61372250  0.49066096  1
  O  O241  1  0.24425809  0.62918438  0.99549650  1
  O  O242  1  0.74138008  0.13535313  0.49404499  1
  O  O243  1  0.73646790  0.16528337  1.06110505  1
  O  O244  1  0.74500894  0.63906698  0.50669018  1
  O  O245  1  0.74808106  0.62212106  0.98983532  1
  O  O246  1  0.25724146  0.37490517  0.00298907  1
  O  O247  1  0.26339773  0.38538466  0.50749399  1
  O  O248  1  0.25597119  0.86874799  0.00704589  1
  O  O249  1  0.26142948  0.87499498  0.51049024  1
  O  O250  1  0.71824231  0.35882301  0.00460283  1
  O  O251  1  0.74511682  0.36377891  0.50790529  1
  O  O252  1  0.75178500  0.89627166  0.03156117  1
  O  O253  1  0.74497552  0.86871051  0.51301329  1
  O  O254  1  0.13690034  0.50143168  0.24137722  1
  O  O255  1  0.13019763  0.49411691  0.74492874  1
  O  O256  1  0.12783484  0.99402298  0.24896486  1
  O  O257  1  0.13357076  0.99494254  0.75689371  1
  O  O258  1  0.64324573  0.48848992  0.26093551  1
  O  O259  1  0.62151978  0.48603789  0.74576190  1
  O  O260  1  0.63851402  1.00353287  0.25230302  1
  O  O261  1  0.63894567  1.00562823  0.76093091  1
  O  O262  1  0.37250876  0.00692380  0.25873467  1
  O  O263  1  0.36824188  -0.00989012  0.77146444  1
  O  O264  1  0.36719639  0.51044868  0.24095094  1
  O  O265  1  0.36513509  0.50808392  0.74336531  1
  O  O266  1  0.87446675  0.01744807  0.26189477  1
  O  O267  1  0.86562332  0.00705854  0.75163133  1
  O  O268  1  0.86358315  0.49312014  0.25989961  1
  O  O269  1  0.87036302  0.51397382  0.74934396  1
  O  O270  1  0.11806819  0.36602021  0.37763191  1
  O  O271  1  0.13145540  0.36736887  0.86118694  1
  O  O272  1  0.11617461  0.86428968  0.37634814  1
  O  O273  1  0.11125291  0.86570281  0.87736055  1
  O  O274  1  0.61856610  0.36612620  0.36696810  1
  O  O275  1  0.61505291  0.38058031  0.85651362  1
  O  O276  1  0.61034224  0.87347140  0.37856934  1
  O  O277  1  0.64479577  0.86323366  0.86816583  1
  O  O278  1  0.38101225  0.13172168  0.13213899  1
  O  O279  1  0.40884449  0.08559921  0.62653813  1
  O  O280  1  0.38589521  0.63050259  0.13329879  1
  O  O281  1  0.37626397  0.62908766  0.63369832  1
  O  O282  1  0.88763217  0.12146881  0.13571118  1
  O  O283  1  0.88960912  0.12048679  0.63070954  1
  O  O284  1  0.89137627  0.61599394  0.12517732  1
  O  O285  1  0.87907457  0.63388096  0.62926721  1
  O  O286  1  0.25230091  0.25832451  0.11982890  1
  O  O287  1  0.24406505  0.26316106  0.62984426  1
  O  O288  1  0.25679491  0.75432508  0.11925377  1
  O  O289  1  0.26228868  0.75640934  0.62892550  1
  O  O290  1  0.76128021  0.23010693  0.11237403  1
  O  O291  1  0.74504829  0.25570831  0.61201730  1
  O  O292  1  0.74817220  0.77874590  0.16106849  1
  O  O293  1  0.75342949  0.76155367  0.61726187  1
  O  O294  1  0.23770860  0.25512032  0.37366520  1
  O  O295  1  0.24227318  0.24599517  0.87825881  1
  O  O296  1  0.24208188  0.73722935  0.36854484  1
  O  O297  1  0.24330302  0.74313716  0.87923251  1
  O  O298  1  0.74076124  0.24222372  0.38326168  1
  O  O299  1  0.68472271  0.17971936  0.87463869  1
  O  O300  1  0.73394740  0.75792481  0.38269331  1
  O  O301  1  0.75766277  0.73383106  0.87426156  1
  O  O302  1  0.00411486  0.11860824  0.01510067  1
  O  O303  1  0.00303209  0.12563682  0.51315102  1
  O  O304  1  0.01071409  0.63391815  0.01610885  1
  O  O305  1  0.01018254  0.62045684  0.50359308  1
  O  O306  1  0.49635637  0.11689692  0.01329523  1
  O  O307  1  0.51543954  0.13001882  0.49157231  1
  O  O308  1  0.49313370  0.61380778  0.00646323  1
  O  O309  1  0.49413203  0.61812867  0.51360788  1
  O  O310  1  0.49276885  0.37881493  0.49351981  1
  O  O311  1  0.49504993  0.38489247  0.99338989  1
  O  O312  1  0.48973726  0.86986173  0.48699470  1
  O  O313  1  0.48993255  0.88879759  1.01276404  1
  O  O314  1  1.00050153  0.38245496  0.49433274  1
  O  O315  1  0.96202936  0.37594641  1.03536370  1
  O  O316  1  0.99625388  0.86425149  0.48498983  1
  O  O317  1  0.99729753  0.88332611  0.99232137  1
  O  O318  1  0.50330353  0.48926657  0.37922983  1
  O  O319  1  0.50039410  0.49740911  0.88584554  1
  O  O320  1  0.48987880  0.98454308  0.36581952  1
  O  O321  1  0.48970963  1.01070527  0.89329628  1
  O  O322  1  0.99302549  0.49266385  0.37664225  1
  O  O323  1  0.98168632  0.50183842  0.87059548  1
  O  O324  1  0.98807389  0.99040904  0.37173381  1
  O  O325  1  0.99380629  0.99182171  0.88141444  1
  O  O326  1  -0.00145811  0.00553378  0.11803981  1
  O  O327  1  0.00039047  0.00463646  0.62396926  1
  O  O328  1  0.01313346  0.51626572  0.13870180  1
  O  O329  1  0.00503353  0.50614428  0.61960833  1
  O  O330  1  0.49168414  0.01106784  0.11708041  1
  O  O331  1  0.46227748  0.02959724  0.62913534  1
  O  O332  1  0.50591385  0.50790803  0.11560523  1
  O  O333  1  0.49815688  0.51357169  0.62122240  1
  O  O334  1  0.25196423  0.38601124  0.24377284  1
  O  O335  1  0.24388743  0.38158844  0.74339532  1
  O  O336  1  0.25214327  0.87199522  0.23700241  1
  O  O337  1  0.25045424  0.87025603  0.73557063  1
  O  O338  1  0.74126207  0.36845966  0.25293016  1
  O  O339  1  0.73558216  0.37493569  0.73266358  1
  O  O340  1  0.74760060  0.83877149  0.21445260  1
  O  O341  1  0.74916587  0.88521992  0.73455568  1
  O  O342  1  0.26302648  0.12549877  0.24481675  1
  O  O343  1  0.24655550  0.12759257  0.76366512  1
  O  O344  1  0.25927451  0.62015504  0.25500888  1
  O  O345  1  0.25541448  0.61797405  0.75270482  1
  O  O346  1  0.76121533  0.12998364  0.25845441  1
  O  O347  1  0.76175740  0.11840986  0.73473408  1
  O  O348  1  0.74812990  0.61466893  0.25539583  1
  O  O349  1  0.75839638  0.62640427  0.74815053  1
  O  O350  1  0.38265463  0.11034292  0.36879101  1
  O  O351  1  0.36359070  0.11794938  0.88395295  1
  O  O352  1  0.36890558  0.63141232  0.36440519  1
  O  O353  1  0.36749230  0.63018238  0.86002472  1
  O  O354  1  0.87012046  0.11618984  0.36951502  1
  O  O355  1  0.89201431  0.11163322  0.85270514  1
  O  O356  1  0.88202616  0.60857609  0.37567272  1
  O  O357  1  0.86575497  0.61745305  0.86607216  1
  O  O358  1  0.13060362  0.38665970  0.12524539  1
  O  O359  1  0.13339257  0.38111360  0.63112260  1
  O  O360  1  0.13532027  0.87106233  0.12489553  1
  O  O361  1  0.14152758  0.86600620  0.62081417  1
  O  O362  1  0.61870436  0.38104462  0.14636798  1
  O  O363  1  0.63082768  0.37433068  0.62909311  1
  O  O364  1  0.62280522  0.95168507  0.20098323  1
  O  O365  1  0.63357395  0.87331042  0.62941649  1
  O  O366  1  0.11922619  0.25153390  0.26641018  1
  O  O367  1  0.11802947  0.25790252  0.75320658  1
  O  O368  1  0.11846006  0.75096885  0.26185521  1
  O  O369  1  0.11527752  0.75055297  0.75670437  1
  O  O370  1  0.62154526  0.25976047  0.25686638  1
  O  O371  1  0.61195845  0.26766921  0.74578623  1
  O  O372  1  0.61305213  0.74658498  0.26701965  1
  O  O373  1  0.60854401  0.74926131  0.74308456  1
  O  O374  1  0.37932025  0.24433449  0.24475496  1
  O  O375  1  0.39164525  0.25404263  0.75376274  1
  O  O376  1  0.38552561  0.73890966  0.24556943  1
  O  O377  1  0.38528973  0.74087139  0.74170301  1
  O  O378  1  0.88131802  0.23105356  0.25926322  1
  O  O379  1  0.88636978  0.23955033  0.76090286  1
  O  O380  1  0.88629731  0.74494295  0.25840375  1
  O  O381  1  0.87768635  0.74241769  0.73978747  1
  O  O382  1  0.39163419  0.48589870  0.50104427  1
  O  O383  1  0.38700309  0.49102147  1.00692632  1
  O  O384  1  0.37618053  0.98913283  0.48368886  1
  O  O385  1  0.37955633  0.99247666  0.99463026  1
  O  O386  1  0.87958760  0.49769394  0.48809450  1
  O  O387  1  0.86668758  0.49735207  0.98324639  1
  O  O388  1  0.87241272  1.00586889  0.48365056  1
  O  O389  1  0.88441895  1.02462497  0.98440540  1
  O  O390  1  0.10843811  0.00192097  0.00215840  1
  O  O391  1  0.12770570  0.01681639  0.48769175  1
  O  O392  1  0.12992327  0.51044627  0.01060298  1
  O  O393  1  0.12078680  0.50936432  0.50372234  1
  O  O394  1  0.60862727  -0.00414990  -0.00140797  1
  O  O395  1  0.62828886  0.01606949  0.49451857  1
  O  O396  1  0.60987254  0.49491249  -0.00102274  1
  O  O397  1  0.60876012  0.49320397  0.49578059  1
  O  O398  1  0.37122869  0.37020390  0.11591898  1
  O  O399  1  0.36790835  0.37729763  0.61404818  1
  O  O400  1  0.36746992  0.86922928  0.11668500  1
  O  O401  1  0.37075536  0.86323010  0.61584972  1
  O  O402  1  0.90452857  0.36722862  0.09904859  1
  O  O403  1  0.85774500  0.37664469  0.62338199  1
  O  O404  1  0.85765703  0.89313655  0.11301819  1
  O  O405  1  0.86529338  0.86339918  0.62793190  1
  O  O406  1  0.11928054  0.13801607  0.38709968  1
  O  O407  1  0.13090367  0.13796670  0.87813970  1
  O  O408  1  0.13253294  0.62979046  0.38014831  1
  O  O409  1  0.12700539  0.62812373  0.88354965  1
  O  O410  1  0.63174689  0.13408406  0.37314226  1
  O  O411  1  0.63460028  0.13350071  0.90395159  1
  O  O412  1  0.62005715  0.63660757  0.37985623  1
  O  O413  1  0.63927888  0.63122661  0.86932118  1
