# generated using pymatgen
data_V79Zn79O256
_symmetry_space_group_name_H-M   'P 1'
_cell_length_a   16.86368853
_cell_length_b   16.87808191
_cell_length_c   16.87169114
_cell_angle_alpha   90.00841721
_cell_angle_beta   89.92485152
_cell_angle_gamma   90.05978720
_symmetry_Int_Tables_number   1
_chemical_formula_structural   V79Zn79O256
_chemical_formula_sum   'V79 Zn79 O256'
_cell_volume   4802.12725164
_cell_formula_units_Z   1
loop_
 _symmetry_equiv_pos_site_id
 _symmetry_equiv_pos_as_xyz
  1  'x, y, z'
loop_
 _atom_site_type_symbol
 _atom_site_label
 _atom_site_symmetry_multiplicity
 _atom_site_fract_x
 _atom_site_fract_y
 _atom_site_fract_z
 _atom_site_occupancy
  V  V0  1  0.25565488  0.62398920  0.35393720  1
  V  V1  1  0.75774651  0.26104585  -0.00583115  1
  V  V2  1  0.50633928  0.12946185  0.62540371  1
  V  V3  1  0.00170960  0.61825042  0.12206743  1
  V  V4  1  0.37992369  0.37575539  0.49411446  1
  V  V5  1  0.38409570  0.50064809  0.88184085  1
  V  V6  1  0.38050186  0.74202747  0.13843968  1
  V  V7  1  0.12035507  0.12532599  0.50373309  1
  V  V8  1  0.87422810  0.74969657  0.12761538  1
  V  V9  1  0.12184367  -0.00322749  0.62304210  1
  V  V10  1  0.12358510  0.24587160  0.87502380  1
  V  V11  1  0.87028606  0.87536934  0.00090210  1
  V  V12  1  0.87691306  0.49599265  0.87698697  1
  V  V13  1  0.74284323  0.87470133  0.63731741  1
  V  V14  1  0.38258720  0.50559330  0.36058720  1
  V  V15  1  0.51160642  0.24872445  0.74994922  1
  V  V16  1  0.50582150  0.86979233  0.87110890  1
  V  V17  1  0.37175023  0.87403341  0.00926908  1
  V  V18  1  0.12787027  0.37229305  0.74504351  1
  V  V19  1  0.38106762  0.37742942  0.00115179  1
  V  V20  1  0.12655147  0.87405458  0.75283776  1
  V  V21  1  0.13415932  0.89208575  0.23668274  1
  V  V22  1  0.25252011  0.87446354  0.62563502  1
  V  V23  1  0.62605120  -0.00793867  0.63847517  1
  V  V24  1  0.87111653  0.11416997  0.75454973  1
  V  V25  1  0.89082453  0.38672634  0.48992536  1
  V  V26  1  0.50552705  0.01006026  0.50029168  1
  V  V27  1  0.74721407  0.61586035  0.37218966  1
  V  V28  1  0.26081362  0.36904603  0.62683432  1
  V  V29  1  0.50192230  0.25516364  0.25617804  1
  V  V30  1  0.74542400  0.74504431  0.49825444  1
  V  V31  1  0.49809669  0.50288706  0.51470110  1
  V  V32  1  0.50181986  -0.00062533  -0.00057853  1
  V  V33  1  -0.00245395  0.00009889  0.49977530  1
  V  V34  1  0.87640161  0.74746086  0.62861065  1
  V  V35  1  0.62964699  0.13343152  -0.00822111  1
  V  V36  1  0.50763239  0.37104862  0.87688530  1
  V  V37  1  0.86007147  0.01008450  0.37236266  1
  V  V38  1  0.49913251  0.12419120  0.12314696  1
  V  V39  1  0.37756880  0.13059763  0.74633338  1
  V  V40  1  0.50773909  0.62321578  0.12536222  1
  V  V41  1  0.38034215  0.87847577  0.49646893  1
  V  V42  1  0.25723769  0.24878513  0.50271380  1
  V  V43  1  0.37194652  0.25112771  0.12644407  1
  V  V44  1  0.75160571  0.49050575  0.24555466  1
  V  V45  1  0.12826837  0.61517153  0.00313727  1
  V  V46  1  0.25206570  0.74618917  0.49405705  1
  V  V47  1  0.11616652  0.26127704  0.36664954  1
  V  V48  1  0.25296892  0.75197925  0.00440220  1
  V  V49  1  0.36814369  0.11820168  0.24752303  1
  V  V50  1  0.87034296  0.25933847  0.13231936  1
  V  V51  1  0.74867901  0.38637038  0.62320440  1
  V  V52  1  0.74228075  0.61755886  0.87523482  1
  V  V53  1  0.62266731  0.61419513  0.51432566  1
  V  V54  1  0.62424364  0.49711830  0.11169556  1
  V  V55  1  -0.00761645  0.12417573  0.14086713  1
  V  V56  1  0.74093243  0.74734739  0.00082900  1
  V  V57  1  0.38013759  0.00004347  0.37349353  1
  V  V58  1  0.12201389  0.11875212  0.00742341  1
  V  V59  1  0.87426120  0.87465599  0.49942405  1
  V  V60  1  -0.00028507  0.74698342  0.75388090  1
  V  V61  1  0.24752893  0.24879793  -0.00018888  1
  V  V62  1  0.23512324  0.38645004  0.13456164  1
  V  V63  1  0.37543829  0.73649903  0.62130500  1
  V  V64  1  0.87754234  0.24498477  0.62463521  1
  V  V65  1  0.00093803  0.24182333  0.74330409  1
  V  V66  1  0.50730393  0.74763776  0.73675922  1
  V  V67  1  0.25310865  0.49492785  0.75153909  1
  V  V68  1  -0.00463468  0.37326035  0.87739820  1
  V  V69  1  0.87144861  0.62063412  0.75096852  1
  V  V70  1  0.12222426  0.75374195  0.37183755  1
  V  V71  1  -0.00495264  0.00111538  0.00412026  1
  V  V72  1  0.37352240  -0.00066062  0.87258286  1
  V  V73  1  0.74560026  0.23876875  0.49786921  1
  V  V74  1  -0.00500040  0.88059148  0.87704778  1
  V  V75  1  0.25150743  0.62396752  0.87750851  1
  V  V76  1  0.24767858  0.11957119  0.37223543  1
  V  V77  1  0.63134863  0.38782287  0.74621837  1
  V  V78  1  0.63840707  -0.00717557  0.13252703  1
  Zn  Zn79  1  0.24859221  0.12273218  0.87382251  1
  Zn  Zn80  1  0.75298334  0.11312974  0.87030160  1
  Zn  Zn81  1  0.08220499  0.55448463  0.57527165  1
  Zn  Zn82  1  0.00375328  0.75514113  0.24071305  1
  Zn  Zn83  1  0.37965373  0.61897039  0.74197878  1
  Zn  Zn84  1  0.24954310  0.00128116  0.75040501  1
  Zn  Zn85  1  0.62273926  0.74684296  0.87110021  1
  Zn  Zn86  1  0.12638094  0.75074502  0.87826937  1
  Zn  Zn87  1  -0.00758995  0.87470796  0.36815521  1
  Zn  Zn88  1  0.63493241  0.24935483  0.37557111  1
  Zn  Zn89  1  0.55599295  0.83190078  0.33655294  1
  Zn  Zn90  1  0.84198349  0.12613923  0.26028113  1
  Zn  Zn91  1  0.61338376  0.38537065  0.25783751  1
  Zn  Zn92  1  0.88101060  0.62352977  0.26358515  1
  Zn  Zn93  1  0.00209794  0.49158818  0.00031176  1
  Zn  Zn94  1  0.18273490  0.18725814  0.18760894  1
  Zn  Zn95  1  0.19085782  0.18474839  0.68556755  1
  Zn  Zn96  1  0.18627642  0.69581189  0.18463801  1
  Zn  Zn97  1  0.18958384  0.68013105  0.69163188  1
  Zn  Zn98  1  0.68373656  0.19240599  0.17628710  1
  Zn  Zn99  1  0.68995344  0.18848837  0.68326474  1
  Zn  Zn100  1  0.68614413  0.67861390  0.18252473  1
  Zn  Zn101  1  0.68882270  0.68288849  0.68523963  1
  Zn  Zn102  1  0.30614408  0.31464922  0.31621356  1
  Zn  Zn103  1  0.31852878  0.30814046  0.81573801  1
  Zn  Zn104  1  0.30872854  0.82228560  0.30812162  1
  Zn  Zn105  1  0.31980447  0.81004818  0.81179819  1
  Zn  Zn106  1  0.81911567  0.31593968  0.31734251  1
  Zn  Zn107  1  0.81028871  0.30571979  0.81188471  1
  Zn  Zn108  1  0.75785615  0.84635540  0.34023478  1
  Zn  Zn109  1  0.81030942  0.81219276  0.81881483  1
  Zn  Zn110  1  0.18181229  0.44538434  0.43452840  1
  Zn  Zn111  1  0.18896647  0.43304221  0.93626294  1
  Zn  Zn112  1  0.18762666  0.93367150  0.43269140  1
  Zn  Zn113  1  0.18556324  0.93784287  0.94430235  1
  Zn  Zn114  1  0.68514363  0.43107922  0.43453386  1
  Zn  Zn115  1  0.68917571  0.43645659  0.93201662  1
  Zn  Zn116  1  0.68364097  0.94680391  0.45340680  1
  Zn  Zn117  1  0.68830557  0.93768015  0.94017770  1
  Zn  Zn118  1  0.30909459  0.05730312  0.06426173  1
  Zn  Zn119  1  0.31358218  0.06439942  0.56371057  1
  Zn  Zn120  1  0.31584584  0.56390799  0.07023368  1
  Zn  Zn121  1  0.28179718  0.54706739  0.54487374  1
  Zn  Zn122  1  0.81386382  0.06433085  0.06421094  1
  Zn  Zn123  1  0.81164238  0.06113043  0.57092485  1
  Zn  Zn124  1  0.81224089  0.56046810  0.05987081  1
  Zn  Zn125  1  0.81570700  0.56303842  0.56291325  1
  Zn  Zn126  1  0.43877615  0.43932903  0.18222678  1
  Zn  Zn127  1  0.43715916  0.43329496  0.68942788  1
  Zn  Zn128  1  0.44710346  0.93262129  0.19348797  1
  Zn  Zn129  1  0.44184261  0.93543433  0.68686027  1
  Zn  Zn130  1  0.93639906  0.44323212  0.19114234  1
  Zn  Zn131  1  0.93762265  0.43692603  0.67345073  1
  Zn  Zn132  1  0.93552902  0.93737502  0.19255886  1
  Zn  Zn133  1  0.93758604  0.93067376  0.68535346  1
  Zn  Zn134  1  0.05823307  0.06221483  0.31972255  1
  Zn  Zn135  1  0.05905555  0.06076331  0.81417901  1
  Zn  Zn136  1  0.06140257  0.57422374  0.32006512  1
  Zn  Zn137  1  0.04185844  0.53877832  0.76825897  1
  Zn  Zn138  1  0.56947639  0.06493219  0.31027563  1
  Zn  Zn139  1  0.56651828  0.05927845  0.81336814  1
  Zn  Zn140  1  0.56551600  0.57177484  0.31107935  1
  Zn  Zn141  1  0.55942381  0.56303718  0.80682020  1
  Zn  Zn142  1  0.43848679  0.18645156  0.43516613  1
  Zn  Zn143  1  0.43827354  0.18956919  0.93434534  1
  Zn  Zn144  1  0.44305614  0.68714181  0.42403194  1
  Zn  Zn145  1  0.44332956  0.68615685  0.94226609  1
  Zn  Zn146  1  0.93512674  0.19257757  0.43945189  1
  Zn  Zn147  1  0.93449568  0.18770818  0.93695805  1
  Zn  Zn148  1  0.93512663  0.68240348  0.44082471  1
  Zn  Zn149  1  0.93635252  0.68588463  0.93816069  1
  Zn  Zn150  1  0.05675170  0.30648247  0.06731662  1
  Zn  Zn151  1  0.06751199  0.31426823  0.55993466  1
  Zn  Zn152  1  0.06370706  0.81010992  0.06090434  1
  Zn  Zn153  1  0.08227790  0.76366756  0.57926529  1
  Zn  Zn154  1  0.56716424  0.31523875  0.06728272  1
  Zn  Zn155  1  0.56428988  0.31332734  0.56111505  1
  Zn  Zn156  1  0.55910224  0.81425305  0.07204459  1
  Zn  Zn157  1  0.55225412  0.80236376  0.53034240  1
  O  O158  1  0.10620069  0.13624783  0.11582206  1
  O  O159  1  0.13369706  0.11074459  0.61412311  1
  O  O160  1  0.11256972  0.63267741  0.11698554  1
  O  O161  1  0.11512395  0.65877106  0.61352874  1
  O  O162  1  0.61280306  0.11737239  0.11401783  1
  O  O163  1  0.61546621  0.11145953  0.63379090  1
  O  O164  1  0.61801139  0.61508834  0.11911289  1
  O  O165  1  0.63692245  0.60818134  0.61400686  1
  O  O166  1  0.36235279  0.39308881  0.38475738  1
  O  O167  1  0.38392965  0.38011378  0.88258622  1
  O  O168  1  0.36940418  0.88956427  0.38365696  1
  O  O169  1  0.38380759  0.88203618  0.88301892  1
  O  O170  1  0.88248770  0.37660719  0.38958377  1
  O  O171  1  0.88391561  0.38315893  0.86066520  1
  O  O172  1  0.86254141  0.88571884  0.38511319  1
  O  O173  1  0.88481889  0.86942376  0.88622851  1
  O  O174  1  0.26134882  0.01251223  0.38301233  1
  O  O175  1  0.26162390  -0.00041847  0.87583855  1
  O  O176  1  0.25917997  0.51930471  0.37356494  1
  O  O177  1  0.26359816  0.50189853  0.87156039  1
  O  O178  1  0.76239822  0.00846512  0.39340386  1
  O  O179  1  0.74068639  0.00259318  0.86988906  1
  O  O180  1  0.74730263  0.50768242  0.36310507  1
  O  O181  1  0.75787171  0.51149854  0.87643247  1
  O  O182  1  0.25100717  0.48557691  0.12145093  1
  O  O183  1  0.26411506  0.48659743  0.64586120  1
  O  O184  1  0.23426164  1.00185770  0.12012151  1
  O  O185  1  0.24123379  0.98964921  0.62259167  1
  O  O186  1  0.73692560  0.51055458  0.13373532  1
  O  O187  1  0.75577853  0.48478968  0.62865363  1
  O  O188  1  0.73809444  1.01041430  0.13035839  1
  O  O189  1  0.73424265  0.99186191  0.62156454  1
  O  O190  1  0.02194890  0.42195882  0.27122889  1
  O  O191  1  0.01203445  0.36296214  0.75699876  1
  O  O192  1  0.00573530  0.87049424  0.25389253  1
  O  O193  1  0.00295859  0.86878512  0.75987486  1
  O  O194  1  0.48626649  0.35680308  0.25030920  1
  O  O195  1  0.51091534  0.36818128  0.75314365  1
  O  O196  1  0.50551571  0.85616906  0.24328670  1
  O  O197  1  0.49163875  0.85923243  0.75884350  1
  O  O198  1  0.49009107  0.13225819  0.23725077  1
  O  O199  1  0.49760730  0.13088056  0.74673183  1
  O  O200  1  0.51148776  0.63331726  0.23175726  1
  O  O201  1  0.49498761  0.64079964  0.75213328  1
  O  O202  1  1.00008472  0.12323089  0.24013271  1
  O  O203  1  0.99459094  0.13522962  0.75177738  1
  O  O204  1  0.99975210  0.62902481  0.23547814  1
  O  O205  1  0.98877000  0.64168710  0.76242568  1
  O  O206  1  0.36779489  0.25444002  0.00611628  1
  O  O207  1  0.36684187  0.26064862  0.48577066  1
  O  O208  1  0.37007834  0.75744523  0.00507641  1
  O  O209  1  0.37097938  0.76229175  0.50460356  1
  O  O210  1  0.86414140  0.24239069  0.01154232  1
  O  O211  1  0.87062108  0.26193374  0.50952781  1
  O  O212  1  0.86936132  0.75719168  0.00422828  1
  O  O213  1  0.87075553  0.75344223  0.51038667  1
  O  O214  1  0.13571456  0.24080758  0.49749733  1
  O  O215  1  0.12998696  0.24072994  0.99534456  1
  O  O216  1  0.13954624  0.76673084  0.48044038  1
  O  O217  1  0.13749871  0.74135080  0.99882052  1
  O  O218  1  0.63976036  0.25033873  0.50045441  1
  O  O219  1  0.63604445  0.23993058  1.01025200  1
  O  O220  1  0.63886649  0.72850103  0.51939317  1
  O  O221  1  0.63938866  0.75201769  1.00544875  1
  O  O222  1  0.48740094  0.24279261  0.12671969  1
  O  O223  1  0.50597966  0.23985829  0.63355526  1
  O  O224  1  0.48814445  0.74199530  0.12154195  1
  O  O225  1  0.49149468  0.75714359  0.63068327  1
  O  O226  1  0.98209056  0.23409277  0.11773148  1
  O  O227  1  0.99338398  0.25772415  0.63489905  1
  O  O228  1  0.98908894  0.73941466  0.11850413  1
  O  O229  1  0.98462966  0.76455904  0.63964487  1
  O  O230  1  0.01695956  0.24871839  0.38394270  1
  O  O231  1  0.00370197  0.25445861  0.86645254  1
  O  O232  1  0.01497966  0.74440757  0.37723943  1
  O  O233  1  0.00156006  0.76099576  0.87089208  1
  O  O234  1  0.51018719  0.23161022  0.35803643  1
  O  O235  1  0.49762420  0.26225828  0.86653010  1
  O  O236  1  0.51561149  0.76853563  0.42030927  1
  O  O237  1  0.50043547  0.75368735  0.86567465  1
  O  O238  1  0.24564366  0.13076331  0.49423110  1
  O  O239  1  0.24194349  0.13488335  1.00055707  1
  O  O240  1  0.26004571  0.64502602  0.48561715  1
  O  O241  1  0.24799484  0.62967303  0.99709665  1
  O  O242  1  0.75673016  0.13988908  0.50859219  1
  O  O243  1  0.73595895  0.12602384  0.99937230  1
  O  O244  1  0.74289049  0.62268713  0.49465470  1
  O  O245  1  0.75660982  0.63449572  0.98368440  1
  O  O246  1  0.25795326  0.36405807  0.00648000  1
  O  O247  1  0.25986820  0.36638905  0.50950032  1
  O  O248  1  0.25958875  0.86380093  -0.00708785  1
  O  O249  1  0.26069639  0.87166302  0.50555784  1
  O  O250  1  0.75024037  0.36049247  -0.00784758  1
  O  O251  1  0.75547481  0.37105151  0.51387853  1
  O  O252  1  0.75864809  0.85854168  -0.00670639  1
  O  O253  1  0.75741290  0.86443331  0.51205509  1
  O  O254  1  0.08361057  0.46993432  0.26504976  1
  O  O255  1  0.14436921  0.48282120  0.76495688  1
  O  O256  1  0.11722327  0.99067386  0.25554815  1
  O  O257  1  0.12432246  0.99392694  0.74023185  1
  O  O258  1  0.63720465  0.50274297  0.24426945  1
  O  O259  1  0.62268235  0.48696202  0.74620417  1
  O  O260  1  0.60953603  0.99679383  0.22948701  1
  O  O261  1  0.61633138  0.99013606  0.73800131  1
  O  O262  1  0.38457834  0.01032229  0.25777712  1
  O  O263  1  0.37854225  0.00585630  0.76000119  1
  O  O264  1  0.37980384  0.49682743  0.26197415  1
  O  O265  1  0.37204322  0.49831169  0.76342607  1
  O  O266  1  0.86755481  0.00086198  0.26746577  1
  O  O267  1  0.88282102  0.01609040  0.73591953  1
  O  O268  1  0.85659932  0.51166675  0.23768019  1
  O  O269  1  0.87919055  0.51407653  0.75685097  1
  O  O270  1  0.13672736  0.36001724  0.38109498  1
  O  O271  1  0.12132628  0.36417232  0.86583125  1
  O  O272  1  0.12319624  0.86685333  0.36417160  1
  O  O273  1  0.11596523  0.87488459  0.87155712  1
  O  O274  1  0.62756398  0.36327833  0.36710911  1
  O  O275  1  0.61802161  0.37894899  0.86107445  1
  O  O276  1  0.65240137  0.87558595  0.37455608  1
  O  O277  1  0.60882185  0.87055681  0.88486616  1
  O  O278  1  0.37862729  0.13163301  0.12763368  1
  O  O279  1  0.38751115  0.11444661  0.63868749  1
  O  O280  1  0.38339865  0.63473910  0.13001434  1
  O  O281  1  0.36283557  0.63588229  0.61788887  1
  O  O282  1  0.87970856  0.12792343  0.13716381  1
  O  O283  1  0.87516699  0.13832499  0.63291341  1
  O  O284  1  0.88937484  0.63330816  0.11384460  1
  O  O285  1  0.86795044  0.63752875  0.63552882  1
  O  O286  1  0.25724479  0.25209839  0.11770964  1
  O  O287  1  0.25238237  0.25342343  0.61350532  1
  O  O288  1  0.26549054  0.74256363  0.11262595  1
  O  O289  1  0.25706110  0.75959587  0.61672233  1
  O  O290  1  0.76113703  0.24636328  0.11174581  1
  O  O291  1  0.75842375  0.25792442  0.61710665  1
  O  O292  1  0.76480174  0.73120131  0.10778807  1
  O  O293  1  0.75904849  0.75408018  0.62081808  1
  O  O294  1  0.24401352  0.23832887  0.38410946  1
  O  O295  1  0.24547957  0.24867044  0.88556877  1
  O  O296  1  0.24798381  0.74658123  0.37531164  1
  O  O297  1  0.25685708  0.73978904  0.88341337  1
  O  O298  1  0.75992500  0.25415358  0.39551414  1
  O  O299  1  0.75862453  0.23727132  0.89068528  1
  O  O300  1  0.75200841  0.73836351  0.39367207  1
  O  O301  1  0.74497891  0.74076166  0.88422422  1
  O  O302  1  0.00282327  0.11652776  0.00296389  1
  O  O303  1  0.01076665  0.11464950  0.49852776  1
  O  O304  1  0.01124922  0.62428697  0.00491627  1
  O  O305  1  0.00758273  0.59456788  0.47797956  1
  O  O306  1  0.50455909  0.12208738  0.00487227  1
  O  O307  1  0.48949364  0.12124736  0.51422891  1
  O  O308  1  0.49635138  0.62535396  0.01986610  1
  O  O309  1  0.51244007  0.61449840  0.50189229  1
  O  O310  1  0.49080406  0.38618922  0.50502813  1
  O  O311  1  0.49094987  0.36459132  0.99188384  1
  O  O312  1  0.48622426  0.89677049  0.51071034  1
  O  O313  1  0.49126302  0.88282039  0.99359539  1
  O  O314  1  0.99064011  0.37912495  0.51115064  1
  O  O315  1  1.00763051  0.37225126  0.98216390  1
  O  O316  1  0.98231391  0.88020147  0.49358163  1
  O  O317  1  0.99398732  0.88173588  0.99608030  1
  O  O318  1  0.48570179  0.51085081  0.38155988  1
  O  O319  1  0.49252309  0.48839531  0.87019378  1
  O  O320  1  0.49188970  1.01749932  0.38542161  1
  O  O321  1  0.49378961  0.99316954  0.88198061  1
  O  O322  1  1.00788183  0.53844303  0.41769803  1
  O  O323  1  0.99445157  0.48911578  0.86767383  1
  O  O324  1  0.98702650  0.99674746  0.38834379  1
  O  O325  1  1.00046130  0.98949963  0.88599307  1
  O  O326  1  -0.00945790  0.01450862  0.11777091  1
  O  O327  1  0.01328777  -0.01362034  0.61256432  1
  O  O328  1  -0.00544828  0.51419118  0.11833664  1
  O  O329  1  0.02011958  0.50776333  0.65833456  1
  O  O330  1  0.49480088  0.00943838  0.11278279  1
  O  O331  1  0.50807772  0.00732128  0.62173135  1
  O  O332  1  0.51074617  0.51029466  0.12868321  1
  O  O333  1  0.49221858  0.50266506  0.61436667  1
  O  O334  1  0.25341337  0.36844231  0.23243444  1
  O  O335  1  0.24983363  0.37264633  0.74698160  1
  O  O336  1  0.23507462  0.88216129  0.24891164  1
  O  O337  1  0.24806376  0.87543865  0.74183823  1
  O  O338  1  0.75441095  0.38983854  0.25100375  1
  O  O339  1  0.73776536  0.36779042  0.74289630  1
  O  O340  1  0.72145775  0.82918795  0.22819263  1
  O  O341  1  0.75000298  0.86476694  0.73699208  1
  O  O342  1  0.25896007  0.12964608  0.25738722  1
  O  O343  1  0.26162156  0.12212773  0.75238613  1
  O  O344  1  0.25171758  0.62873946  0.25461000  1
  O  O345  1  0.25493762  0.61413692  0.75962089  1
  O  O346  1  0.71742929  0.13113664  0.26888862  1
  O  O347  1  0.76644883  0.13217582  0.74935743  1
  O  O348  1  0.74591622  0.62402478  0.26477269  1
  O  O349  1  0.76018982  0.63550473  0.76496982  1
  O  O350  1  0.36699539  0.11979640  0.36667709  1
  O  O351  1  0.37703686  0.11543999  0.86781882  1
  O  O352  1  0.36763764  0.61951202  0.37227137  1
  O  O353  1  0.36841587  0.61454558  0.88093684  1
  O  O354  1  0.87981025  0.11456314  0.37521829  1
  O  O355  1  0.87898276  0.12272374  0.85908263  1
  O  O356  1  0.85642620  0.62718705  0.37831712  1
  O  O357  1  0.86801850  0.61871882  0.86872859  1
  O  O358  1  0.13578470  0.36903330  0.11960120  1
  O  O359  1  0.14142292  0.36639228  0.63826438  1
  O  O360  1  0.11749647  0.87192076  0.13757984  1
  O  O361  1  0.13588075  0.87609493  0.62980255  1
  O  O362  1  0.61459474  0.39280839  0.13571019  1
  O  O363  1  0.63631819  0.37201683  0.63490734  1
  O  O364  1  0.62740723  0.89574878  0.10564694  1
  O  O365  1  0.62820920  0.88670667  0.61374589  1
  O  O366  1  0.12726904  0.24508577  0.26725024  1
  O  O367  1  0.12138251  0.25115937  0.75354673  1
  O  O368  1  0.12577801  0.76114196  0.25934822  1
  O  O369  1  0.11710579  0.75674812  0.75448808  1
  O  O370  1  0.60339395  0.25611309  0.23122245  1
  O  O371  1  0.61610391  0.25500524  0.74938788  1
  O  O372  1  0.65763443  0.78272897  0.23176885  1
  O  O373  1  0.61095551  0.74666976  0.74470924  1
  O  O374  1  0.38031833  0.23937901  0.24429595  1
  O  O375  1  0.38825178  0.23850121  0.75504775  1
  O  O376  1  0.37015747  0.75735455  0.23606147  1
  O  O377  1  0.38118993  0.74538738  0.73709194  1
  O  O378  1  0.85868365  0.24199761  0.23783369  1
  O  O379  1  0.88411405  0.24344683  0.74357903  1
  O  O380  1  0.87421430  0.74257495  0.23025196  1
  O  O381  1  0.88031205  0.74552522  0.74740794  1
  O  O382  1  0.38291235  0.49598229  0.49501754  1
  O  O383  1  0.37047875  0.48662555  0.99443009  1
  O  O384  1  0.38066086  0.99864698  0.49254771  1
  O  O385  1  0.38253139  0.99607431  0.99242494  1
  O  O386  1  0.87442286  0.48504805  0.50850287  1
  O  O387  1  0.88018851  0.50335257  0.98232379  1
  O  O388  1  0.88006868  0.99459778  0.50095771  1
  O  O389  1  0.88164750  0.98810290  1.00674615  1
  O  O390  1  0.11241708  0.00931387  -0.00060373  1
  O  O391  1  0.11891557  0.00307549  0.50279121  1
  O  O392  1  0.12536306  0.51083332  -0.00591554  1
  O  O393  1  0.17178956  0.51168250  0.52106222  1
  O  O394  1  0.61457840  0.01350339  0.00601494  1
  O  O395  1  0.61023128  0.00977099  0.51080072  1
  O  O396  1  0.63003673  0.49259550  0.01206493  1
  O  O397  1  0.60962120  0.50202175  0.49637678  1
  O  O398  1  0.37072427  0.36672490  0.11689917  1
  O  O399  1  0.36835246  0.37252922  0.61578874  1
  O  O400  1  0.38270323  0.86613408  0.11322358  1
  O  O401  1  0.36667910  0.87404279  0.61734909  1
  O  O402  1  0.88817953  0.35839470  0.13291637  1
  O  O403  1  0.86288398  0.36480762  0.62806449  1
  O  O404  1  0.87996491  0.85958451  0.11596970  1
  O  O405  1  0.86402600  0.86860789  0.61901814  1
  O  O406  1  0.13212835  0.12790714  0.38610833  1
  O  O407  1  0.12543888  0.12836084  0.88550881  1
  O  O408  1  0.14275911  0.64279052  0.36738697  1
  O  O409  1  0.14386535  0.62679306  0.88408040  1
  O  O410  1  0.66082353  0.13619979  0.33452916  1
  O  O411  1  0.61795420  0.12810410  0.89012708  1
  O  O412  1  0.63893655  0.62134394  0.39098371  1
  O  O413  1  0.63868275  0.62218044  0.86869374  1
