# generated using pymatgen
data_V79Zn79O256
_symmetry_space_group_name_H-M   'P 1'
_cell_length_a   16.88129397
_cell_length_b   16.93551522
_cell_length_c   16.91404427
_cell_angle_alpha   89.99941372
_cell_angle_beta   89.76492847
_cell_angle_gamma   90.20163748
_symmetry_Int_Tables_number   1
_chemical_formula_structural   V79Zn79O256
_chemical_formula_sum   'V79 Zn79 O256'
_cell_volume   4835.54316564
_cell_formula_units_Z   1
loop_
 _symmetry_equiv_pos_site_id
 _symmetry_equiv_pos_as_xyz
  1  'x, y, z'
loop_
 _atom_site_type_symbol
 _atom_site_label
 _atom_site_symmetry_multiplicity
 _atom_site_fract_x
 _atom_site_fract_y
 _atom_site_fract_z
 _atom_site_occupancy
  V  V0  1  0.24575704  0.62588793  0.88751614  1
  V  V1  1  -0.01419577  0.87942920  0.88138103  1
  V  V2  1  0.12451538  -0.00126897  0.61850774  1
  V  V3  1  0.12552461  0.24851995  0.87358212  1
  V  V4  1  -0.00136048  0.37850678  0.37565336  1
  V  V5  1  0.12106319  0.37725659  0.75279129  1
  V  V6  1  0.49888240  0.62759717  0.12375232  1
  V  V7  1  0.12420107  0.74707440  0.88430921  1
  V  V8  1  0.74705293  0.37895736  0.12173221  1
  V  V9  1  0.75458214  0.49768541  0.26834649  1
  V  V10  1  0.50247539  0.12432681  0.11556047  1
  V  V11  1  0.87495136  0.62171824  0.25693440  1
  V  V12  1  0.76204086  0.75777043  0.00741622  1
  V  V13  1  0.12670822  0.50824476  0.61687386  1
  V  V14  1  0.37599482  0.50710601  0.87137425  1
  V  V15  1  -0.00037731  0.24373679  0.24590942  1
  V  V16  1  0.74821929  0.37758509  0.63853388  1
  V  V17  1  0.63136937  0.87363369  0.75956318  1
  V  V18  1  0.73432455  0.00476462  0.24448713  1
  V  V19  1  -0.00327265  0.74909862  0.75041925  1
  V  V20  1  0.88211188  0.37996685  -0.00768840  1
  V  V21  1  0.25248372  0.50989150  0.75052498  1
  V  V22  1  0.25263298  0.76831911  0.00150721  1
  V  V23  1  0.24885079  0.50437700  0.24588562  1
  V  V24  1  0.63932858  0.50339877  0.62676611  1
  V  V25  1  0.25227847  0.87170028  0.61737858  1
  V  V26  1  -0.01440666  0.00357281  0.00214994  1
  V  V27  1  0.87327869  0.24933002  0.62682988  1
  V  V28  1  0.37909648  0.37750203  -0.00448546  1
  V  V29  1  0.86610690  0.12459071  0.25499005  1
  V  V30  1  0.12648796  0.87465041  0.75284295  1
  V  V31  1  0.74633426  0.88604128  0.61504233  1
  V  V32  1  0.12425807  0.00676828  0.12181475  1
  V  V33  1  0.50193702  -0.01541403  -0.00248340  1
  V  V34  1  0.64740238  0.74951393  0.37858781  1
  V  V35  1  0.00909733  0.62708725  0.12339613  1
  V  V36  1  0.49855014  0.86584898  0.38857722  1
  V  V37  1  0.87449220  0.37948588  0.49977561  1
  V  V38  1  0.50334160  0.74648168  0.76169432  1
  V  V39  1  0.74519149  0.24396163  0.49192134  1
  V  V40  1  0.25162634  0.00231991  0.75228408  1
  V  V41  1  0.62751845  0.63328717  -0.00510679  1
  V  V42  1  0.57871718  0.24996466  0.33688925  1
  V  V43  1  0.62521475  0.12213518  -0.00507794  1
  V  V44  1  0.25474884  0.37477961  0.62387305  1
  V  V45  1  0.74973060  0.62416566  0.86960836  1
  V  V46  1  0.87163464  0.00322076  0.39004534  1
  V  V47  1  0.74892978  0.24792984  -0.00771723  1
  V  V48  1  0.12524844  0.37898809  0.24470346  1
  V  V49  1  0.86501626  0.75141370  0.61420317  1
  V  V50  1  0.50188576  0.50262138  -0.00640295  1
  V  V51  1  0.75562266  0.10664249  0.87129872  1
  V  V52  1  0.00818252  0.50627578  0.49713156  1
  V  V53  1  0.38335242  0.24703555  0.64169316  1
  V  V54  1  0.24928026  -0.00686669  0.24264190  1
  V  V55  1  0.87751292  0.24586438  0.12491292  1
  V  V56  1  0.38144367  0.74935290  0.61847703  1
  V  V57  1  0.24636292  0.38113371  0.12399313  1
  V  V58  1  0.01681717  0.50311884  -0.00105961  1
  V  V59  1  0.38346085  0.12538494  0.24738899  1
  V  V60  1  0.37570897  -0.01667263  0.88204559  1
  V  V61  1  0.38067540  -0.00787601  0.38035842  1
  V  V62  1  0.49682160  0.61320510  0.62094348  1
  V  V63  1  0.87339578  0.10775985  0.75400111  1
  V  V64  1  0.00005385  0.11977651  0.62089374  1
  V  V65  1  -0.00063450  0.25304030  0.75424901  1
  V  V66  1  0.37045632  0.76640981  0.12168581  1
  V  V67  1  0.37175470  0.62550326  0.25159373  1
  V  V68  1  0.62537100  0.87824562  0.23875518  1
  V  V69  1  0.12757314  0.24857296  0.37459639  1
  V  V70  1  0.87616377  0.62025078  0.74914636  1
  V  V71  1  0.56051242  0.32832496  0.82798028  1
  V  V72  1  0.38002779  0.25078285  0.12450969  1
  V  V73  1  0.25734619  0.25267307  0.50006038  1
  V  V74  1  0.25178919  0.12228995  0.37647138  1
  V  V75  1  -0.00576345  0.88060513  0.39098557  1
  V  V76  1  0.25087880  0.24652106  -0.00107568  1
  V  V77  1  0.23609664  0.62994145  0.37881977  1
  V  V78  1  0.11505160  0.87156850  0.24679142  1
  Zn  Zn79  1  0.55956149  0.04374400  0.58748648  1
  Zn  Zn80  1  0.24085705  0.74389823  0.50392039  1
  Zn  Zn81  1  0.42180215  0.43016865  0.44353232  1
  Zn  Zn82  1  0.62705908  0.50181209  0.12415787  1
  Zn  Zn83  1  0.12024673  0.12658722  0.00235836  1
  Zn  Zn84  1  0.10991267  0.75003724  0.38359818  1
  Zn  Zn85  1  0.88044572  0.49244723  0.86475379  1
  Zn  Zn86  1  0.64114244  0.61693611  0.48699134  1
  Zn  Zn87  1  0.41532152  0.09112931  0.72935167  1
  Zn  Zn88  1  0.26145237  0.12777475  0.87087400  1
  Zn  Zn89  1  0.50101112  0.75214831  0.25184581  1
  Zn  Zn90  1  0.00649875  0.63602746  0.60931375  1
  Zn  Zn91  1  0.11982381  0.12051606  0.49625203  1
  Zn  Zn92  1  0.88123520  0.75513987  0.12924590  1
  Zn  Zn93  1  0.61773368  0.37855616  0.24686496  1
  Zn  Zn94  1  0.19124750  0.18602640  0.18757978  1
  Zn  Zn95  1  0.18933293  0.18488793  0.68519088  1
  Zn  Zn96  1  0.18544972  0.69391920  0.18443877  1
  Zn  Zn97  1  0.18775526  0.68856198  0.69120456  1
  Zn  Zn98  1  0.68412692  0.18695779  0.18440677  1
  Zn  Zn99  1  0.58430833  0.18759752  0.70643543  1
  Zn  Zn100  1  0.69121967  0.68683013  0.19345949  1
  Zn  Zn101  1  0.68469788  0.68937616  0.68754182  1
  Zn  Zn102  1  0.33126617  0.31283230  0.31188816  1
  Zn  Zn103  1  0.31199149  0.32088361  0.81369615  1
  Zn  Zn104  1  0.30998411  0.80955241  0.31069929  1
  Zn  Zn105  1  0.31764276  0.80424520  0.80633346  1
  Zn  Zn106  1  0.80955193  0.31809691  0.31315906  1
  Zn  Zn107  1  0.80799510  0.30563989  0.81323925  1
  Zn  Zn108  1  0.82824157  0.82880561  0.28541079  1
  Zn  Zn109  1  0.80467047  0.80621227  0.81297730  1
  Zn  Zn110  1  0.22533509  0.42534338  0.41934580  1
  Zn  Zn111  1  0.19053727  0.43358323  0.93486844  1
  Zn  Zn112  1  0.18866629  0.93526480  0.43429716  1
  Zn  Zn113  1  0.18222137  0.93877606  0.93647719  1
  Zn  Zn114  1  0.59669832  0.42032833  0.44201853  1
  Zn  Zn115  1  0.69639295  0.44711493  0.93855187  1
  Zn  Zn116  1  0.69135482  0.93789962  0.43411527  1
  Zn  Zn117  1  0.68704985  0.93279298  0.94049388  1
  Zn  Zn118  1  0.31440765  0.05865403  0.06016650  1
  Zn  Zn119  1  0.39760943  0.06442830  0.55687641  1
  Zn  Zn120  1  0.31100134  0.56764258  0.06287632  1
  Zn  Zn121  1  0.31597311  0.55621840  0.55965931  1
  Zn  Zn122  1  0.80865589  0.06037165  0.06799860  1
  Zn  Zn123  1  0.71466649  0.07368617  0.57473533  1
  Zn  Zn124  1  0.81809961  0.56844889  0.06511296  1
  Zn  Zn125  1  0.81768667  0.56361900  0.55493893  1
  Zn  Zn126  1  0.43414670  0.44471298  0.18595003  1
  Zn  Zn127  1  0.44060985  0.43408863  0.68845352  1
  Zn  Zn128  1  0.44635083  0.94418435  0.19234595  1
  Zn  Zn129  1  0.44050665  0.91954344  0.69138547  1
  Zn  Zn130  1  0.93733056  0.44020343  0.18162946  1
  Zn  Zn131  1  0.94244267  0.43906866  0.68111683  1
  Zn  Zn132  1  0.93629770  0.94114286  0.18440705  1
  Zn  Zn133  1  0.93558664  0.93208285  0.67895873  1
  Zn  Zn134  1  0.05823805  0.05865268  0.31103352  1
  Zn  Zn135  1  0.06133361  0.06385489  0.81489046  1
  Zn  Zn136  1  0.06021077  0.56208102  0.30630169  1
  Zn  Zn137  1  0.06113969  0.56155348  0.81494622  1
  Zn  Zn138  1  0.56510162  0.07149684  0.42465872  1
  Zn  Zn139  1  0.57187319  0.04539015  0.81488181  1
  Zn  Zn140  1  0.56896705  0.56509519  0.30521905  1
  Zn  Zn141  1  0.56646801  0.56115234  0.80472456  1
  Zn  Zn142  1  0.44012560  0.19781263  0.44306052  1
  Zn  Zn143  1  0.46246188  0.16830252  0.88522355  1
  Zn  Zn144  1  0.42335167  0.64152789  0.45408317  1
  Zn  Zn145  1  0.43147570  0.68819897  0.94063090  1
  Zn  Zn146  1  0.93129128  0.18699072  0.43854405  1
  Zn  Zn147  1  0.93687607  0.18687212  0.93663112  1
  Zn  Zn148  1  0.92973694  0.69057684  0.42725990  1
  Zn  Zn149  1  0.93680090  0.68478250  0.94041292  1
  Zn  Zn150  1  0.06140717  0.31373528  0.06018301  1
  Zn  Zn151  1  0.06612942  0.31359977  0.56331647  1
  Zn  Zn152  1  0.06128920  0.81744122  0.06534484  1
  Zn  Zn153  1  0.06184305  0.81310635  0.55949797  1
  Zn  Zn154  1  0.56459400  0.31131049  0.04773688  1
  Zn  Zn155  1  0.56125845  0.30968214  0.56628319  1
  Zn  Zn156  1  0.56661711  0.80724272  0.06170740  1
  Zn  Zn157  1  0.57131258  0.80871017  0.56075154  1
  O  O158  1  0.12587920  0.11388690  0.12469167  1
  O  O159  1  0.11698741  0.11605002  0.62599623  1
  O  O160  1  0.10984518  0.62465926  0.13395738  1
  O  O161  1  0.12372164  0.61333742  0.63165670  1
  O  O162  1  0.61272050  0.12700272  0.11090214  1
  O  O163  1  0.62811088  0.12119587  0.63206260  1
  O  O164  1  0.61237507  0.62791758  0.11867165  1
  O  O165  1  0.62797899  0.61238203  0.62105851  1
  O  O166  1  0.33280116  0.38814042  0.38878058  1
  O  O167  1  0.36473535  0.39183449  0.88847240  1
  O  O168  1  0.38362492  0.88405621  0.36413729  1
  O  O169  1  0.36918138  0.88340875  0.87367374  1
  O  O170  1  0.89099408  0.36906734  0.38405796  1
  O  O171  1  0.87102156  0.37195406  0.88891934  1
  O  O172  1  0.88619734  0.89029157  0.36886309  1
  O  O173  1  0.88831499  0.87031430  0.86755277  1
  O  O174  1  0.25398603  0.00619829  0.36351200  1
  O  O175  1  0.25734940  -0.00173815  0.87042433  1
  O  O176  1  0.23836438  0.51943281  0.35555873  1
  O  O177  1  0.25277321  0.50823826  0.87031463  1
  O  O178  1  0.76542177  -0.00359879  0.35986882  1
  O  O179  1  0.75972170  0.00893458  0.88724869  1
  O  O180  1  0.74745177  0.48936628  0.36375441  1
  O  O181  1  0.76400348  0.51835036  0.88085806  1
  O  O182  1  0.25177526  0.48931670  0.12760262  1
  O  O183  1  0.24732297  0.49627991  0.63119376  1
  O  O184  1  0.24307751  1.00429946  0.13363547  1
  O  O185  1  0.24086638  0.98501207  0.63935724  1
  O  O186  1  0.75051355  0.48506844  0.11397922  1
  O  O187  1  0.74977033  0.48875284  0.62270866  1
  O  O188  1  0.74681904  1.00367429  0.14385363  1
  O  O189  1  0.75773793  0.98426087  0.63056404  1
  O  O190  1  0.00642428  0.36848984  0.25530813  1
  O  O191  1  0.01059476  0.36644136  0.74392624  1
  O  O192  1  0.01391125  0.88608831  0.25691039  1
  O  O193  1  0.00705767  0.86805308  0.75989015  1
  O  O194  1  0.50243622  0.41253003  0.27503814  1
  O  O195  1  0.49897557  0.38304373  0.76786181  1
  O  O196  1  0.51230068  0.87758512  0.25841156  1
  O  O197  1  0.51168134  0.85483578  0.74863977  1
  O  O198  1  0.48474341  0.11810566  0.23129925  1
  O  O199  1  0.50916179  0.13274199  0.77835791  1
  O  O200  1  0.49036803  0.62738561  0.23989502  1
  O  O201  1  0.51220739  0.63672167  0.73105866  1
  O  O202  1  0.99120293  0.13962285  0.25366235  1
  O  O203  1  0.99370188  0.13279938  0.74686727  1
  O  O204  1  0.98729250  0.60810475  0.23285783  1
  O  O205  1  0.99538120  0.63853737  0.75427290  1
  O  O206  1  0.36406525  0.26382356  0.00722459  1
  O  O207  1  0.36122035  0.24896158  0.51383509  1
  O  O208  1  0.36812900  0.75008803  0.01274454  1
  O  O209  1  0.36681769  0.73442118  0.51648709  1
  O  O210  1  0.87353918  0.25676189  0.00642751  1
  O  O211  1  0.88220273  0.26100964  0.51268254  1
  O  O212  1  0.86681885  0.74954810  0.00504387  1
  O  O213  1  0.88520812  0.74505500  0.51689172  1
  O  O214  1  0.13238259  0.24744432  0.48884555  1
  O  O215  1  0.13185812  0.25233680  0.99162556  1
  O  O216  1  0.12614285  0.74658128  0.49823098  1
  O  O217  1  0.13320542  0.75873611  0.98981934  1
  O  O218  1  0.64621365  0.25416958  0.50955159  1
  O  O219  1  0.63857928  0.23667867  1.00064850  1
  O  O220  1  0.63151742  0.75174919  0.48067718  1
  O  O221  1  0.63158103  0.73728121  0.99933879  1
  O  O222  1  0.48676335  0.24096836  0.10862382  1
  O  O223  1  0.48578577  0.25300874  0.63348628  1
  O  O224  1  0.48759697  0.74253807  0.12277008  1
  O  O225  1  0.48943295  0.74719098  0.62458397  1
  O  O226  1  0.99060442  0.25860879  0.13510546  1
  O  O227  1  0.99783945  0.24306232  0.63574975  1
  O  O228  1  0.99979865  0.73323953  0.11339720  1
  O  O229  1  0.99409011  0.75367989  0.63765564  1
  O  O230  1  0.00959410  0.25715531  0.36808652  1
  O  O231  1  0.01012199  0.24564649  0.86407305  1
  O  O232  1  -0.00658594  0.77379607  0.37643858  1
  O  O233  1  0.00584524  0.75945394  0.87293131  1
  O  O234  1  0.47709328  0.25667976  0.35376311  1
  O  O235  1  0.50253211  0.27110675  0.89365243  1
  O  O236  1  0.49436625  0.76417879  0.37185325  1
  O  O237  1  0.49523774  0.73593687  0.86075188  1
  O  O238  1  0.24706925  0.13514625  0.48279225  1
  O  O239  1  0.25011540  0.13948910  0.99971674  1
  O  O240  1  0.24684446  0.61935953  0.47982241  1
  O  O241  1  0.24752030  0.63337344  0.99150502  1
  O  O242  1  0.76971698  0.14742248  0.51020947  1
  O  O243  1  0.74712944  0.12752879  0.99471665  1
  O  O244  1  0.75464243  0.62566598  0.49131925  1
  O  O245  1  0.74411569  0.62886894  0.99305132  1
  O  O246  1  0.25650803  0.37013232  0.00735671  1
  O  O247  1  0.23712104  0.36486042  0.51621963  1
  O  O248  1  0.25010643  0.86715676  -0.00238950  1
  O  O249  1  0.24374751  0.87086769  0.51477742  1
  O  O250  1  0.75993940  0.36573258  0.00318630  1
  O  O251  1  0.76947829  0.36553158  0.51062046  1
  O  O252  1  0.74458309  0.85600549  -0.00151077  1
  O  O253  1  0.74771946  0.87719071  0.51467875  1
  O  O254  1  0.13076113  0.48499666  0.24730665  1
  O  O255  1  0.13078820  0.49416729  0.74523999  1
  O  O256  1  0.13089302  0.99782937  0.24153088  1
  O  O257  1  0.13014602  0.98916076  0.74959555  1
  O  O258  1  0.64307200  0.49910863  0.24128157  1
  O  O259  1  0.62504385  0.50046783  0.72779765  1
  O  O260  1  0.63156862  0.99387281  0.25546632  1
  O  O261  1  0.61712087  0.97384498  0.74301179  1
  O  O262  1  0.36648306  0.00665202  0.25319593  1
  O  O263  1  0.36332970  -0.01346791  0.76040260  1
  O  O264  1  0.35932476  0.51310745  0.24176377  1
  O  O265  1  0.36269037  0.49349361  0.76070136  1
  O  O266  1  0.86952875  0.01802101  0.24642002  1
  O  O267  1  0.88571054  0.01054221  0.74938382  1
  O  O268  1  0.86169353  0.49944027  0.24454921  1
  O  O269  1  0.88868215  0.51498081  0.74760544  1
  O  O270  1  0.12562239  0.36336867  0.36373394  1
  O  O271  1  0.13293941  0.36294227  0.86235399  1
  O  O272  1  0.11187396  0.88256093  0.36619543  1
  O  O273  1  0.11875930  0.86585363  0.86720990  1
  O  O274  1  0.62557816  0.34121035  0.36458000  1
  O  O275  1  0.61924112  0.38748863  0.88680809  1
  O  O276  1  0.61360977  0.86702904  0.37018334  1
  O  O277  1  0.63389315  0.87064684  0.86071370  1
  O  O278  1  0.37851616  0.13330916  0.12567767  1
  O  O279  1  0.36452528  0.14378584  0.63524500  1
  O  O280  1  0.38191240  0.63195419  0.12985748  1
  O  O281  1  0.38954398  0.62940475  0.62658479  1
  O  O282  1  0.86798403  0.14063214  0.13404137  1
  O  O283  1  0.88439754  0.13472516  0.64395224  1
  O  O284  1  0.88661863  0.62786645  0.13155361  1
  O  O285  1  0.88194983  0.63470154  0.63361831  1
  O  O286  1  0.25647306  0.25891373  0.11706986  1
  O  O287  1  0.25087039  0.25793630  0.61964790  1
  O  O288  1  0.26163497  0.74962226  0.11609805  1
  O  O289  1  0.26003482  0.75400198  0.63103895  1
  O  O290  1  0.75714007  0.25717739  0.11563428  1
  O  O291  1  0.76591579  0.26455154  0.62132882  1
  O  O292  1  0.75090381  0.73924601  0.10980006  1
  O  O293  1  0.76303280  0.74579040  0.62302302  1
  O  O294  1  0.24473422  0.24285004  0.37746227  1
  O  O295  1  0.24558610  0.25151561  0.88311709  1
  O  O296  1  0.24577967  0.73895907  0.37515283  1
  O  O297  1  0.24551817  0.74438258  0.88138736  1
  O  O298  1  0.76367517  0.25261219  0.39215901  1
  O  O299  1  0.75929529  0.23493485  0.88836912  1
  O  O300  1  0.74387912  0.76369383  0.36294834  1
  O  O301  1  0.75773828  0.73263226  0.89092383  1
  O  O302  1  0.00249499  0.10816382  -0.01115085  1
  O  O303  1  -0.00023651  0.13127891  0.51684180  1
  O  O304  1  -0.00126432  0.61174198  0.00806457  1
  O  O305  1  -0.00363259  0.60935242  0.49204893  1
  O  O306  1  0.51058533  0.11875014  -0.00300732  1
  O  O307  1  0.48806468  0.11612594  0.50100381  1
  O  O308  1  0.50523120  0.62193402  0.00483587  1
  O  O309  1  0.51860722  0.63485295  0.52019872  1
  O  O310  1  0.50490779  0.37269704  0.49282446  1
  O  O311  1  0.48856688  0.39133060  1.00923012  1
  O  O312  1  0.50227588  0.87224859  0.48790960  1
  O  O313  1  0.50583906  0.88649413  1.00625127  1
  O  O314  1  0.99873948  0.37931285  0.49345485  1
  O  O315  1  0.98922091  0.38385763  1.00391984  1
  O  O316  1  1.00174915  0.88494939  0.49073189  1
  O  O317  1  1.00051606  0.88323269  0.98790665  1
  O  O318  1  0.50621384  0.46959545  0.34135894  1
  O  O319  1  0.48993697  0.51572723  0.88443962  1
  O  O320  1  0.48529506  0.99185352  0.37573466  1
  O  O321  1  0.48809146  0.99399976  0.88676013  1
  O  O322  1  1.01640944  0.48437575  0.38232553  1
  O  O323  1  0.99579326  0.50521443  0.89195100  1
  O  O324  1  0.98692619  0.99568686  0.37383794  1
  O  O325  1  1.00477782  0.98662508  0.88389528  1
  O  O326  1  0.00693160  -0.00502098  0.10888350  1
  O  O327  1  0.01252471  0.00685590  0.63443806  1
  O  O328  1  -0.00246618  0.50587573  0.10780975  1
  O  O329  1  0.01216900  0.50347378  0.61466978  1
  O  O330  1  0.48692247  0.01306332  0.10603252  1
  O  O331  1  0.46404924  0.01550504  0.63920106  1
  O  O332  1  0.49780010  0.51281037  0.11296892  1
  O  O333  1  0.50544842  0.51001650  0.62785069  1
  O  O334  1  0.24487446  0.38295486  0.24039253  1
  O  O335  1  0.24065115  0.38673832  0.74318629  1
  O  O336  1  0.23766495  0.88815327  0.25900844  1
  O  O337  1  0.23956240  0.87526007  0.74591429  1
  O  O338  1  0.75020922  0.38255496  0.23820175  1
  O  O339  1  0.76132548  0.37531543  0.73733797  1
  O  O340  1  0.73147684  0.89014623  0.25560199  1
  O  O341  1  0.73803447  0.86054129  0.74039697  1
  O  O342  1  0.25809045  0.11826895  0.25727018  1
  O  O343  1  0.24334534  0.10653835  0.75007266  1
  O  O344  1  0.25297755  0.62078779  0.24649545  1
  O  O345  1  0.24575126  0.61433922  0.76131061  1
  O  O346  1  0.75322646  0.12003219  0.25052633  1
  O  O347  1  0.76542674  0.11847616  0.76449941  1
  O  O348  1  0.76029026  0.60619041  0.24406777  1
  O  O349  1  0.75930503  0.63335103  0.76249963  1
  O  O350  1  0.36878731  0.11426819  0.36441672  1
  O  O351  1  0.37350292  0.10165562  0.86326742  1
  O  O352  1  0.36011311  0.63634533  0.35575245  1
  O  O353  1  0.36127317  0.61468046  0.88032405  1
  O  O354  1  0.87997045  0.11601322  0.36562452  1
  O  O355  1  0.87101795  0.12599767  0.86359605  1
  O  O356  1  0.88934670  0.61233897  0.35681320  1
  O  O357  1  0.87002366  0.62552214  0.86478254  1
  O  O358  1  0.13573752  0.36434365  0.13336884  1
  O  O359  1  0.13251724  0.38311181  0.63609094  1
  O  O360  1  0.12064954  0.88768088  0.13793868  1
  O  O361  1  0.12819137  0.87975962  0.63594053  1
  O  O362  1  0.63377857  0.37502149  0.12081011  1
  O  O363  1  0.64365730  0.38174695  0.62336596  1
  O  O364  1  0.61933944  0.87301195  0.13968978  1
  O  O365  1  0.63986596  0.86632871  0.63046804  1
  O  O366  1  0.12003620  0.25519099  0.25483608  1
  O  O367  1  0.12060546  0.25662458  0.75377130  1
  O  O368  1  0.12911024  0.77012146  0.25149437  1
  O  O369  1  0.11748111  0.75720341  0.75893199  1
  O  O370  1  0.60436584  0.25376522  0.23483528  1
  O  O371  1  0.62187056  0.27100741  0.76974962  1
  O  O372  1  0.62434969  0.76297328  0.25661925  1
  O  O373  1  0.61195959  0.75357915  0.74664227  1
  O  O374  1  0.36577090  0.24073764  0.23340735  1
  O  O375  1  0.36726199  0.25399162  0.74181898  1
  O  O376  1  0.37270806  0.74386367  0.23425325  1
  O  O377  1  0.39012726  0.74806741  0.73733621  1
  O  O378  1  0.87983098  0.24668492  0.24513741  1
  O  O379  1  0.88525711  0.24929242  0.74476646  1
  O  O380  1  0.86565837  0.72301282  0.25252611  1
  O  O381  1  0.88296694  0.74144205  0.74518589  1
  O  O382  1  0.39149994  0.53183535  0.48268028  1
  O  O383  1  0.38037557  0.49743635  0.99377142  1
  O  O384  1  0.35651560  0.99568436  0.47707837  1
  O  O385  1  0.38221104  0.99806288  0.98957858  1
  O  O386  1  0.89279786  0.48639272  0.50912520  1
  O  O387  1  0.87589573  0.48359177  1.00043975  1
  O  O388  1  0.86670808  1.00513774  0.48534273  1
  O  O389  1  0.88627763  1.00103116  1.00765262  1
  O  O390  1  0.12150169  0.00246996  0.00852457  1
  O  O391  1  0.13457554  0.00229290  0.51499698  1
  O  O392  1  0.11630695  0.49295128  -0.00269380  1
  O  O393  1  0.12145880  0.49181666  0.51155656  1
  O  O394  1  0.61092160  0.00573761  -0.00719066  1
  O  O395  1  0.63343120  0.01526680  0.49786822  1
  O  O396  1  0.61595633  0.51391955  0.00245391  1
  O  O397  1  0.62604510  0.50027650  0.51577577  1
  O  O398  1  0.36831799  0.37050335  0.11956898  1
  O  O399  1  0.36220651  0.36734590  0.63014485  1
  O  O400  1  0.38140316  0.86380741  0.13209786  1
  O  O401  1  0.36602476  0.85808230  0.62539770  1
  O  O402  1  0.86745057  0.36474441  0.11515306  1
  O  O403  1  0.87453701  0.36859312  0.62037616  1
  O  O404  1  0.86602438  0.85735123  0.17446116  1
  O  O405  1  0.86325822  0.85905741  0.63323169  1
  O  O406  1  0.13074324  0.13270828  0.37091862  1
  O  O407  1  0.13221974  0.13901515  0.87426141  1
  O  O408  1  0.13242092  0.63385044  0.35912597  1
  O  O409  1  0.13187311  0.63860297  0.87043912  1
  O  O410  1  0.61071317  0.16140885  0.37107195  1
  O  O411  1  0.64484612  0.11556934  0.88285879  1
  O  O412  1  0.62050518  0.64486712  0.36825949  1
  O  O413  1  0.64027750  0.61728302  0.87959683  1
