# generated using pymatgen
data_V79Zn79O256
_symmetry_space_group_name_H-M   'P 1'
_cell_length_a   16.94563531
_cell_length_b   16.93076586
_cell_length_c   16.92775198
_cell_angle_alpha   89.98089599
_cell_angle_beta   89.83515964
_cell_angle_gamma   90.11349361
_symmetry_Int_Tables_number   1
_chemical_formula_structural   V79Zn79O256
_chemical_formula_sum   'V79 Zn79 O256'
_cell_volume   4856.58587479
_cell_formula_units_Z   1
loop_
 _symmetry_equiv_pos_site_id
 _symmetry_equiv_pos_as_xyz
  1  'x, y, z'
loop_
 _atom_site_type_symbol
 _atom_site_label
 _atom_site_symmetry_multiplicity
 _atom_site_fract_x
 _atom_site_fract_y
 _atom_site_fract_z
 _atom_site_occupancy
  V  V0  1  0.24872117  0.12668869  0.37609586  1
  V  V1  1  0.87112795  0.49587079  0.37331429  1
  V  V2  1  0.74933234  0.12980102  0.37407547  1
  V  V3  1  0.36988224  0.64291041  0.75661959  1
  V  V4  1  0.49690999  0.37605700  0.37383240  1
  V  V5  1  0.73162949  0.88302585  0.62600541  1
  V  V6  1  0.62732049  0.36788885  0.26051856  1
  V  V7  1  0.25398449  0.37850660  0.14632834  1
  V  V8  1  0.24279014  0.76532143  0.01892613  1
  V  V9  1  0.87544737  0.13204761  0.24827851  1
  V  V10  1  0.12490813  0.50397369  0.62516463  1
  V  V11  1  0.72696950  0.73273687  0.50352129  1
  V  V12  1  0.24370492  0.24885919  0.50262130  1
  V  V13  1  0.61655768  0.49282661  0.10921497  1
  V  V14  1  0.75608447  0.36477710  0.12762514  1
  V  V15  1  0.86590500  0.74694461  0.11926269  1
  V  V16  1  0.75649025  0.24147181  -0.00537452  1
  V  V17  1  0.65048742  0.75933880  0.87875205  1
  V  V18  1  -0.00052125  -0.01124851  0.49005038  1
  V  V19  1  0.62550338  0.86474368  0.25143152  1
  V  V20  1  0.50508260  0.00144373  0.49820469  1
  V  V21  1  -0.00276105  0.74161936  0.73867781  1
  V  V22  1  0.24960908  0.25894032  -0.00270212  1
  V  V23  1  0.24604413  0.62219263  0.36600610  1
  V  V24  1  0.37846122  0.87472682  0.01399128  1
  V  V25  1  0.86753859  0.61876404  0.24942869  1
  V  V26  1  0.25179727  0.37957648  0.63070055  1
  V  V27  1  0.87935800  0.36939024  0.00292301  1
  V  V28  1  0.38506973  0.00083666  0.87400573  1
  V  V29  1  -0.00585636  0.75380585  0.25690776  1
  V  V30  1  0.50230512  0.24742619  0.25097656  1
  V  V31  1  0.38055310  0.12199875  0.24622941  1
  V  V32  1  0.23825175  0.64222870  0.88551683  1
  V  V33  1  0.75558318  0.37909515  0.62906545  1
  V  V34  1  0.87634702  -0.01269562  0.37312508  1
  V  V35  1  0.00192113  0.62300023  0.10954687  1
  V  V36  1  0.87349074  0.85756608  0.50517588  1
  V  V37  1  -0.00182932  0.25009706  0.74106448  1
  V  V38  1  0.62651777  0.12142421  0.01512857  1
  V  V39  1  0.01192684  0.37005228  0.88171195  1
  V  V40  1  0.74484944  0.49632236  0.25197977  1
  V  V41  1  0.50323584  0.00584197  0.02016164  1
  V  V42  1  0.22922740  -0.00341613  0.24025448  1
  V  V43  1  0.12454032  0.62528157  0.50217020  1
  V  V44  1  0.50217896  0.13036455  0.62725946  1
  V  V45  1  0.11581119  0.75918052  0.37147364  1
  V  V46  1  -0.00623024  0.13821355  0.12824003  1
  V  V47  1  0.24819061  0.50976519  0.76034464  1
  V  V48  1  0.36202873  0.76475541  0.62632362  1
  V  V49  1  0.37797760  -0.00052943  0.36953745  1
  V  V50  1  -0.00373766  0.87730740  0.87281168  1
  V  V51  1  0.00112721  0.00160724  0.00387126  1
  V  V52  1  0.37581137  0.24722014  0.63390976  1
  V  V53  1  0.75127827  0.50138537  0.75911101  1
  V  V54  1  0.00363952  0.49818328  0.49166006  1
  V  V55  1  0.36576254  0.49643214  0.36903300  1
  V  V56  1  0.12556755  0.87431052  0.75039907  1
  V  V57  1  0.37960625  0.37509850  0.50354477  1
  V  V58  1  0.74785032  -0.00439653  0.24851878  1
  V  V59  1  0.74981235  0.24954773  0.49823811  1
  V  V60  1  0.62417518  0.36254061  0.74698194  1
  V  V61  1  0.12298774  0.12062329  0.50138597  1
  V  V62  1  0.86768389  0.87521098  -0.00173843  1
  V  V63  1  0.62179063  0.23348242  0.86931959  1
  V  V64  1  0.24751116  0.00167791  0.74906328  1
  V  V65  1  0.74809516  0.87756615  0.12516115  1
  V  V66  1  0.87926748  0.50218605  0.87906371  1
  V  V67  1  0.86579367  0.01429689  0.86013536  1
  V  V68  1  0.12843983  -0.00782165  0.62248412  1
  V  V69  1  0.12661107  0.37119845  0.75507249  1
  V  V70  1  0.12694694  0.12056249  0.00648373  1
  V  V71  1  0.11837047  0.49094790  0.12648259  1
  V  V72  1  0.24664978  0.12715615  0.87722943  1
  V  V73  1  0.24456060  0.75969086  0.50040477  1
  V  V74  1  0.87880823  0.37439446  0.49839497  1
  V  V75  1  0.37558943  0.25214665  0.12690771  1
  V  V76  1  0.50488290  0.77895878  0.75909083  1
  V  V77  1  0.62255292  0.12891678  0.48952896  1
  V  V78  1  0.50252063  0.86061925  0.37302137  1
  Zn  Zn79  1  0.49283440  0.64275463  0.11632647  1
  Zn  Zn80  1  0.51001350  0.63668670  0.62854749  1
  Zn  Zn81  1  0.36881233  0.87968051  0.49972500  1
  Zn  Zn82  1  0.87013424  0.63416994  0.74148238  1
  Zn  Zn83  1  0.62498916  0.72142659  0.36983996  1
  Zn  Zn84  1  -0.00993721  0.10851726  0.64044651  1
  Zn  Zn85  1  0.50414541  0.38939732  0.89051754  1
  Zn  Zn86  1  0.37494246  0.64174428  0.24072972  1
  Zn  Zn87  1  0.87504400  0.24036618  0.63217850  1
  Zn  Zn88  1  0.52741904  0.50888528  0.54146154  1
  Zn  Zn89  1  0.61950010  0.62467110  -0.01823638  1
  Zn  Zn90  1  0.10939951  0.34971651  0.26931017  1
  Zn  Zn91  1  0.11306026  0.75029023  0.88884377  1
  Zn  Zn92  1  0.38406516  0.13110644  0.75860124  1
  Zn  Zn93  1  0.40814965  0.51398353  0.89682779  1
  Zn  Zn94  1  0.19048390  0.18064943  0.18398538  1
  Zn  Zn95  1  0.18254663  0.18485528  0.68608017  1
  Zn  Zn96  1  0.18009218  0.68878911  0.18802434  1
  Zn  Zn97  1  0.18509401  0.69295537  0.68637105  1
  Zn  Zn98  1  0.69155296  0.18803984  0.18958069  1
  Zn  Zn99  1  0.68339834  0.18719374  0.67473682  1
  Zn  Zn100  1  0.68009090  0.68181909  0.17520808  1
  Zn  Zn101  1  0.67914857  0.69277603  0.68508285  1
  Zn  Zn102  1  0.31117299  0.30805243  0.31527009  1
  Zn  Zn103  1  0.32152204  0.32039407  0.81967116  1
  Zn  Zn104  1  0.30278279  0.81621682  0.30918219  1
  Zn  Zn105  1  0.31081321  0.82251148  0.82360250  1
  Zn  Zn106  1  0.93361746  0.30871360  0.31624696  1
  Zn  Zn107  1  0.81982360  0.31005942  0.81782871  1
  Zn  Zn108  1  0.80547984  0.80235665  0.31855624  1
  Zn  Zn109  1  0.81447376  0.82147528  0.80240042  1
  Zn  Zn110  1  0.19100000  0.43630745  0.43811060  1
  Zn  Zn111  1  0.23592454  0.47193909  0.97419072  1
  Zn  Zn112  1  0.18281263  0.93997651  0.42013931  1
  Zn  Zn113  1  0.18810462  0.93886123  0.93872925  1
  Zn  Zn114  1  0.67580609  0.54584722  0.43874303  1
  Zn  Zn115  1  0.69119934  0.42293350  0.93226229  1
  Zn  Zn116  1  0.68919987  0.93364363  0.44162854  1
  Zn  Zn117  1  0.68579955  0.94133113  0.93055875  1
  Zn  Zn118  1  0.31338687  0.06125426  0.06600206  1
  Zn  Zn119  1  0.31543782  0.06043074  0.56270368  1
  Zn  Zn120  1  0.34716695  0.57949284  0.05636095  1
  Zn  Zn121  1  0.36989850  0.55232866  0.58373222  1
  Zn  Zn122  1  0.81803812  0.06012782  0.06107254  1
  Zn  Zn123  1  0.81395273  0.05669336  0.56468714  1
  Zn  Zn124  1  0.80326887  0.55839954  0.05844765  1
  Zn  Zn125  1  0.81524412  0.56935589  0.56917415  1
  Zn  Zn126  1  0.44156357  0.45834144  0.19375397  1
  Zn  Zn127  1  0.44887546  0.45237808  0.73878748  1
  Zn  Zn128  1  0.43920949  0.80670262  0.18689150  1
  Zn  Zn129  1  0.43325251  0.94674189  0.68163144  1
  Zn  Zn130  1  0.94105782  0.43808215  0.18400690  1
  Zn  Zn131  1  0.92544158  0.46867703  0.67221806  1
  Zn  Zn132  1  0.95888128  0.93612659  0.18738597  1
  Zn  Zn133  1  0.93336848  0.93106275  0.68237734  1
  Zn  Zn134  1  0.06167528  0.16898025  0.31519375  1
  Zn  Zn135  1  0.06269501  0.06449075  0.81803215  1
  Zn  Zn136  1  0.05952866  0.56287432  0.30574459  1
  Zn  Zn137  1  0.06420604  0.55992190  0.82253683  1
  Zn  Zn138  1  0.56386939  0.05707684  0.30793901  1
  Zn  Zn139  1  0.56754114  0.06980192  0.81635507  1
  Zn  Zn140  1  0.54898375  0.55953345  0.29794944  1
  Zn  Zn141  1  0.57604395  0.57977078  0.78897833  1
  Zn  Zn142  1  0.43382217  0.19178141  0.43758725  1
  Zn  Zn143  1  0.45725273  0.21746258  0.95879898  1
  Zn  Zn144  1  0.43023732  0.68025646  0.44413974  1
  Zn  Zn145  1  0.44554062  0.69647801  0.93867152  1
  Zn  Zn146  1  0.92672503  0.17068792  0.45684399  1
  Zn  Zn147  1  0.94215289  0.18973123  0.93188812  1
  Zn  Zn148  1  0.93444388  0.67654142  0.43896902  1
  Zn  Zn149  1  0.92541391  0.69100266  0.93057895  1
  Zn  Zn150  1  0.07016775  0.31033124  0.06245571  1
  Zn  Zn151  1  0.06137504  0.30604469  0.44758556  1
  Zn  Zn152  1  0.05881326  0.82077093  0.07282410  1
  Zn  Zn153  1  0.06065954  0.81199939  0.56173152  1
  Zn  Zn154  1  0.56129243  0.31900235  0.06620056  1
  Zn  Zn155  1  0.60850058  0.35908815  0.51753808  1
  Zn  Zn156  1  0.56709346  0.81664051  0.05120504  1
  Zn  Zn157  1  0.55283797  0.81175889  0.56620424  1
  O  O158  1  0.11061176  0.12444130  0.11400431  1
  O  O159  1  0.12303724  0.10988461  0.61598157  1
  O  O160  1  0.10342810  0.63063276  0.12421222  1
  O  O161  1  0.13578736  0.61432495  0.61486552  1
  O  O162  1  0.62572784  0.12765035  0.11428296  1
  O  O163  1  0.60846768  0.13165596  0.60638480  1
  O  O164  1  0.61574265  0.59754780  0.12878698  1
  O  O165  1  0.60571065  0.60888469  0.67871587  1
  O  O166  1  0.37468110  0.37525407  0.38600015  1
  O  O167  1  0.39834059  0.39869551  0.83675974  1
  O  O168  1  0.39032156  0.88335011  0.37570448  1
  O  O169  1  0.36949157  0.89846976  0.88620818  1
  O  O170  1  0.87214026  0.38660650  0.38519142  1
  O  O171  1  0.88752204  0.37800790  0.88661731  1
  O  O172  1  0.86134529  0.88025125  0.38873587  1
  O  O173  1  0.88139176  0.88204858  0.88019088  1
  O  O174  1  0.26040897  0.01216102  0.37462232  1
  O  O175  1  0.25471308  0.00929591  0.86929087  1
  O  O176  1  0.24908547  0.51746088  0.38221575  1
  O  O177  1  0.23982127  0.52249356  0.86708097  1
  O  O178  1  0.75679470  0.00388119  0.36845060  1
  O  O179  1  0.76726701  -0.00191677  0.87458224  1
  O  O180  1  0.75681592  0.49889831  0.36090063  1
  O  O181  1  0.76282335  0.48711035  0.86700038  1
  O  O182  1  0.24780357  0.47806825  0.13244735  1
  O  O183  1  0.24807957  0.49460473  0.63784267  1
  O  O184  1  0.24749798  1.00711117  0.13977904  1
  O  O185  1  0.24189680  1.00487168  0.63627154  1
  O  O186  1  0.74286884  0.48407352  0.13218242  1
  O  O187  1  0.75484044  0.48259836  0.63897594  1
  O  O188  1  0.76290954  0.98985763  0.13878401  1
  O  O189  1  0.74301962  0.98282101  0.60513313  1
  O  O190  1  -0.00116480  0.37425696  0.25269916  1
  O  O191  1  0.01123380  0.36731353  0.75954836  1
  O  O192  1  -0.02816891  0.84940708  0.26520305  1
  O  O193  1  0.00545257  0.86761863  0.75521371  1
  O  O194  1  0.50648965  0.36842772  0.25573602  1
  O  O195  1  0.52752539  0.36176409  0.73318017  1
  O  O196  1  0.51207407  0.87305101  0.26591440  1
  O  O197  1  0.49680642  0.87791803  0.74321364  1
  O  O198  1  0.49215389  0.13410394  0.25948698  1
  O  O199  1  0.50319124  0.11555816  0.73021888  1
  O  O200  1  0.47120665  0.57660778  0.22021809  1
  O  O201  1  0.47134159  0.65016857  0.75738113  1
  O  O202  1  0.99074436  0.12037937  0.23448639  1
  O  O203  1  1.01742335  0.14391444  0.75038893  1
  O  O204  1  0.98169904  0.62573456  0.23831165  1
  O  O205  1  1.01031559  0.64238936  0.76089870  1
  O  O206  1  0.35820623  0.23511044  0.01731188  1
  O  O207  1  0.36388513  0.25528979  0.51114582  1
  O  O208  1  0.36766040  0.77241635  -0.00617743  1
  O  O209  1  0.36128137  0.75294445  0.50902282  1
  O  O210  1  0.86952097  0.25783088  -0.00613851  1
  O  O211  1  0.86570025  0.26235324  0.49765287  1
  O  O212  1  0.87682104  0.76315730  0.00755540  1
  O  O213  1  0.87279820  0.75516637  0.49555158  1
  O  O214  1  0.13546815  0.23533924  0.50834457  1
  O  O215  1  0.14305762  0.23809688  1.00537424  1
  O  O216  1  0.12364921  0.74357020  0.49289163  1
  O  O217  1  0.13744838  0.77408729  1.00370482  1
  O  O218  1  0.64057529  0.24681652  0.49718201  1
  O  O219  1  0.63324623  0.23492157  0.98983766  1
  O  O220  1  0.62497347  0.74015435  0.50118022  1
  O  O221  1  0.63192720  0.75393009  0.98310606  1
  O  O222  1  0.48705141  0.25685462  0.14017224  1
  O  O223  1  0.48609297  0.23412923  0.61944575  1
  O  O224  1  0.52204197  0.75373803  0.13223512  1
  O  O225  1  0.48262263  0.75388598  0.63951258  1
  O  O226  1  0.99825826  0.23682670  0.11653070  1
  O  O227  1  1.00038743  0.25313703  0.64040772  1
  O  O228  1  0.98415876  0.73931567  0.13676181  1
  O  O229  1  1.00551589  0.74863108  0.63902644  1
  O  O230  1  -0.00609049  0.23515692  0.38524745  1
  O  O231  1  0.00295680  0.26495790  0.86670516  1
  O  O232  1  0.00242243  0.73147450  0.36254576  1
  O  O233  1  -0.00200019  0.76416549  0.87173466  1
  O  O234  1  0.48753204  0.26250461  0.36201690  1
  O  O235  1  0.52122243  0.22861086  0.86014831  1
  O  O236  1  0.50178488  0.75996908  0.38858635  1
  O  O237  1  0.48235168  0.76930274  0.85764903  1
  O  O238  1  0.24460873  0.12872956  0.49782414  1
  O  O239  1  0.24289286  0.12593446  0.99646116  1
  O  O240  1  0.23512965  0.64090220  0.48623123  1
  O  O241  1  0.25530357  0.65380697  0.99044762  1
  O  O242  1  0.74081133  0.12846797  0.49347015  1
  O  O243  1  0.74151948  0.13009080  1.00908009  1
  O  O244  1  0.74261159  0.62616827  0.50571129  1
  O  O245  1  0.73142925  0.62311528  1.00676131  1
  O  O246  1  0.24624184  0.35939583  0.00818569  1
  O  O247  1  0.25479977  0.36549264  0.51133274  1
  O  O248  1  0.26223767  0.87426285  0.00022234  1
  O  O249  1  0.24815471  0.86315209  0.48285313  1
  O  O250  1  0.75952822  0.36206426  0.00739972  1
  O  O251  1  0.75797264  0.36597896  0.51581997  1
  O  O252  1  0.76075438  0.88908647  0.01116142  1
  O  O253  1  0.75463028  0.85884710  0.50602500  1
  O  O254  1  0.12673162  0.51341517  0.22811822  1
  O  O255  1  0.12995295  0.49670690  0.74402155  1
  O  O256  1  0.13590433  1.01832903  0.25727504  1
  O  O257  1  0.12702495  0.99486737  0.74246630  1
  O  O258  1  0.63033047  0.48366203  0.23978687  1
  O  O259  1  0.64811178  0.47071737  0.76093582  1
  O  O260  1  0.63993155  0.98631242  0.25597321  1
  O  O261  1  0.65942043  1.03065019  0.74457231  1
  O  O262  1  0.37442177  0.01052005  0.26326177  1
  O  O263  1  0.36532508  0.00432004  0.76007816  1
  O  O264  1  0.35599469  0.48034448  0.27072183  1
  O  O265  1  0.35609619  0.53255375  0.75160328  1
  O  O266  1  0.87040105  0.00091183  0.25820626  1
  O  O267  1  0.88518890  -0.00133461  0.76051060  1
  O  O268  1  0.86563174  0.49995595  0.25373402  1
  O  O269  1  0.86303467  0.48161662  0.76822336  1
  O  O270  1  0.12675271  0.36859658  0.38118572  1
  O  O271  1  0.11379909  0.38571113  0.86915359  1
  O  O272  1  0.11338196  0.85825211  0.37937670  1
  O  O273  1  0.11189311  0.88097947  0.86624200  1
  O  O274  1  0.61187182  0.37380397  0.36376577  1
  O  O275  1  0.62331695  0.35528850  0.86432307  1
  O  O276  1  0.61327535  0.87425877  0.37114302  1
  O  O277  1  0.63220114  0.86202618  0.87291480  1
  O  O278  1  0.36920597  0.13545845  0.13934848  1
  O  O279  1  0.38229336  0.13078615  0.62597904  1
  O  O280  1  0.37309934  0.65456085  0.12575272  1
  O  O281  1  0.35517435  0.64924525  0.64664147  1
  O  O282  1  0.88365975  0.12582741  0.13228847  1
  O  O283  1  0.89026819  0.13288235  0.59166151  1
  O  O284  1  0.87822465  0.62747003  0.12724409  1
  O  O285  1  0.89316861  0.58005146  0.64528843  1
  O  O286  1  0.25567224  0.25729225  0.11976735  1
  O  O287  1  0.25421067  0.25430197  0.61996397  1
  O  O288  1  0.24256972  0.75607947  0.11735964  1
  O  O289  1  0.24707526  0.75601418  0.61180747  1
  O  O290  1  0.74861364  0.25792108  0.11523186  1
  O  O291  1  0.75860447  0.25043441  0.61585725  1
  O  O292  1  0.76010407  0.75869998  0.13115695  1
  O  O293  1  0.74221409  0.75284663  0.60965170  1
  O  O294  1  0.25955852  0.23652863  0.39130145  1
  O  O295  1  0.26301082  0.24537614  0.89067820  1
  O  O296  1  0.23516258  0.74196619  0.37824965  1
  O  O297  1  0.23836324  0.75050706  0.87910695  1
  O  O298  1  0.75904131  0.23143103  0.38391345  1
  O  O299  1  0.74574282  0.25413409  0.88920383  1
  O  O300  1  0.74153786  0.74716875  0.39705365  1
  O  O301  1  0.75037372  0.75044164  0.86491498  1
  O  O302  1  0.00730626  0.12258163  0.00342556  1
  O  O303  1  0.01528152  0.10637967  0.49806482  1
  O  O304  1  -0.01026978  0.63524808  0.01143082  1
  O  O305  1  0.01417344  0.61381633  0.49671019  1
  O  O306  1  0.51539503  0.11929216  -0.00241973  1
  O  O307  1  0.50580276  0.12245096  0.49778147  1
  O  O308  1  0.50302289  0.62360788  0.00007157  1
  O  O309  1  0.46909427  0.60988923  0.52307691  1
  O  O310  1  0.48839180  0.36569660  0.49019026  1
  O  O311  1  0.49022017  0.32749461  0.98309639  1
  O  O312  1  0.50006193  0.88524833  0.48905672  1
  O  O313  1  0.49066944  0.89480948  1.00196330  1
  O  O314  1  0.98774870  0.38356179  0.49953460  1
  O  O315  1  0.99767740  0.36687852  0.98971049  1
  O  O316  1  0.98415281  0.87557805  0.50273869  1
  O  O317  1  0.98953463  0.88303805  0.99110453  1
  O  O318  1  0.48229345  0.48281116  0.37156340  1
  O  O319  1  0.50725078  0.50203673  0.84199561  1
  O  O320  1  0.49410657  0.99562969  0.38055011  1
  O  O321  1  0.48601896  1.01042392  0.87054164  1
  O  O322  1  0.99236565  0.50318868  0.38451784  1
  O  O323  1  0.98801320  0.48474937  0.86894027  1
  O  O324  1  0.98864051  0.99517139  0.38641622  1
  O  O325  1  0.99257101  0.99344860  0.88130738  1
  O  O326  1  -0.01405163  0.01728492  0.10677237  1
  O  O327  1  0.00987086  -0.00586437  0.61413479  1
  O  O328  1  0.00793241  0.51024306  0.11892649  1
  O  O329  1  0.02103947  0.48797249  0.61111652  1
  O  O330  1  0.49980033  0.00815592  0.11504047  1
  O  O331  1  0.48804067  0.01580284  0.60627641  1
  O  O332  1  0.51882136  0.46654785  0.10949915  1
  O  O333  1  0.46473685  0.50506350  0.63775599  1
  O  O334  1  0.23819978  0.36356058  0.24614365  1
  O  O335  1  0.24567146  0.38787947  0.75133926  1
  O  O336  1  0.24095838  0.89748680  0.26661683  1
  O  O337  1  0.23631707  0.89091187  0.76168216  1
  O  O338  1  0.74185210  0.37900827  0.24173774  1
  O  O339  1  0.75537641  0.36808649  0.73887016  1
  O  O340  1  0.74794954  0.87891766  0.24652497  1
  O  O341  1  0.75397479  0.87248832  0.72412762  1
  O  O342  1  0.26128012  0.11846664  0.26025796  1
  O  O343  1  0.24417738  0.11628125  0.75951000  1
  O  O344  1  0.24745501  0.63347303  0.26403133  1
  O  O345  1  0.24520784  0.63099496  0.76461879  1
  O  O346  1  0.75450877  0.11452455  0.25479409  1
  O  O347  1  0.71484038  0.08196578  0.73396240  1
  O  O348  1  0.75793728  0.60923068  0.23494020  1
  O  O349  1  0.75230285  0.60256520  0.74817160  1
  O  O350  1  0.36879711  0.11979991  0.36984462  1
  O  O351  1  0.36147657  0.11473540  0.87562892  1
  O  O352  1  0.35951600  0.61555528  0.37436625  1
  O  O353  1  0.35644459  0.64007647  0.86736830  1
  O  O354  1  0.86666747  0.10820262  0.37077266  1
  O  O355  1  0.88034580  0.11312767  0.87578685  1
  O  O356  1  0.87571061  0.60842714  0.36297700  1
  O  O357  1  0.88190266  0.60503539  0.86785091  1
  O  O358  1  0.13001340  0.38197076  0.13022114  1
  O  O359  1  0.14296653  0.38585375  0.63616438  1
  O  O360  1  0.06259640  0.89486040  0.15291493  1
  O  O361  1  0.12204423  0.88379759  0.63474419  1
  O  O362  1  0.63773923  0.37469681  0.13129899  1
  O  O363  1  0.64780863  0.35909859  0.63584302  1
  O  O364  1  0.64214245  0.87210639  0.13364802  1
  O  O365  1  0.63112710  0.87370262  0.61844051  1
  O  O366  1  0.12550349  0.23728486  0.25313740  1
  O  O367  1  0.12413828  0.26600429  0.74625033  1
  O  O368  1  0.10228868  0.74538915  0.25518158  1
  O  O369  1  0.11696281  0.76311147  0.75334015  1
  O  O370  1  0.61458864  0.25613451  0.24349969  1
  O  O371  1  0.64495143  0.25009702  0.76177614  1
  O  O372  1  0.64029281  0.76049881  0.25689802  1
  O  O373  1  0.60731881  0.76050573  0.75826387  1
  O  O374  1  0.37951278  0.24062949  0.24630001  1
  O  O375  1  0.36401277  0.24574201  0.73843861  1
  O  O376  1  0.38179888  0.75289825  0.26637808  1
  O  O377  1  0.36358266  0.75757034  0.74513551  1
  O  O378  1  0.86882074  0.23026524  0.25856895  1
  O  O379  1  0.89292282  0.25186323  0.75191152  1
  O  O380  1  0.87317270  0.73535377  0.24588252  1
  O  O381  1  0.89221623  0.74823390  0.75342428  1
  O  O382  1  0.36210589  0.48011614  0.49201304  1
  O  O383  1  0.34693274  0.49724405  0.98786222  1
  O  O384  1  0.38208386  1.00099099  0.48721627  1
  O  O385  1  0.38661230  1.00256401  0.99391942  1
  O  O386  1  0.88187091  0.49516274  0.49263519  1
  O  O387  1  0.86791431  0.48712274  0.98624950  1
  O  O388  1  0.88164055  0.98729290  0.49127027  1
  O  O389  1  0.88253156  0.99308935  0.98877691  1
  O  O390  1  0.11288243  0.00743356  -0.00579108  1
  O  O391  1  0.12134975  -0.00235030  0.50461808  1
  O  O392  1  0.14348546  0.50936397  0.02869257  1
  O  O393  1  0.12290983  0.50649046  0.50513043  1
  O  O394  1  0.61514167  0.01132404  -0.00442126  1
  O  O395  1  0.61387396  0.01290902  0.49048436  1
  O  O396  1  0.63470593  0.48819917  0.00823414  1
  O  O397  1  0.62303758  0.47111170  0.50479436  1
  O  O398  1  0.36135559  0.36477891  0.14024536  1
  O  O399  1  0.36292711  0.36509408  0.62124030  1
  O  O400  1  0.37820601  0.87819200  0.11278336  1
  O  O401  1  0.37051834  0.87018731  0.61984772  1
  O  O402  1  0.86814107  0.38276764  0.11262662  1
  O  O403  1  0.86925330  0.37504351  0.61633984  1
  O  O404  1  0.86932834  0.86629885  0.11755121  1
  O  O405  1  0.86490620  0.87434483  0.60748494  1
  O  O406  1  0.13872891  0.11881847  0.39043440  1
  O  O407  1  0.13811636  0.12266409  0.88721898  1
  O  O408  1  0.13101675  0.62878809  0.37904670  1
  O  O409  1  0.13366637  0.63211458  0.88250156  1
  O  O410  1  0.63450892  0.12208299  0.37968422  1
  O  O411  1  0.63898128  0.13039378  0.88241868  1
  O  O412  1  0.61213861  0.61055604  0.37112921  1
  O  O413  1  0.61636809  0.65398213  0.86646828  1
