# generated using pymatgen
data_V79Zn79O256
_symmetry_space_group_name_H-M   'P 1'
_cell_length_a   16.88593181
_cell_length_b   16.91947734
_cell_length_c   16.91911387
_cell_angle_alpha   89.94460329
_cell_angle_beta   90.06989090
_cell_angle_gamma   90.11487973
_symmetry_Int_Tables_number   1
_chemical_formula_structural   V79Zn79O256
_chemical_formula_sum   'V79 Zn79 O256'
_cell_volume   4833.79457272
_cell_formula_units_Z   1
loop_
 _symmetry_equiv_pos_site_id
 _symmetry_equiv_pos_as_xyz
  1  'x, y, z'
loop_
 _atom_site_type_symbol
 _atom_site_label
 _atom_site_symmetry_multiplicity
 _atom_site_fract_x
 _atom_site_fract_y
 _atom_site_fract_z
 _atom_site_occupancy
  V  V0  1  0.87786323  0.64871916  0.25730971  1
  V  V1  1  0.37677397  0.37238704  -0.00283226  1
  V  V2  1  0.25208688  0.49826400  0.24882568  1
  V  V3  1  0.00566733  0.50063070  0.00651573  1
  V  V4  1  0.63158831  0.50379027  0.12219566  1
  V  V5  1  0.24101298  0.50017310  0.74528343  1
  V  V6  1  0.49890195  0.75335101  0.25056452  1
  V  V7  1  0.01900053  0.12580128  0.11627844  1
  V  V8  1  0.61199020  0.00011897  0.12622466  1
  V  V9  1  0.87917927  0.37748286  -0.00398880  1
  V  V10  1  0.25657779  0.37043067  0.12289168  1
  V  V11  1  0.37877006  0.49933308  0.37472099  1
  V  V12  1  0.62517076  0.12166512  0.50504495  1
  V  V13  1  0.75395465  0.74358856  0.48959192  1
  V  V14  1  0.76323798  0.50594541  0.25951925  1
  V  V15  1  0.24380949  0.62875345  0.38602003  1
  V  V16  1  0.63635349  0.88704698  0.74147973  1
  V  V17  1  0.37611554  0.62980301  0.24632157  1
  V  V18  1  0.37064625  0.74616700  0.62087190  1
  V  V19  1  0.06622535  0.55428721  0.56148127  1
  V  V20  1  -0.00127107  0.63817599  0.13250468  1
  V  V21  1  0.11799990  -0.00151743  0.62617939  1
  V  V22  1  0.49705779  0.24720183  0.24262590  1
  V  V23  1  0.12873181  0.23853995  0.86618185  1
  V  V24  1  0.38522298  0.50030569  0.86274359  1
  V  V25  1  0.12401311  0.37156863  0.25771421  1
  V  V26  1  0.62727828  0.37641423  0.25000246  1
  V  V27  1  0.87576713  -0.00234559  0.37016674  1
  V  V28  1  0.87321116  0.11982424  0.75109155  1
  V  V29  1  0.76009640  0.50247015  0.75872679  1
  V  V30  1  0.75038880  0.25027949  -0.00080939  1
  V  V31  1  -0.00163854  0.24579816  0.25834216  1
  V  V32  1  0.37162043  0.36716115  0.50044157  1
  V  V33  1  0.24659443  0.36979595  0.63384091  1
  V  V34  1  0.87688665  0.24048838  0.12585329  1
  V  V35  1  0.86985984  0.26488781  0.63731232  1
  V  V36  1  0.74906794  0.12108057  0.87194443  1
  V  V37  1  0.24711082  -0.00221963  0.75989597  1
  V  V38  1  0.62369442  0.75764037  0.87374450  1
  V  V39  1  0.00293794  0.88638108  0.84231340  1
  V  V40  1  0.50950460  -0.00859270  0.50382814  1
  V  V41  1  0.76109333  0.12737113  0.37021796  1
  V  V42  1  0.37268829  0.87297784  0.49257245  1
  V  V43  1  0.37736449  0.24244867  0.62155001  1
  V  V44  1  0.24291102  0.87219302  0.62545272  1
  V  V45  1  0.25856553  0.85000808  0.11873733  1
  V  V46  1  0.63224788  0.49450631  0.62854665  1
  V  V47  1  -0.00149398  0.00600288  0.49441396  1
  V  V48  1  0.49864673  0.62858734  0.12272807  1
  V  V49  1  0.50068560  0.62469722  0.62914863  1
  V  V50  1  0.85876338  0.74490254  0.64260308  1
  V  V51  1  0.49642104  0.75767846  0.75154278  1
  V  V52  1  0.24642668  0.23833229  -0.00195239  1
  V  V53  1  0.00242222  0.13689181  0.62831340  1
  V  V54  1  0.75178129  0.75343603  0.00280137  1
  V  V55  1  0.50080365  0.25254955  0.75802559  1
  V  V56  1  0.50444850  0.49475159  -0.00491169  1
  V  V57  1  0.62679940  0.24974356  0.37528398  1
  V  V58  1  0.62155954  0.73038188  0.38003712  1
  V  V59  1  0.61654927  0.87759627  0.26400219  1
  V  V60  1  0.74661103  0.87479471  0.12621207  1
  V  V61  1  0.74955670  0.00719167  0.25203888  1
  V  V62  1  0.24610312  0.62413797  0.88481806  1
  V  V63  1  0.75447647  0.37736635  0.12298839  1
  V  V64  1  0.36739313  0.12256691  0.24274854  1
  V  V65  1  0.24754565  0.13111968  0.39290532  1
  V  V66  1  0.50647982  0.50597990  0.50101665  1
  V  V67  1  0.88682905  0.87930423  0.01102728  1
  V  V68  1  0.50214029  0.37316909  0.37488811  1
  V  V69  1  0.62348398  0.12385997  -0.00042194  1
  V  V70  1  0.75254723  0.25592101  0.50369535  1
  V  V71  1  0.01301263  0.72009013  0.74818043  1
  V  V72  1  0.37406605  0.00044913  0.37601586  1
  V  V73  1  0.48826989  -0.00505926  -0.01538844  1
  V  V74  1  0.87320130  0.39132989  0.48720865  1
  V  V75  1  0.12537068  0.50133662  0.12362828  1
  V  V76  1  0.01105950  0.37171774  0.86536355  1
  V  V77  1  0.37073939  0.11602545  0.76166711  1
  V  V78  1  0.37447282  0.85029667  -0.01348261  1
  Zn  Zn79  1  0.87253703  0.00188998  0.87830234  1
  Zn  Zn80  1  0.06672832  0.82182062  0.31879485  1
  Zn  Zn81  1  0.63005778  0.62802276  -0.00584723  1
  Zn  Zn82  1  0.13452759  0.25162081  0.39134607  1
  Zn  Zn83  1  0.89091427  0.52612963  0.86890833  1
  Zn  Zn84  1  0.48987289  0.12857968  0.12003024  1
  Zn  Zn85  1  0.61990077  0.25789040  0.88006435  1
  Zn  Zn86  1  0.13420723  0.75419546  0.87673301  1
  Zn  Zn87  1  0.01360326  0.01259304  -0.00810213  1
  Zn  Zn88  1  0.18620801  0.78798854  0.45699096  1
  Zn  Zn89  1  0.77203823  0.64562238  0.85573026  1
  Zn  Zn90  1  0.50528904  0.11844229  0.62800165  1
  Zn  Zn91  1  0.13159927  -0.02221263  0.12834303  1
  Zn  Zn92  1  0.62426815  0.37743497  0.75864007  1
  Zn  Zn93  1  0.86638815  0.87541264  0.49588886  1
  Zn  Zn94  1  0.18963205  0.19115658  0.18979822  1
  Zn  Zn95  1  0.18973581  0.18756755  0.68570608  1
  Zn  Zn96  1  0.18469200  0.68769518  0.18817775  1
  Zn  Zn97  1  0.18919950  0.67594539  0.68233652  1
  Zn  Zn98  1  0.68509665  0.18936324  0.18419317  1
  Zn  Zn99  1  0.68905747  0.18637775  0.68802393  1
  Zn  Zn100  1  0.68856537  0.68800738  0.19114163  1
  Zn  Zn101  1  0.68245785  0.68572650  0.68253731  1
  Zn  Zn102  1  0.31335834  0.30804376  0.31149215  1
  Zn  Zn103  1  0.31589715  0.31007316  0.81597334  1
  Zn  Zn104  1  0.23218848  0.81942628  0.30089523  1
  Zn  Zn105  1  0.31171739  0.81137105  0.81009993  1
  Zn  Zn106  1  0.81590448  0.31459467  0.31179231  1
  Zn  Zn107  1  0.80784332  0.31753976  0.81462299  1
  Zn  Zn108  1  0.80256734  0.81964296  0.31771490  1
  Zn  Zn109  1  0.81454045  0.82402894  0.81966401  1
  Zn  Zn110  1  0.19385788  0.44434872  0.43871651  1
  Zn  Zn111  1  0.19172149  0.43743707  0.93473384  1
  Zn  Zn112  1  0.18550202  0.95851161  0.43993056  1
  Zn  Zn113  1  0.18538736  0.93034770  0.94533434  1
  Zn  Zn114  1  0.69180384  0.44331331  0.44012552  1
  Zn  Zn115  1  0.69084362  0.43749134  0.93024191  1
  Zn  Zn116  1  0.71071156  0.92324408  0.57798003  1
  Zn  Zn117  1  0.68166022  0.93659301  0.93520575  1
  Zn  Zn118  1  0.30237631  0.04760494  0.06342173  1
  Zn  Zn119  1  0.31261511  0.05815214  0.56574657  1
  Zn  Zn120  1  0.31615123  0.56003330  0.05986460  1
  Zn  Zn121  1  0.31519039  0.55771781  0.56570360  1
  Zn  Zn122  1  0.80978292  0.05850161  0.06216415  1
  Zn  Zn123  1  0.81738482  0.07453047  0.55580745  1
  Zn  Zn124  1  0.82305181  0.57056634  0.06096258  1
  Zn  Zn125  1  0.80965028  0.57316000  0.56317429  1
  Zn  Zn126  1  0.44089024  0.43835266  0.18414075  1
  Zn  Zn127  1  0.44046862  0.43142478  0.68283054  1
  Zn  Zn128  1  0.40056168  0.91766688  0.19915134  1
  Zn  Zn129  1  0.43561399  0.93421591  0.68515584  1
  Zn  Zn130  1  0.94023787  0.43029367  0.19124694  1
  Zn  Zn131  1  0.94003791  0.44321448  0.68367907  1
  Zn  Zn132  1  0.93687018  0.94687596  0.18594707  1
  Zn  Zn133  1  0.88999558  0.94719302  0.66380795  1
  Zn  Zn134  1  0.06419699  0.06604816  0.30699432  1
  Zn  Zn135  1  0.06182586  0.06481958  0.80826534  1
  Zn  Zn136  1  0.05862684  0.56218885  0.31547906  1
  Zn  Zn137  1  0.06797844  0.55065813  0.81201491  1
  Zn  Zn138  1  0.55931092  0.06286138  0.31826872  1
  Zn  Zn139  1  0.56213724  0.06517255  0.81026778  1
  Zn  Zn140  1  0.56412548  0.55948871  0.30732210  1
  Zn  Zn141  1  0.56985722  0.57384245  0.80916629  1
  Zn  Zn142  1  0.44071263  0.18276022  0.43414234  1
  Zn  Zn143  1  0.43123525  0.18336595  0.94013261  1
  Zn  Zn144  1  0.43498535  0.68881558  0.43539906  1
  Zn  Zn145  1  0.43981229  0.67539646  0.92811948  1
  Zn  Zn146  1  0.97582145  0.22934283  0.47395995  1
  Zn  Zn147  1  0.94040298  0.19364564  0.93505612  1
  Zn  Zn148  1  0.94240728  0.67601767  0.44506363  1
  Zn  Zn149  1  0.95721849  0.70169661  0.93927239  1
  Zn  Zn150  1  0.06733084  0.31207581  0.06201403  1
  Zn  Zn151  1  0.07723806  0.36488996  0.53708510  1
  Zn  Zn152  1  0.07861955  0.80117498  0.05193456  1
  Zn  Zn153  1  0.03682774  0.82218036  0.57593588  1
  Zn  Zn154  1  0.56485205  0.31443673  0.06258167  1
  Zn  Zn155  1  0.56165744  0.31214527  0.56571985  1
  Zn  Zn156  1  0.55816076  0.81701964  0.06203238  1
  Zn  Zn157  1  0.56233339  0.81104520  0.56100080  1
  O  O158  1  0.12013504  0.12446445  0.12558685  1
  O  O159  1  0.10799768  0.12292312  0.63366150  1
  O  O160  1  0.11270805  0.60972861  0.13652033  1
  O  O161  1  0.12893185  0.62412223  0.60180301  1
  O  O162  1  0.62532290  0.11688157  0.11380374  1
  O  O163  1  0.62928651  0.12590695  0.60925245  1
  O  O164  1  0.61907694  0.61582113  0.12552829  1
  O  O165  1  0.61012121  0.61106039  0.62433334  1
  O  O166  1  0.38002211  0.38088689  0.37983033  1
  O  O167  1  0.37252374  0.38939931  0.88506397  1
  O  O168  1  0.36369016  0.88654247  0.38918710  1
  O  O169  1  0.37296780  0.87048863  0.88621806  1
  O  O170  1  0.87515619  0.37300706  0.38781445  1
  O  O171  1  0.88799502  0.36803180  0.88796825  1
  O  O172  1  0.87435160  0.89301178  0.37212977  1
  O  O173  1  0.89065445  0.88266636  0.88644152  1
  O  O174  1  0.26410903  0.01680720  0.37921917  1
  O  O175  1  0.24043996  -0.00968024  0.85748727  1
  O  O176  1  0.26436556  0.50274261  0.36840306  1
  O  O177  1  0.26238164  0.50108061  0.86287793  1
  O  O178  1  0.75724902  0.01048332  0.36433267  1
  O  O179  1  0.75013947  0.01670967  0.88345947  1
  O  O180  1  0.74323739  0.50198004  0.35691401  1
  O  O181  1  0.75585533  0.51044671  0.86624870  1
  O  O182  1  0.24421064  0.49377211  0.12888241  1
  O  O183  1  0.26417810  0.48489055  0.63786739  1
  O  O184  1  0.24672632  0.97636609  0.12490189  1
  O  O185  1  0.23744419  0.99166447  0.62625294  1
  O  O186  1  0.74515394  0.49771239  0.12686978  1
  O  O187  1  0.73507259  0.50614459  0.63333746  1
  O  O188  1  0.73720075  0.99589371  0.13273796  1
  O  O189  1  0.78826170  0.98903458  0.62119169  1
  O  O190  1  0.01349122  0.35948356  0.24428347  1
  O  O191  1  -0.00568975  0.38189814  0.76830452  1
  O  O192  1  0.02408490  0.91260280  0.25482575  1
  O  O193  1  -0.00696673  0.90202423  0.74623944  1
  O  O194  1  0.50540192  0.36919083  0.25409672  1
  O  O195  1  0.49552374  0.35463274  0.74922652  1
  O  O196  1  0.50056675  0.86015639  0.23836201  1
  O  O197  1  0.50851568  0.86179296  0.74102606  1
  O  O198  1  0.49433066  0.13362348  0.24981795  1
  O  O199  1  0.48651725  0.12682903  0.74568997  1
  O  O200  1  0.49628562  0.62759134  0.24104988  1
  O  O201  1  0.50250009  0.63976604  0.73826316  1
  O  O202  1  1.00548639  0.13989910  0.23366863  1
  O  O203  1  0.98504037  0.12624870  0.74138260  1
  O  O204  1  0.99087480  0.62660535  0.24239094  1
  O  O205  1  0.99404798  0.62292534  0.76433668  1
  O  O206  1  0.36434601  0.26290886  -0.00924530  1
  O  O207  1  0.38680521  0.25780754  0.50681658  1
  O  O208  1  0.39026992  0.75173445  -0.00482883  1
  O  O209  1  0.38402243  0.76021993  0.50968923  1
  O  O210  1  0.87019478  0.25780247  0.00707668  1
  O  O211  1  0.86855572  0.26223326  0.51356487  1
  O  O212  1  0.86473073  0.77353247  -0.00140627  1
  O  O213  1  0.85924464  0.74914344  0.48068539  1
  O  O214  1  0.08437099  0.26355526  0.48986577  1
  O  O215  1  0.14092923  0.25436233  0.99337373  1
  O  O216  1  0.07778332  0.75457055  0.48479452  1
  O  O217  1  0.06565065  0.73447834  0.96413493  1
  O  O218  1  0.63130444  0.24483967  0.49630560  1
  O  O219  1  0.63003149  0.23951395  1.00371736  1
  O  O220  1  0.62093030  0.75024560  0.48276742  1
  O  O221  1  0.63028247  0.75664938  0.99135124  1
  O  O222  1  0.50504456  0.24900892  0.13747592  1
  O  O223  1  0.49222861  0.24349837  0.63460571  1
  O  O224  1  0.51103269  0.73537742  0.13342903  1
  O  O225  1  0.49481010  0.74304614  0.63001086  1
  O  O226  1  0.99646684  0.24147977  0.12662769  1
  O  O227  1  0.98096172  0.24042718  0.62527798  1
  O  O228  1  1.00803737  0.73531094  0.12456744  1
  O  O229  1  0.99032924  0.74864056  0.65105625  1
  O  O230  1  -0.00823469  0.23675937  0.35664988  1
  O  O231  1  0.01533996  0.26302041  0.88083293  1
  O  O232  1  0.02312527  0.76116662  0.41695025  1
  O  O233  1  -0.01858226  0.77367946  0.83520697  1
  O  O234  1  0.50726442  0.25462405  0.36623827  1
  O  O235  1  0.49768650  0.23964438  0.86116022  1
  O  O236  1  0.50989594  0.74179328  0.36243940  1
  O  O237  1  0.50554848  0.74285857  0.85711920  1
  O  O238  1  0.25138273  0.12553206  0.49295534  1
  O  O239  1  0.25984493  0.14087393  1.00692092  1
  O  O240  1  0.25562904  0.61006468  0.48476532  1
  O  O241  1  0.25410295  0.61735276  0.98508936  1
  O  O242  1  0.74536863  0.13642154  0.48986976  1
  O  O243  1  0.74183879  0.12999902  0.99532181  1
  O  O244  1  0.74141007  0.64380137  0.50160400  1
  O  O245  1  0.74900041  0.64698482  1.01449431  1
  O  O246  1  0.25950259  0.37445084  0.00689948  1
  O  O247  1  0.26582438  0.38145097  0.51398831  1
  O  O248  1  0.26457819  0.86232957  -0.00148391  1
  O  O249  1  0.25355229  0.87253574  0.51210169  1
  O  O250  1  0.75973280  0.37133302  0.00325052  1
  O  O251  1  0.75138018  0.36017275  0.49556770  1
  O  O252  1  0.75134235  0.87441845  0.00945161  1
  O  O253  1  0.74763311  0.85415235  0.49698083  1
  O  O254  1  0.13169801  0.48976792  0.24269392  1
  O  O255  1  0.14250942  0.48964793  0.74907466  1
  O  O256  1  0.09152250  0.96908224  0.24523151  1
  O  O257  1  0.13753362  1.00833926  0.73819392  1
  O  O258  1  0.63507207  0.49676011  0.23868123  1
  O  O259  1  0.62466013  0.49965934  0.74002617  1
  O  O260  1  0.62485475  0.99594248  0.24538712  1
  O  O261  1  0.61710597  0.98536396  0.75152950  1
  O  O262  1  0.38721166  0.01416455  0.26345676  1
  O  O263  1  0.36497767  0.00826987  0.74384370  1
  O  O264  1  0.37602335  0.50350078  0.25881233  1
  O  O265  1  0.38263651  0.49302513  0.76171236  1
  O  O266  1  0.85857766  0.00010934  0.25357731  1
  O  O267  1  0.87232708  0.01783496  0.75637696  1
  O  O268  1  0.86380830  0.49405134  0.24867972  1
  O  O269  1  0.86360421  0.50085952  0.75185601  1
  O  O270  1  0.14179185  0.37367927  0.36012570  1
  O  O271  1  0.11527203  0.37223841  0.87719189  1
  O  O272  1  0.15839479  0.87001883  0.37747246  1
  O  O273  1  0.10408676  0.87301460  0.86982062  1
  O  O274  1  0.62142540  0.37096228  0.36976898  1
  O  O275  1  0.62185103  0.37068982  0.87371929  1
  O  O276  1  0.61597260  0.87228935  0.36122396  1
  O  O277  1  0.62475104  0.86524086  0.86247032  1
  O  O278  1  0.37325398  0.11569051  0.14022449  1
  O  O279  1  0.37473225  0.13288794  0.62959914  1
  O  O280  1  0.38876120  0.61102370  0.13420370  1
  O  O281  1  0.38380142  0.63590531  0.61797358  1
  O  O282  1  0.87289672  0.13841359  0.12127854  1
  O  O283  1  0.87706824  0.13464155  0.64048812  1
  O  O284  1  0.89086286  0.62355495  0.13807541  1
  O  O285  1  0.87831479  0.64935381  0.61174818  1
  O  O286  1  0.24652215  0.26184027  0.11288391  1
  O  O287  1  0.26562027  0.25921090  0.63296934  1
  O  O288  1  0.25695196  0.74754130  0.11924698  1
  O  O289  1  0.25873482  0.75802585  0.63338117  1
  O  O290  1  0.75671178  0.25709657  0.12069711  1
  O  O291  1  0.76112839  0.24350081  0.61590547  1
  O  O292  1  0.73840708  0.76803357  0.12094911  1
  O  O293  1  0.75377139  0.74880958  0.61336972  1
  O  O294  1  0.25282783  0.23743704  0.37772763  1
  O  O295  1  0.24135777  0.25517567  0.88710902  1
  O  O296  1  0.26004596  0.73214523  0.38539435  1
  O  O297  1  0.24876538  0.72919380  0.86186496  1
  O  O298  1  0.74624498  0.24480948  0.37872108  1
  O  O299  1  0.74822164  0.24046305  0.88352170  1
  O  O300  1  0.73048620  0.75070630  0.37722438  1
  O  O301  1  0.74317507  0.75746470  0.88705751  1
  O  O302  1  -0.00089489  0.13131882  0.01210327  1
  O  O303  1  -0.01606745  0.11915717  0.52199984  1
  O  O304  1  -0.00612842  0.60516271  0.02210539  1
  O  O305  1  0.00194243  0.59409134  0.49163500  1
  O  O306  1  0.50741725  0.11871925  0.00149020  1
  O  O307  1  0.51023130  0.11654358  0.50088541  1
  O  O308  1  0.50423029  0.61298610  0.00726792  1
  O  O309  1  0.49357405  0.61109160  0.50546493  1
  O  O310  1  0.49316679  0.38258356  0.49447735  1
  O  O311  1  0.49342945  0.38624632  1.00743850  1
  O  O312  1  0.49160899  0.88578968  0.50275337  1
  O  O313  1  0.48978058  0.88771073  0.99995300  1
  O  O314  1  0.96855291  0.39007413  0.51829327  1
  O  O315  1  0.99583296  0.38107465  0.99808090  1
  O  O316  1  0.99210568  0.90352306  0.50377069  1
  O  O317  1  0.98655791  0.87812124  1.01932216  1
  O  O318  1  0.49705007  0.49468893  0.37983087  1
  O  O319  1  0.49405965  0.51107233  0.88189612  1
  O  O320  1  0.48726590  1.00677670  0.39195041  1
  O  O321  1  0.50366584  1.00278755  0.88675978  1
  O  O322  1  0.99414976  0.50297018  0.38347934  1
  O  O323  1  1.00244322  0.48803383  0.88788054  1
  O  O324  1  0.99211813  1.02091057  0.38808558  1
  O  O325  1  0.99853507  0.99377697  0.87589161  1
  O  O326  1  -0.00360003  0.02325303  0.12308839  1
  O  O327  1  0.00045517  0.01239727  0.61904485  1
  O  O328  1  0.01085706  0.49275518  0.12285779  1
  O  O329  1  0.01208688  0.51082724  0.63465030  1
  O  O330  1  0.50856755  0.00322584  0.11769102  1
  O  O331  1  0.49121831  0.00266127  0.60796307  1
  O  O332  1  0.51271808  0.50585740  0.11753756  1
  O  O333  1  0.50208201  0.50603600  0.61888872  1
  O  O334  1  0.24966464  0.37706864  0.24040251  1
  O  O335  1  0.26425530  0.38190924  0.74052802  1
  O  O336  1  0.29251933  0.86584883  0.22052823  1
  O  O337  1  0.25786384  0.88858719  0.73713618  1
  O  O338  1  0.74702800  0.38555631  0.24320065  1
  O  O339  1  0.74492536  0.39489731  0.75579688  1
  O  O340  1  0.73624746  0.88671537  0.24483037  1
  O  O341  1  0.73663178  0.87829067  0.75284303  1
  O  O342  1  0.26539546  0.13045018  0.25428046  1
  O  O343  1  0.26125519  0.11157578  0.74309833  1
  O  O344  1  0.26171335  0.61612075  0.25587291  1
  O  O345  1  0.25431288  0.60383443  0.74930031  1
  O  O346  1  0.73762673  0.11700296  0.25726875  1
  O  O347  1  0.75964630  0.13179401  0.76047492  1
  O  O348  1  0.76689945  0.61541924  0.23979828  1
  O  O349  1  0.74164535  0.60991891  0.74843580  1
  O  O350  1  0.36632402  0.12071800  0.37034312  1
  O  O351  1  0.37132817  0.12352854  0.86010845  1
  O  O352  1  0.37389045  0.61328493  0.36711741  1
  O  O353  1  0.36533753  0.60629859  0.87356645  1
  O  O354  1  0.86159434  0.12098187  0.37300930  1
  O  O355  1  0.87028899  0.13083960  0.86499673  1
  O  O356  1  0.88328777  0.63012865  0.35501922  1
  O  O357  1  0.87606022  0.63266630  0.90090293  1
  O  O358  1  0.13706763  0.38038631  0.13396913  1
  O  O359  1  0.14849301  0.36302014  0.62982729  1
  O  O360  1  0.14892489  0.85788569  0.11663014  1
  O  O361  1  0.12927416  0.88469834  0.61994659  1
  O  O362  1  0.63287010  0.38526291  0.12846779  1
  O  O363  1  0.61640041  0.38995332  0.63300098  1
  O  O364  1  0.62811775  0.88552330  0.13124036  1
  O  O365  1  0.62537032  0.87352293  0.63460892  1
  O  O366  1  0.11626164  0.25560574  0.25413666  1
  O  O367  1  0.13765930  0.24967926  0.76705948  1
  O  O368  1  0.14041593  0.75678533  0.26196985  1
  O  O369  1  0.11552362  0.73273826  0.75479323  1
  O  O370  1  0.61969251  0.25673496  0.25461870  1
  O  O371  1  0.60884491  0.24402750  0.74838607  1
  O  O372  1  0.61897480  0.75542619  0.25952588  1
  O  O373  1  0.61702096  0.75883402  0.75221656  1
  O  O374  1  0.38601557  0.23598997  0.25528232  1
  O  O375  1  0.38174437  0.23667001  0.74545091  1
  O  O376  1  0.38700105  0.73201732  0.25438261  1
  O  O377  1  0.38887513  0.75831972  0.73670755  1
  O  O378  1  0.88920590  0.26150979  0.23753689  1
  O  O379  1  0.86669304  0.24671929  0.74135933  1
  O  O380  1  0.86863571  0.74863476  0.25262736  1
  O  O381  1  0.85556675  0.74532164  0.74386517  1
  O  O382  1  0.38540087  0.48964767  0.49116944  1
  O  O383  1  0.38684520  0.49273272  0.99135241  1
  O  O384  1  0.38052757  0.99228991  0.49602535  1
  O  O385  1  0.38928584  1.01116366  0.99600872  1
  O  O386  1  0.84071630  0.48617534  0.50110050  1
  O  O387  1  0.88474638  0.48851626  1.00314430  1
  O  O388  1  0.88163463  1.00437067  0.48568097  1
  O  O389  1  0.87730087  0.99053673  0.99872536  1
  O  O390  1  0.12162524  -0.00957585  0.01283506  1
  O  O391  1  0.10954263  0.00942184  0.51118704  1
  O  O392  1  0.11934879  0.49013925  0.01326783  1
  O  O393  1  0.11835765  0.47556384  0.51376128  1
  O  O394  1  0.61559089  0.00601453  0.00593221  1
  O  O395  1  0.61304027  0.00343902  0.50082849  1
  O  O396  1  0.62249971  0.50204059  0.00658988  1
  O  O397  1  0.61644801  0.49232834  0.51331001  1
  O  O398  1  0.36614299  0.38467351  0.11414414  1
  O  O399  1  0.37535354  0.36221983  0.61686860  1
  O  O400  1  0.37001741  0.87640035  0.09621195  1
  O  O401  1  0.36506492  0.86818655  0.61433370  1
  O  O402  1  0.87329437  0.36588362  0.11452345  1
  O  O403  1  0.86898019  0.36557894  0.63256067  1
  O  O404  1  0.86096025  0.88665080  0.11901070  1
  O  O405  1  0.88612671  0.84583261  0.61009759  1
  O  O406  1  0.14493426  0.12294297  0.36752675  1
  O  O407  1  0.11710365  0.13932176  0.87614848  1
  O  O408  1  0.14604147  0.61582040  0.36881188  1
  O  O409  1  0.14553045  0.60963063  0.87314447  1
  O  O410  1  0.63223100  0.13055561  0.38577695  1
  O  O411  1  0.63101214  0.12879704  0.88495381  1
  O  O412  1  0.62461094  0.63114154  0.37176392  1
  O  O413  1  0.63270172  0.64452471  0.87599511  1
