# generated using pymatgen
data_V79Zn79O256
_symmetry_space_group_name_H-M   'P 1'
_cell_length_a   16.90013285
_cell_length_b   16.92374027
_cell_length_c   16.92229656
_cell_angle_alpha   90.33465666
_cell_angle_beta   90.00746506
_cell_angle_gamma   90.18307590
_symmetry_Int_Tables_number   1
_chemical_formula_structural   V79Zn79O256
_chemical_formula_sum   'V79 Zn79 O256'
_cell_volume   4839.89724794
_cell_formula_units_Z   1
loop_
 _symmetry_equiv_pos_site_id
 _symmetry_equiv_pos_as_xyz
  1  'x, y, z'
loop_
 _atom_site_type_symbol
 _atom_site_label
 _atom_site_symmetry_multiplicity
 _atom_site_fract_x
 _atom_site_fract_y
 _atom_site_fract_z
 _atom_site_occupancy
  V  V0  1  0.24232571  0.62532801  0.37840676  1
  V  V1  1  0.11493634  0.76433177  0.35987841  1
  V  V2  1  0.13163920  0.48587717  0.12282491  1
  V  V3  1  0.74888473  0.37345815  0.62186261  1
  V  V4  1  0.75519306  0.62622483  0.87420851  1
  V  V5  1  0.25569693  0.49566144  0.74932672  1
  V  V6  1  0.74850898  0.26591377  0.00243493  1
  V  V7  1  0.38195490  0.11647170  0.24754607  1
  V  V8  1  0.62684423  0.11875704  0.00129098  1
  V  V9  1  0.00440975  0.51025746  0.50231532  1
  V  V10  1  0.88233455  0.37604932  0.49997996  1
  V  V11  1  -0.01777472  0.00484205  -0.01032224  1
  V  V12  1  -0.00005614  0.62867059  0.64534504  1
  V  V13  1  0.88334537  0.49696786  0.37717872  1
  V  V14  1  0.74626586  0.86920247  0.62788328  1
  V  V15  1  0.61420022  0.50122562  0.62867171  1
  V  V16  1  0.88010600  0.25281567  0.62927451  1
  V  V17  1  0.63113757  0.24291572  0.37787858  1
  V  V18  1  0.87546173  0.12421276  0.75475394  1
  V  V19  1  0.37875565  0.24081321  0.61375372  1
  V  V20  1  0.49479040  0.38618991  0.38251373  1
  V  V21  1  0.75312381  0.61741390  0.37332349  1
  V  V22  1  0.23031059  0.87586689  0.12689280  1
  V  V23  1  0.62579724  -0.01392999  0.12385609  1
  V  V24  1  0.13211874  0.62080882  -0.00052604  1
  V  V25  1  0.00204111  0.25982712  0.25898228  1
  V  V26  1  0.62901931  0.62848959  -0.00556211  1
  V  V27  1  0.38224632  -0.00727543  0.87640387  1
  V  V28  1  0.49898124  0.62547948  0.13163238  1
  V  V29  1  0.25141044  0.36653997  0.60342348  1
  V  V30  1  0.00532145  0.12587424  0.12736248  1
  V  V31  1  0.12130686  0.00239473  0.62384783  1
  V  V32  1  0.61561511  0.61906761  0.50442783  1
  V  V33  1  -0.01027053  -0.00515489  0.49782376  1
  V  V34  1  -0.01301345  0.37457749  0.87459143  1
  V  V35  1  0.62250316  0.01139404  0.61975871  1
  V  V36  1  0.37925806  0.87523891  0.49981922  1
  V  V37  1  0.50564861  0.01296118  0.49853399  1
  V  V38  1  0.75049584  0.74248784  0.50241727  1
  V  V39  1  0.48963814  0.49065763  0.00212342  1
  V  V40  1  0.76202763  0.49956780  0.75525446  1
  V  V41  1  0.63542268  0.37945550  0.25146734  1
  V  V42  1  0.48689868  0.36418492  0.86980456  1
  V  V43  1  0.25305240  0.75085223  0.00074485  1
  V  V44  1  0.87008675  0.26763535  0.11852097  1
  V  V45  1  0.37248583  0.50676698  0.87427970  1
  V  V46  1  0.48578661  0.26773336  0.23987625  1
  V  V47  1  0.50561827  0.86800327  0.36495556  1
  V  V48  1  0.87416230  0.86856046  0.49233782  1
  V  V49  1  0.83996146  0.04608156  0.41214250  1
  V  V50  1  0.75149068  -0.00043071  0.75841189  1
  V  V51  1  0.12554148  0.37613724  0.27350392  1
  V  V52  1  0.62103429  0.24811057  0.87055666  1
  V  V53  1  0.12566069  0.12243125  0.00449799  1
  V  V54  1  0.88475151  0.63280399  0.24952726  1
  V  V55  1  0.85698058  0.13219345  0.24782512  1
  V  V56  1  0.12053367  0.12772459  0.47754284  1
  V  V57  1  0.25180265  0.50050365  0.25019590  1
  V  V58  1  0.00235720  0.63178244  0.12605184  1
  V  V59  1  0.87633546  0.74338626  0.64068397  1
  V  V60  1  0.12732972  0.25601346  0.86873338  1
  V  V61  1  0.00237791  0.13282594  0.62988813  1
  V  V62  1  0.50065829  0.12689177  0.12153758  1
  V  V63  1  0.38032151  0.75270938  0.13428329  1
  V  V64  1  0.24053675  -0.00319615  0.24671640  1
  V  V65  1  0.25360990  0.12852953  0.87606792  1
  V  V66  1  -0.01532098  0.49297542  -0.00080547  1
  V  V67  1  0.24039458  0.74991398  0.49852356  1
  V  V68  1  0.61755794  0.86463425  0.75656770  1
  V  V69  1  0.12603336  0.50337260  0.62129420  1
  V  V70  1  0.63718979  0.49260494  0.12215670  1
  V  V71  1  0.26095484  0.25680631  0.03019219  1
  V  V72  1  0.74908373  -0.01687254  0.24465546  1
  V  V73  1  0.38298690  0.74558303  0.63827820  1
  V  V74  1  0.24875418  0.88073899  0.62077966  1
  V  V75  1  0.62047968  0.74721410  0.36928610  1
  V  V76  1  0.37601562  0.62413366  0.25842685  1
  V  V77  1  0.25115309  0.01010455  0.74728525  1
  V  V78  1  0.37667815  0.00007744  0.37196931  1
  Zn  Zn79  1  0.24977468  0.63303101  0.86171103  1
  Zn  Zn80  1  0.76605215  0.49593413  0.23299692  1
  Zn  Zn81  1  0.61865700  0.36984543  0.74810899  1
  Zn  Zn82  1  0.75228844  0.22397351  0.49339386  1
  Zn  Zn83  1  0.78444668  0.82982262  0.08227402  1
  Zn  Zn84  1  -0.01195081  0.87270963  0.86392531  1
  Zn  Zn85  1  0.11120130  0.75384345  0.87520001  1
  Zn  Zn86  1  0.41424682  0.88477933  0.00693092  1
  Zn  Zn87  1  0.46416999  0.82600392  0.83544945  1
  Zn  Zn88  1  0.48128273  0.49908010  0.50610721  1
  Zn  Zn89  1  0.26257241  0.22559963  0.44140706  1
  Zn  Zn90  1  0.12002102  0.36847852  0.74054119  1
  Zn  Zn91  1  0.11712519  0.86532872  0.75114389  1
  Zn  Zn92  1  0.40193315  0.13393599  0.74325973  1
  Zn  Zn93  1  0.75622496  0.12549424  0.88104330  1
  Zn  Zn94  1  0.20850113  0.20232761  0.23491013  1
  Zn  Zn95  1  0.18973923  0.18861723  0.68203353  1
  Zn  Zn96  1  0.18539344  0.68807865  0.18697670  1
  Zn  Zn97  1  0.18911646  0.68656841  0.68692744  1
  Zn  Zn98  1  0.67900589  0.19990838  0.18273745  1
  Zn  Zn99  1  0.69029334  0.18844109  0.68767389  1
  Zn  Zn100  1  0.68245458  0.68290525  0.18771486  1
  Zn  Zn101  1  0.68469307  0.68144378  0.69231404  1
  Zn  Zn102  1  0.32211564  0.31905673  0.28775777  1
  Zn  Zn103  1  0.31023929  0.31070673  0.79940267  1
  Zn  Zn104  1  0.30816922  0.81393188  0.31272364  1
  Zn  Zn105  1  0.28204810  0.80897005  0.80163842  1
  Zn  Zn106  1  0.81390507  0.31300429  0.31414096  1
  Zn  Zn107  1  0.80492444  0.31046392  0.81215719  1
  Zn  Zn108  1  0.81131783  0.80510966  0.30797244  1
  Zn  Zn109  1  0.80616335  0.80973733  0.82245991  1
  Zn  Zn110  1  0.31132121  0.44189013  0.43187100  1
  Zn  Zn111  1  0.19819277  0.42980275  0.94444869  1
  Zn  Zn112  1  0.18476535  0.94170396  0.43299288  1
  Zn  Zn113  1  0.18157316  0.93572722  0.93972834  1
  Zn  Zn114  1  0.68759791  0.43462885  0.43988815  1
  Zn  Zn115  1  0.67961026  0.43873791  0.93467697  1
  Zn  Zn116  1  0.68679042  0.93331027  0.43738915  1
  Zn  Zn117  1  0.80328367  0.93346665  0.94328383  1
  Zn  Zn118  1  0.31188890  0.05905846  0.06098986  1
  Zn  Zn119  1  0.30776248  0.06781166  0.54909090  1
  Zn  Zn120  1  0.31499474  0.56177414  0.06594783  1
  Zn  Zn121  1  0.31077460  0.56965802  0.56838795  1
  Zn  Zn122  1  0.80959230  0.07174541  0.07006708  1
  Zn  Zn123  1  0.81184595  0.05924821  0.58323786  1
  Zn  Zn124  1  0.81570860  0.66352255  0.06239742  1
  Zn  Zn125  1  0.81414352  0.56025236  0.56922501  1
  Zn  Zn126  1  0.44205783  0.44158426  0.19558701  1
  Zn  Zn127  1  0.43099976  0.42286399  0.68555626  1
  Zn  Zn128  1  0.44665955  0.93511748  0.18520499  1
  Zn  Zn129  1  0.43836025  0.94628673  0.68704712  1
  Zn  Zn130  1  0.94512567  0.44360641  0.18696396  1
  Zn  Zn131  1  0.94207186  0.43644440  0.69133576  1
  Zn  Zn132  1  0.94286074  0.92806875  0.18210209  1
  Zn  Zn133  1  0.93475724  0.93480439  0.68886411  1
  Zn  Zn134  1  0.03742328  0.04096553  0.30482334  1
  Zn  Zn135  1  0.06466950  0.06609603  0.81319506  1
  Zn  Zn136  1  0.06635005  0.56491976  0.31435292  1
  Zn  Zn137  1  0.06765544  0.55440763  0.81624694  1
  Zn  Zn138  1  0.56279611  0.05904093  0.30801008  1
  Zn  Zn139  1  0.56544655  0.05889413  0.81129401  1
  Zn  Zn140  1  0.56586014  0.56213801  0.31183158  1
  Zn  Zn141  1  0.55770376  0.55925136  0.81442698  1
  Zn  Zn142  1  0.44228754  0.19661728  0.43210019  1
  Zn  Zn143  1  0.43279567  0.18406706  0.94284788  1
  Zn  Zn144  1  0.43287294  0.68808772  0.44339051  1
  Zn  Zn145  1  0.46707973  0.71346698  0.96598052  1
  Zn  Zn146  1  0.94276080  0.19214868  0.44110342  1
  Zn  Zn147  1  0.93909624  0.19485035  0.93931228  1
  Zn  Zn148  1  0.94158106  0.68640283  0.44227281  1
  Zn  Zn149  1  0.92736641  0.68827944  0.91575569  1
  Zn  Zn150  1  0.06418561  0.30737023  0.05847572  1
  Zn  Zn151  1  0.06934234  0.31470830  0.54939491  1
  Zn  Zn152  1  -0.04577648  0.80641021  0.03675969  1
  Zn  Zn153  1  0.05785252  0.81074396  0.56366627  1
  Zn  Zn154  1  0.56114501  0.31244149  0.05807895  1
  Zn  Zn155  1  0.56422644  0.30791527  0.55759812  1
  Zn  Zn156  1  0.61975171  0.84439533  -0.02993873  1
  Zn  Zn157  1  0.56209337  0.81342437  0.55926884  1
  O  O158  1  0.10801176  0.13595428  0.11988821  1
  O  O159  1  0.11828429  0.11943937  0.61490793  1
  O  O160  1  0.11866351  0.61277421  0.12150995  1
  O  O161  1  0.11176769  0.61862438  0.63116483  1
  O  O162  1  0.61839497  0.12417105  0.11913784  1
  O  O163  1  0.63931581  0.10949941  0.61991235  1
  O  O164  1  0.61798528  0.60928931  0.11906479  1
  O  O165  1  0.62645466  0.60929090  0.62000745  1
  O  O166  1  0.39018568  0.37823081  0.36890130  1
  O  O167  1  0.38345872  0.37414698  0.87143530  1
  O  O168  1  0.38324748  0.87850602  0.38252673  1
  O  O169  1  0.36512004  0.88935393  0.86029928  1
  O  O170  1  0.86940846  0.38656223  0.38682679  1
  O  O171  1  0.88857395  0.36269156  0.87434403  1
  O  O172  1  0.86619226  0.86327762  0.39315853  1
  O  O173  1  0.87315799  0.88249443  0.87103359  1
  O  O174  1  0.26459689  -0.01261598  0.35812450  1
  O  O175  1  0.25100011  0.01055525  0.86571610  1
  O  O176  1  0.24815103  0.51268798  0.36252224  1
  O  O177  1  0.25541347  0.48933866  0.86138155  1
  O  O178  1  0.75616808  -0.00404172  0.36422402  1
  O  O179  1  0.74783583  0.00574607  0.86064750  1
  O  O180  1  0.76165839  0.50919343  0.38266554  1
  O  O181  1  0.74294992  0.49575050  0.85849542  1
  O  O182  1  0.24211642  0.50754536  0.13939638  1
  O  O183  1  0.24475490  0.49104281  0.63003114  1
  O  O184  1  0.25632461  0.98419571  0.13146505  1
  O  O185  1  0.24094577  1.00001589  0.62332660  1
  O  O186  1  0.73581941  0.49853228  0.11748114  1
  O  O187  1  0.74186799  0.49297999  0.63616285  1
  O  O188  1  0.74088280  1.00163101  0.13653220  1
  O  O189  1  0.73880745  0.98705211  0.63095211  1
  O  O190  1  0.00975773  0.36818537  0.24873782  1
  O  O191  1  0.00563280  0.38097436  0.76907574  1
  O  O192  1  -0.00157191  0.94160141  0.27275066  1
  O  O193  1  0.00482358  0.87498834  0.74754526  1
  O  O194  1  0.52083116  0.38271218  0.26605006  1
  O  O195  1  0.49964608  0.37328366  0.76554043  1
  O  O196  1  0.49928951  0.87241508  0.26604343  1
  O  O197  1  0.51206726  0.88024747  0.74558658  1
  O  O198  1  0.49954513  0.13345181  0.23794194  1
  O  O199  1  0.51157986  0.12220078  0.74025908  1
  O  O200  1  0.48892964  0.61404981  0.24369067  1
  O  O201  1  0.49585241  0.65644064  0.78718054  1
  O  O202  1  0.99354752  0.13882783  0.23805134  1
  O  O203  1  0.99317146  0.11998248  0.73656712  1
  O  O204  1  0.99976472  0.61587448  0.23469661  1
  O  O205  1  1.00156309  0.62073571  0.74479596  1
  O  O206  1  0.35893911  0.23873657  0.00928069  1
  O  O207  1  0.35998371  0.23840465  0.50106046  1
  O  O208  1  0.36421425  0.73971620  0.02107717  1
  O  O209  1  0.36465336  0.76274113  0.50676391  1
  O  O210  1  0.86609527  0.24943566  0.01201476  1
  O  O211  1  0.87361687  0.26059180  0.50742888  1
  O  O212  1  0.86671109  0.74154027  -0.00199397  1
  O  O213  1  0.86634794  0.74998140  0.51000108  1
  O  O214  1  0.11415163  0.22976064  0.48755988  1
  O  O215  1  0.13890400  0.24065949  0.99423193  1
  O  O216  1  0.13779649  0.75833998  0.49808572  1
  O  O217  1  0.14656699  0.73481371  1.00343454  1
  O  O218  1  0.62933540  0.24784663  0.48390249  1
  O  O219  1  0.63075271  0.24291926  0.99438374  1
  O  O220  1  0.63464567  0.73752797  0.49948685  1
  O  O221  1  0.62060884  0.72638315  1.00160649  1
  O  O222  1  0.50922951  0.23695589  0.13142197  1
  O  O223  1  0.47850154  0.25520234  0.60978333  1
  O  O224  1  0.49218859  0.72862288  0.12030976  1
  O  O225  1  0.48108560  0.75833064  0.61703909  1
  O  O226  1  0.98667321  0.24603993  0.12588830  1
  O  O227  1  0.99247414  0.24426134  0.61797991  1
  O  O228  1  1.00879098  0.72837228  0.11313431  1
  O  O229  1  0.99428502  0.73582071  0.62528249  1
  O  O230  1  -0.00660284  0.25188406  0.35713081  1
  O  O231  1  0.01724241  0.26352731  0.88658137  1
  O  O232  1  0.01790109  0.74315534  0.38362486  1
  O  O233  1  0.00452739  0.76547063  0.91331203  1
  O  O234  1  0.50832981  0.26563288  0.36238837  1
  O  O235  1  0.50276010  0.25862872  0.88510095  1
  O  O236  1  0.50957303  0.75656454  0.38931560  1
  O  O237  1  0.50120408  0.71086157  0.84661853  1
  O  O238  1  0.22644855  0.11811322  0.48374503  1
  O  O239  1  0.24439812  0.12954149  0.99476267  1
  O  O240  1  0.25509763  0.63977935  0.49047727  1
  O  O241  1  0.24624961  0.63236057  1.00668443  1
  O  O242  1  0.79047484  0.11239719  0.48292652  1
  O  O243  1  0.74057125  0.13581299  1.00085582  1
  O  O244  1  0.74634615  0.62855170  0.49652926  1
  O  O245  1  0.73701520  0.61350972  0.98874673  1
  O  O246  1  0.25114281  0.35602785  0.01161441  1
  O  O247  1  0.24498035  0.37645054  0.50341426  1
  O  O248  1  0.24771045  0.86272249  0.01226300  1
  O  O249  1  0.25864715  0.87549694  0.50403638  1
  O  O250  1  0.74151236  0.36476149  -0.00352464  1
  O  O251  1  0.76352622  0.38268154  0.51350955  1
  O  O252  1  0.72505737  0.87758979  0.00088833  1
  O  O253  1  0.75262003  0.86042572  0.50845340  1
  O  O254  1  0.12638075  0.48906469  0.24523377  1
  O  O255  1  0.13329754  0.49303662  0.73884516  1
  O  O256  1  0.14430033  1.00833156  0.25201345  1
  O  O257  1  0.13117486  1.00828670  0.73391592  1
  O  O258  1  0.62988949  0.49837224  0.23585219  1
  O  O259  1  0.62344753  0.49680014  0.73730953  1
  O  O260  1  0.64221975  1.00254835  0.24284960  1
  O  O261  1  0.63307503  0.99046809  0.73579202  1
  O  O262  1  0.38188456  0.00128430  0.25665546  1
  O  O263  1  0.36495351  0.01055521  0.75388441  1
  O  O264  1  0.36345367  0.51081862  0.24593671  1
  O  O265  1  0.36306775  0.48997318  0.75477500  1
  O  O266  1  0.85391508  0.02371079  0.24481937  1
  O  O267  1  0.86231801  0.01319750  0.73389469  1
  O  O268  1  0.87999045  0.50465108  0.26174167  1
  O  O269  1  0.86084978  0.49698225  0.74664885  1
  O  O270  1  0.11893789  0.38083237  0.36809266  1
  O  O271  1  0.13183306  0.36069552  0.87548487  1
  O  O272  1  0.12589943  0.86435416  0.37538832  1
  O  O273  1  0.11741949  0.87538824  0.87020938  1
  O  O274  1  0.62213522  0.36894599  0.37057538  1
  O  O275  1  0.61064375  0.36422918  0.87399708  1
  O  O276  1  0.61860241  0.85949315  0.38421587  1
  O  O277  1  0.62685145  0.87409375  0.85516097  1
  O  O278  1  0.39369698  0.11093645  0.13047156  1
  O  O279  1  0.36254614  0.13587527  0.62135792  1
  O  O280  1  0.37945163  0.62979883  0.13811791  1
  O  O281  1  0.36685923  0.64658265  0.63151050  1
  O  O282  1  0.87936494  0.14084371  0.13627830  1
  O  O283  1  0.88350981  0.13547553  0.63207266  1
  O  O284  1  0.89391236  0.61413297  0.13452199  1
  O  O285  1  0.88849793  0.62889706  0.62675738  1
  O  O286  1  0.24717829  0.24120708  0.12848134  1
  O  O287  1  0.24584478  0.26168474  0.61392241  1
  O  O288  1  0.25722060  0.76128450  0.12401119  1
  O  O289  1  0.25555468  0.76439555  0.61744239  1
  O  O290  1  0.76132069  0.25352847  0.11861324  1
  O  O291  1  0.75675628  0.25657485  0.61562045  1
  O  O292  1  0.76134055  0.73412798  0.13417156  1
  O  O293  1  0.75487758  0.74844594  0.61909234  1
  O  O294  1  0.24213086  0.25129315  0.33662600  1
  O  O295  1  0.24415012  0.24133707  0.87484630  1
  O  O296  1  0.24048459  0.74785098  0.38080827  1
  O  O297  1  0.26804050  0.74680392  0.89830688  1
  O  O298  1  0.73688812  0.25373002  0.37521849  1
  O  O299  1  0.73957657  0.24732390  0.88454542  1
  O  O300  1  0.74421061  0.73743674  0.38460103  1
  O  O301  1  0.74206131  0.72492090  0.86425180  1
  O  O302  1  0.00418533  0.12740636  0.00849747  1
  O  O303  1  0.00125279  0.11807455  0.51175635  1
  O  O304  1  0.01302000  0.60665980  0.00867993  1
  O  O305  1  -0.00267044  0.61334056  0.51384922  1
  O  O306  1  0.50847711  0.12864578  0.01409974  1
  O  O307  1  0.50043287  0.11151844  0.48990072  1
  O  O308  1  0.50929492  0.61126430  0.00824275  1
  O  O309  1  0.51293216  0.61990067  0.49538669  1
  O  O310  1  0.50520614  0.37662686  0.48483070  1
  O  O311  1  0.50082096  0.38350948  0.98982936  1
  O  O312  1  0.49100689  0.88476606  0.49405186  1
  O  O313  1  0.49821957  0.82862471  0.95376086  1
  O  O314  1  0.98811414  0.38787975  0.50848512  1
  O  O315  1  1.00629894  0.38404404  0.98976963  1
  O  O316  1  0.98692414  0.88494175  0.51072176  1
  O  O317  1  1.00235083  0.90798053  1.00302999  1
  O  O318  1  0.50920585  0.48939090  0.38043037  1
  O  O319  1  0.49015322  0.48712084  0.88092595  1
  O  O320  1  0.49965409  0.98865139  0.37977227  1
  O  O321  1  0.48152033  1.00072292  0.86997556  1
  O  O322  1  0.99154426  0.50934136  0.38615010  1
  O  O323  1  1.00585262  0.48673536  0.88777647  1
  O  O324  1  0.95488640  1.01982996  0.40075401  1
  O  O325  1  0.99756460  1.01380070  0.88842568  1
  O  O326  1  -0.01091771  0.02470771  0.11349535  1
  O  O327  1  0.00373830  0.00987184  0.61609373  1
  O  O328  1  0.01213584  0.49930828  0.11130610  1
  O  O329  1  0.00476676  0.50980852  0.62472433  1
  O  O330  1  0.51803867  0.01393371  0.13652041  1
  O  O331  1  0.51517490  -0.00278536  0.61478344  1
  O  O332  1  0.49754572  0.50564828  0.11779773  1
  O  O333  1  0.51139984  0.48620726  0.62418791  1
  O  O334  1  0.23475821  0.38936701  0.25353176  1
  O  O335  1  0.24348069  0.38264132  0.73553808  1
  O  O336  1  0.25727388  0.88406499  0.23619840  1
  O  O337  1  0.24633248  0.89769069  0.73285715  1
  O  O338  1  0.74133484  0.38224861  0.25535975  1
  O  O339  1  0.74560810  0.38264700  0.73941131  1
  O  O340  1  0.75839633  0.88433324  0.24593457  1
  O  O341  1  0.74218145  0.88026065  0.74170892  1
  O  O342  1  0.26854385  0.10274797  0.23727126  1
  O  O343  1  0.24518753  0.11980975  0.75824136  1
  O  O344  1  0.25535512  0.62053188  0.25693124  1
  O  O345  1  0.24582281  0.60089426  0.74693223  1
  O  O346  1  0.75718661  0.14017847  0.24549577  1
  O  O347  1  0.75848939  0.11685723  0.74943680  1
  O  O348  1  0.76216710  0.61642510  0.26194123  1
  O  O349  1  0.74060089  0.60713664  0.75966038  1
  O  O350  1  0.38739362  0.10500252  0.36773764  1
  O  O351  1  0.36567787  0.11569614  0.87339588  1
  O  O352  1  0.36373848  0.63659512  0.36476710  1
  O  O353  1  0.36649660  0.60625321  0.87655373  1
  O  O354  1  0.87383500  0.13910415  0.35508505  1
  O  O355  1  0.87732969  0.14031559  0.85792733  1
  O  O356  1  0.87112339  0.61666631  0.37309502  1
  O  O357  1  0.85527708  0.61329842  0.87706688  1
  O  O358  1  0.12201450  0.38481387  0.12476864  1
  O  O359  1  0.13323146  0.38010768  0.62150135  1
  O  O360  1  0.13530362  0.87438662  0.12817409  1
  O  O361  1  0.13322987  0.88666095  0.61946776  1
  O  O362  1  0.61614041  0.38669117  0.13371092  1
  O  O363  1  0.63302524  0.38051684  0.62340982  1
  O  O364  1  0.61256248  0.89069103  0.11841812  1
  O  O365  1  0.63554320  0.87786996  0.62560867  1
  O  O366  1  0.11004485  0.26493652  0.24445450  1
  O  O367  1  0.12706091  0.24716207  0.76462994  1
  O  O368  1  0.12544207  0.75119158  0.26012777  1
  O  O369  1  0.17049679  0.75947251  0.77145787  1
  O  O370  1  0.61431786  0.26517751  0.25351025  1
  O  O371  1  0.63245886  0.24936111  0.76550076  1
  O  O372  1  0.62491075  0.73472298  0.27040631  1
  O  O373  1  0.62614839  0.76571429  0.73760558  1
  O  O374  1  0.38560778  0.21827593  0.27145742  1
  O  O375  1  0.36602015  0.24537599  0.72444284  1
  O  O376  1  0.36921061  0.74083812  0.24187535  1
  O  O377  1  0.37222115  0.77062968  0.73798762  1
  O  O378  1  0.88242055  0.25110341  0.23967690  1
  O  O379  1  0.86590310  0.24374479  0.73506170  1
  O  O380  1  0.88380293  0.73157241  0.26217609  1
  O  O381  1  0.86551146  0.75047953  0.73848068  1
  O  O382  1  0.37131292  0.50874486  0.49900587  1
  O  O383  1  0.38121895  0.50002893  0.99333613  1
  O  O384  1  0.38156446  0.99401440  0.49110735  1
  O  O385  1  0.36956662  0.99149272  0.98319702  1
  O  O386  1  0.88317342  0.49577276  0.49689153  1
  O  O387  1  0.88973568  0.49785312  1.00334612  1
  O  O388  1  0.86996348  0.98444275  0.51045556  1
  O  O389  1  0.87655369  1.01376565  0.99585641  1
  O  O390  1  0.11873181  0.01929463  -0.00368738  1
  O  O391  1  0.11115709  0.00477942  0.50443018  1
  O  O392  1  0.13820835  0.50673231  0.00868021  1
  O  O393  1  0.11380557  0.49740635  0.51660604  1
  O  O394  1  0.62828096  0.01351548  0.01669154  1
  O  O395  1  0.62170681  -0.00603335  0.51114661  1
  O  O396  1  0.61363218  0.49929820  0.01208094  1
  O  O397  1  0.62855726  0.50451507  0.51474976  1
  O  O398  1  0.40684899  0.33273484  0.19835760  1
  O  O399  1  0.35801030  0.36409182  0.61825040  1
  O  O400  1  0.38807618  0.86394266  0.11802248  1
  O  O401  1  0.36539040  0.88137659  0.61484858  1
  O  O402  1  0.87850323  0.36593213  0.12991488  1
  O  O403  1  0.87063697  0.36981168  0.62177635  1
  O  O404  1  0.88701982  0.86663106  0.11366741  1
  O  O405  1  0.86150660  0.86357368  0.61941338  1
  O  O406  1  0.09852460  0.10723757  0.38168228  1
  O  O407  1  0.13220418  0.13681377  0.88249371  1
  O  O408  1  0.13800197  0.63629702  0.37072698  1
  O  O409  1  0.13146778  0.62498801  0.88700842  1
  O  O410  1  0.61774638  0.14518097  0.36058943  1
  O  O411  1  0.62288741  0.13069180  0.88773007  1
  O  O412  1  0.63491451  0.62464402  0.38538761  1
  O  O413  1  0.62976631  0.60750811  0.89119811  1
