# generated using pymatgen
data_V79Zn79O256
_symmetry_space_group_name_H-M   'P 1'
_cell_length_a   16.92649762
_cell_length_b   16.90533105
_cell_length_c   16.91436272
_cell_angle_alpha   89.76870400
_cell_angle_beta   89.92069503
_cell_angle_gamma   89.91718815
_symmetry_Int_Tables_number   1
_chemical_formula_structural   V79Zn79O256
_chemical_formula_sum   'V79 Zn79 O256'
_cell_volume   4839.96275004
_cell_formula_units_Z   1
loop_
 _symmetry_equiv_pos_site_id
 _symmetry_equiv_pos_as_xyz
  1  'x, y, z'
loop_
 _atom_site_type_symbol
 _atom_site_label
 _atom_site_symmetry_multiplicity
 _atom_site_fract_x
 _atom_site_fract_y
 _atom_site_fract_z
 _atom_site_occupancy
  V  V0  1  0.87220533  0.25202494  0.62696369  1
  V  V1  1  0.62347706  -0.00016298  0.11909493  1
  V  V2  1  0.25343363  0.62790407  0.36586132  1
  V  V3  1  0.12446861  0.75226161  0.37749349  1
  V  V4  1  0.11949137  0.61880314  0.01597208  1
  V  V5  1  0.50380153  0.74646873  0.25074155  1
  V  V6  1  0.37686276  0.25632279  0.62891926  1
  V  V7  1  -0.00129935  0.38015895  0.37573380  1
  V  V8  1  0.25058024  0.38401034  0.13397874  1
  V  V9  1  0.24940056  0.75354823  0.50492795  1
  V  V10  1  0.49678933  -0.00417528  -0.00517381  1
  V  V11  1  0.86453579  0.87114191  0.49887130  1
  V  V12  1  0.50776180  0.24809640  0.75729976  1
  V  V13  1  0.49841076  0.75332288  0.75519489  1
  V  V14  1  0.10866255  0.00396001  0.11101274  1
  V  V15  1  0.24251954  0.37474071  0.63320348  1
  V  V16  1  -0.00048656  0.74039858  0.74844431  1
  V  V17  1  0.13832252  0.41009125  0.25916502  1
  V  V18  1  0.75078934  0.24722471  0.49038188  1
  V  V19  1  0.62938034  0.12760100  0.48236868  1
  V  V20  1  0.13366935  0.25936112  0.36915249  1
  V  V21  1  -0.00896047  0.74430215  0.24843443  1
  V  V22  1  0.37551530  0.74513961  0.13242261  1
  V  V23  1  0.36785449  0.12162110  0.75164846  1
  V  V24  1  0.73761241  0.25034850  -0.00856202  1
  V  V25  1  0.24615988  0.62112323  0.87921058  1
  V  V26  1  0.86974624  -0.00338258  0.88871479  1
  V  V27  1  0.63218456  0.49986346  0.12609769  1
  V  V28  1  0.12401473  0.87776179  0.73354604  1
  V  V29  1  0.63383649  0.74030173  0.38842299  1
  V  V30  1  0.62230512  0.36452900  0.25111196  1
  V  V31  1  0.37471547  0.87208058  -0.00610193  1
  V  V32  1  0.49926284  0.87951994  0.37323586  1
  V  V33  1  0.87582345  0.74332189  0.12194477  1
  V  V34  1  0.37399304  0.51184081  0.36891922  1
  V  V35  1  0.86986703  0.11299216  0.74815913  1
  V  V36  1  0.25125015  0.25254574  0.50435389  1
  V  V37  1  0.75340363  0.75075964  -0.00397461  1
  V  V38  1  0.24772026  0.87571352  0.12349143  1
  V  V39  1  0.85949707  0.50505461  0.86929944  1
  V  V40  1  0.12841758  0.12082526  0.50344505  1
  V  V41  1  0.37069571  0.75236464  0.62537291  1
  V  V42  1  0.75318139  0.50531933  0.26947243  1
  V  V43  1  0.37357057  0.35799694  0.00890769  1
  V  V44  1  0.75784320  0.87705916  0.11771319  1
  V  V45  1  0.50314157  0.00206601  0.49894882  1
  V  V46  1  0.62459873  0.88585082  0.75027751  1
  V  V47  1  0.36792860  -0.00355427  0.87150874  1
  V  V48  1  0.86795285  0.37164354  -0.00284002  1
  V  V49  1  0.37522454  0.49628276  0.88874032  1
  V  V50  1  0.51163203  0.62655682  0.62103150  1
  V  V51  1  0.86491544  0.01139481  0.37107148  1
  V  V52  1  0.24854428  -0.00832322  0.73123052  1
  V  V53  1  0.86879832  0.74924610  0.62631286  1
  V  V54  1  0.15538810  0.20227181  0.87591798  1
  V  V55  1  -0.00235455  0.50464157  0.50674276  1
  V  V56  1  0.62688224  0.74847884  0.87313858  1
  V  V57  1  0.25858351  0.00278960  0.25235027  1
  V  V58  1  0.24988734  0.49327995  0.75438604  1
  V  V59  1  0.00060901  0.49974478  0.00819823  1
  V  V60  1  0.48762839  0.13068476  0.13394711  1
  V  V61  1  0.62391776  0.62241707  -0.00121486  1
  V  V62  1  0.50132698  0.36589702  0.37411168  1
  V  V63  1  0.12535670  0.50752979  0.63039411  1
  V  V64  1  0.50957220  0.12377037  0.62573768  1
  V  V65  1  0.74426579  0.89064185  0.62758317  1
  V  V66  1  -0.00681628  0.87980310  0.37585557  1
  V  V67  1  0.85039181  0.62386438  0.75029905  1
  V  V68  1  0.50977777  0.50921157  0.50108172  1
  V  V69  1  0.37354920  0.88140857  0.49947025  1
  V  V70  1  0.12033535  0.87946984  0.24918599  1
  V  V71  1  0.50065773  0.62186360  0.12397122  1
  V  V72  1  0.50381499  0.36906679  0.88020506  1
  V  V73  1  0.00794164  0.37485973  0.86534825  1
  V  V74  1  0.75190943  0.01313779  0.24534132  1
  V  V75  1  0.00198874  0.12092301  0.62009577  1
  V  V76  1  -0.00199562  0.88065831  0.88443660  1
  V  V77  1  0.74055216  0.38410501  0.62961635  1
  V  V78  1  0.24703437  0.74551605  0.00197012  1
  Zn  Zn79  1  -0.05087675  0.19854207  0.19888102  1
  Zn  Zn80  1  0.63301048  0.38956724  0.75344812  1
  Zn  Zn81  1  0.73583131  0.12458628  0.86529613  1
  Zn  Zn82  1  0.37412808  0.62470938  0.75134749  1
  Zn  Zn83  1  0.12469907  0.62845709  0.50553189  1
  Zn  Zn84  1  0.25528144  0.11844922  0.37449777  1
  Zn  Zn85  1  0.88316606  0.59546831  0.23363899  1
  Zn  Zn86  1  0.37725946  0.38153267  0.50133498  1
  Zn  Zn87  1  0.87210936  0.37798980  0.49988182  1
  Zn  Zn88  1  0.79218001  0.33563683  0.15928111  1
  Zn  Zn89  1  0.00491376  -0.00107609  0.49996583  1
  Zn  Zn90  1  0.62950463  0.87555477  0.25144237  1
  Zn  Zn91  1  0.12090546  0.75176760  0.87665150  1
  Zn  Zn92  1  0.61102118  0.13620188  -0.01204292  1
  Zn  Zn93  1  0.00666327  0.25205319  0.75071427  1
  Zn  Zn94  1  0.29229200  0.18580737  0.16516106  1
  Zn  Zn95  1  0.18358188  0.18684535  0.69252719  1
  Zn  Zn96  1  0.18285269  0.68931279  0.19065676  1
  Zn  Zn97  1  0.18793143  0.68788970  0.69330521  1
  Zn  Zn98  1  0.67977085  0.18627695  0.17345718  1
  Zn  Zn99  1  0.68854307  0.19190158  0.68629111  1
  Zn  Zn100  1  0.69075229  0.68570216  0.19272833  1
  Zn  Zn101  1  0.68576909  0.69627386  0.68217241  1
  Zn  Zn102  1  0.31666812  0.31565490  0.30545232  1
  Zn  Zn103  1  0.31367478  0.30779257  0.81857834  1
  Zn  Zn104  1  0.31313641  0.81483365  0.31458065  1
  Zn  Zn105  1  0.30638486  0.81115065  0.81202171  1
  Zn  Zn106  1  0.81917909  0.31316067  0.31534632  1
  Zn  Zn107  1  0.81421515  0.31121475  0.81015321  1
  Zn  Zn108  1  0.80779607  0.81608179  0.30564456  1
  Zn  Zn109  1  0.81060675  0.81598813  0.81162399  1
  Zn  Zn110  1  0.19202388  0.44239923  0.44611644  1
  Zn  Zn111  1  0.18588256  0.42835517  0.94849411  1
  Zn  Zn112  1  0.18907227  0.93703425  0.43571535  1
  Zn  Zn113  1  0.18187380  0.94387788  0.92702552  1
  Zn  Zn114  1  0.68381914  0.43233471  0.44172447  1
  Zn  Zn115  1  0.68311970  0.43998697  0.93812756  1
  Zn  Zn116  1  0.68443047  0.93665680  0.43714110  1
  Zn  Zn117  1  0.68604438  0.93721991  0.93213899  1
  Zn  Zn118  1  0.30357202  0.06395179  0.05340113  1
  Zn  Zn119  1  0.31827204  0.06542411  0.56238476  1
  Zn  Zn120  1  0.31144872  0.55944082  0.06950205  1
  Zn  Zn121  1  0.31843384  0.56478909  0.55942068  1
  Zn  Zn122  1  0.81498253  0.07289065  0.06071290  1
  Zn  Zn123  1  0.81409329  0.06326812  0.55824742  1
  Zn  Zn124  1  0.80881761  0.56254497  0.05911378  1
  Zn  Zn125  1  0.81496279  0.56378877  0.56418871  1
  Zn  Zn126  1  0.44044638  0.44109264  0.19036080  1
  Zn  Zn127  1  0.46805537  0.45964416  0.71252897  1
  Zn  Zn128  1  0.43856636  0.93641539  0.18476530  1
  Zn  Zn129  1  0.44061229  0.93709027  0.68280732  1
  Zn  Zn130  1  0.96825621  0.36353435  0.16603148  1
  Zn  Zn131  1  0.93332891  0.43955518  0.68682996  1
  Zn  Zn132  1  0.93223181  0.93718639  0.18754097  1
  Zn  Zn133  1  0.94036596  0.93419520  0.68633914  1
  Zn  Zn134  1  0.11061700  0.12561751  0.24782209  1
  Zn  Zn135  1  0.05894842  0.05852462  0.80579821  1
  Zn  Zn136  1  0.05857791  0.56969882  0.32484684  1
  Zn  Zn137  1  0.06305287  0.55580394  0.81826993  1
  Zn  Zn138  1  0.56324348  0.06103000  0.30902742  1
  Zn  Zn139  1  0.55377681  0.06014474  0.81588268  1
  Zn  Zn140  1  0.56585746  0.56307690  0.31210995  1
  Zn  Zn141  1  0.56573823  0.56402159  0.81486760  1
  Zn  Zn142  1  0.43599294  0.18764405  0.43800106  1
  Zn  Zn143  1  0.42920197  0.18216146  0.93922698  1
  Zn  Zn144  1  0.43970266  0.69272598  0.43702275  1
  Zn  Zn145  1  0.43682444  0.68677846  0.93952924  1
  Zn  Zn146  1  0.97959371  0.15960114  0.38672349  1
  Zn  Zn147  1  0.93112787  0.19060924  0.93577654  1
  Zn  Zn148  1  0.93920934  0.69051168  0.44252161  1
  Zn  Zn149  1  0.93706475  0.68570825  0.93346364  1
  Zn  Zn150  1  0.07801815  0.20272348  0.06460036  1
  Zn  Zn151  1  0.06096977  0.31219190  0.56243694  1
  Zn  Zn152  1  0.05997976  0.80821425  0.06243284  1
  Zn  Zn153  1  0.05333231  0.80962679  0.56172963  1
  Zn  Zn154  1  0.56119422  0.31402568  0.06620846  1
  Zn  Zn155  1  0.56341316  0.31170361  0.55983155  1
  Zn  Zn156  1  0.56446025  0.81364115  0.06184003  1
  Zn  Zn157  1  0.56347552  0.81311502  0.56303785  1
  O  O158  1  0.10901588  0.10652919  0.12943194  1
  O  O159  1  0.11492985  0.13280557  0.61529011  1
  O  O160  1  0.12651085  0.62535355  0.11591787  1
  O  O161  1  0.13220135  0.61301714  0.62568713  1
  O  O162  1  0.61610862  0.11034455  0.10974342  1
  O  O163  1  0.61188533  0.13017371  0.62235756  1
  O  O164  1  0.61922007  0.62155147  0.11922776  1
  O  O165  1  0.61066673  0.63130409  0.62573801  1
  O  O166  1  0.38863464  0.38687909  0.37559238  1
  O  O167  1  0.37329830  0.37695411  0.89179780  1
  O  O168  1  0.38862472  0.86672475  0.38695023  1
  O  O169  1  0.36884722  0.87631256  0.88695076  1
  O  O170  1  0.89597662  0.36986540  0.38182022  1
  O  O171  1  0.87455430  0.39260371  0.87471861  1
  O  O172  1  0.87662427  0.87289684  0.38297053  1
  O  O173  1  0.88418786  0.88712653  0.86558510  1
  O  O174  1  0.24644841  -0.00041909  0.35736723  1
  O  O175  1  0.26323770  -0.00906788  0.85932065  1
  O  O176  1  0.26586442  0.51319795  0.38856484  1
  O  O177  1  0.25330667  0.50089723  0.87363326  1
  O  O178  1  0.75733918  -0.00608293  0.36312280  1
  O  O179  1  0.76549905  0.00074894  0.87613247  1
  O  O180  1  0.74461103  0.49534480  0.36897519  1
  O  O181  1  0.76003434  0.50108756  0.87395782  1
  O  O182  1  0.27875290  0.48106528  0.14498242  1
  O  O183  1  0.24832633  0.49376078  0.63384828  1
  O  O184  1  0.24048921  0.98585832  0.13164657  1
  O  O185  1  0.25940810  0.99284571  0.63166921  1
  O  O186  1  0.73630694  0.50055306  0.12787906  1
  O  O187  1  0.75164656  0.48329955  0.61266167  1
  O  O188  1  0.74659712  0.99665055  0.12217324  1
  O  O189  1  0.75065945  0.98976144  0.62478539  1
  O  O190  1  0.02099736  0.38730781  0.27033416  1
  O  O191  1  -0.00314523  0.37689118  0.75974719  1
  O  O192  1  0.00220748  0.86646470  0.25813571  1
  O  O193  1  0.00965644  0.86832925  0.75379728  1
  O  O194  1  0.50815641  0.37942086  0.26416300  1
  O  O195  1  0.48250678  0.35824869  0.76827720  1
  O  O196  1  0.50048401  0.86934796  0.25764399  1
  O  O197  1  0.51381511  0.86262541  0.73596813  1
  O  O198  1  0.50622249  0.11885663  0.23261143  1
  O  O199  1  0.49064968  0.12842856  0.74267625  1
  O  O200  1  0.50398652  0.63834270  0.23989284  1
  O  O201  1  0.49493730  0.63626579  0.73857145  1
  O  O202  1  1.00275000  0.13673181  0.27711734  1
  O  O203  1  0.98968970  0.12572953  0.73762105  1
  O  O204  1  0.98522060  0.63838752  0.26882660  1
  O  O205  1  1.00595826  0.63918118  0.75757170  1
  O  O206  1  0.37116584  0.25833132  0.00319305  1
  O  O207  1  0.36698650  0.24940005  0.51206420  1
  O  O208  1  0.36908775  0.75579406  0.00877070  1
  O  O209  1  0.36909809  0.75868246  0.50652919  1
  O  O210  1  0.86653139  0.26921685  -0.00388885  1
  O  O211  1  0.85868515  0.24720756  0.51358458  1
  O  O212  1  0.86345604  0.74196668  0.00495596  1
  O  O213  1  0.88134687  0.76300021  0.51204853  1
  O  O214  1  0.13969800  0.24639228  0.50410619  1
  O  O215  1  0.11084013  0.23263256  0.96214582  1
  O  O216  1  0.13169994  0.75399919  0.49701934  1
  O  O217  1  0.12872869  0.73792780  0.99827064  1
  O  O218  1  0.63534181  0.23766148  0.50249898  1
  O  O219  1  0.63335851  0.25703146  0.99268417  1
  O  O220  1  0.62235024  0.75206149  0.48854274  1
  O  O221  1  0.62908899  0.74677606  0.99072505  1
  O  O222  1  0.50538734  0.22854796  0.11571624  1
  O  O223  1  0.49313189  0.24525117  0.63241645  1
  O  O224  1  0.49454725  0.74707044  0.13155454  1
  O  O225  1  0.49325317  0.74138289  0.62891397  1
  O  O226  1  1.01828897  0.26627677  0.13442711  1
  O  O227  1  0.99087514  0.24183736  0.62441514  1
  O  O228  1  0.98907043  0.75513305  0.13641942  1
  O  O229  1  0.98195290  0.75798553  0.63695189  1
  O  O230  1  0.02433712  0.27053442  0.38926952  1
  O  O231  1  -0.01814903  0.27112731  0.87097140  1
  O  O232  1  0.00159543  0.76012651  0.37113802  1
  O  O233  1  -0.00426650  0.76255447  0.86522821  1
  O  O234  1  0.49955651  0.26780898  0.38496818  1
  O  O235  1  0.49186726  0.25628782  0.87063509  1
  O  O236  1  0.50769794  0.75754721  0.36766871  1
  O  O237  1  0.50581664  0.74624252  0.86380546  1
  O  O238  1  0.24875440  0.13452716  0.49912252  1
  O  O239  1  0.24049165  0.15392352  1.06645739  1
  O  O240  1  0.25138634  0.64155489  0.49341634  1
  O  O241  1  0.24123813  0.62375837  0.99891656  1
  O  O242  1  0.73744407  0.13257964  0.50371418  1
  O  O243  1  0.74860275  0.14093538  0.99455632  1
  O  O244  1  0.78608546  0.62603493  0.46481279  1
  O  O245  1  0.73470116  0.63930116  1.00574985  1
  O  O246  1  0.25803768  0.37328820  0.02451726  1
  O  O247  1  0.25590249  0.36937112  0.51595435  1
  O  O248  1  0.25429874  0.86755102  0.00687593  1
  O  O249  1  0.26016751  0.86531196  0.49166049  1
  O  O250  1  0.75732628  0.36846570  -0.01141325  1
  O  O251  1  0.74853149  0.36205523  0.50804815  1
  O  O252  1  0.74236591  0.86317938  0.00667955  1
  O  O253  1  0.75404946  0.87895146  0.51306731  1
  O  O254  1  0.12605518  0.50853552  0.25588514  1
  O  O255  1  0.14066489  0.50385107  0.74593774  1
  O  O256  1  0.12888615  0.98468325  0.23650678  1
  O  O257  1  0.13234035  0.98559770  0.74654596  1
  O  O258  1  0.63400532  0.49660629  0.24475997  1
  O  O259  1  0.58034444  0.48792645  0.73785695  1
  O  O260  1  0.63336702  0.99831503  0.23645917  1
  O  O261  1  0.61360761  0.98377529  0.75090780  1
  O  O262  1  0.35715534  -0.00482160  0.24160392  1
  O  O263  1  0.37110421  -0.00030094  0.75177774  1
  O  O264  1  0.38399015  0.50240401  0.27038881  1
  O  O265  1  0.36490250  0.50277655  0.76284209  1
  O  O266  1  0.86725828  -0.00316164  0.26158107  1
  O  O267  1  0.87607966  0.01098556  0.74767014  1
  O  O268  1  0.85275430  0.48636254  0.24986079  1
  O  O269  1  0.87414593  0.51593118  0.75487540  1
  O  O270  1  0.12480577  0.37726046  0.37481843  1
  O  O271  1  0.10779384  0.37925895  0.88005363  1
  O  O272  1  0.11399255  0.87317272  0.36810701  1
  O  O273  1  0.11054896  0.87471138  0.86608095  1
  O  O274  1  0.61184807  0.38076016  0.36385716  1
  O  O275  1  0.60619190  0.38086006  0.87404730  1
  O  O276  1  0.61185571  0.86917844  0.37436427  1
  O  O277  1  0.62769077  0.86507682  0.85863247  1
  O  O278  1  0.38527170  0.11784902  0.12787237  1
  O  O279  1  0.38581001  0.13413895  0.63115307  1
  O  O280  1  0.38412565  0.63763400  0.11730007  1
  O  O281  1  0.38079824  0.63966054  0.62678017  1
  O  O282  1  0.90949329  0.13506312  0.09621940  1
  O  O283  1  0.87929626  0.13010793  0.63042554  1
  O  O284  1  0.87020883  0.63743870  0.12494611  1
  O  O285  1  0.86669608  0.63339083  0.64052469  1
  O  O286  1  0.29266360  0.29920760  0.18187816  1
  O  O287  1  0.25560121  0.25530387  0.62509217  1
  O  O288  1  0.25631970  0.75566307  0.12360054  1
  O  O289  1  0.25825924  0.74644816  0.61753154  1
  O  O290  1  0.74260200  0.25234285  0.10261861  1
  O  O291  1  0.75577553  0.25802196  0.61913165  1
  O  O292  1  0.75528531  0.75778096  0.11868214  1
  O  O293  1  0.76291070  0.76198216  0.62895019  1
  O  O294  1  0.24407732  0.26681358  0.39299188  1
  O  O295  1  0.25376853  0.23011259  0.87579544  1
  O  O296  1  0.24543498  0.74815769  0.38300999  1
  O  O297  1  0.24907239  0.73731701  0.88327934  1
  O  O298  1  0.75688208  0.25531467  0.39142713  1
  O  O299  1  0.75744009  0.24560420  0.88481791  1
  O  O300  1  0.73112440  0.76125483  0.36722205  1
  O  O301  1  0.73936202  0.75532195  0.88227729  1
  O  O302  1  -0.03322748  0.13619785  0.03458959  1
  O  O303  1  0.01232402  0.12516260  0.49901060  1
  O  O304  1  0.00628312  0.61170135  -0.00751131  1
  O  O305  1  0.00359911  0.61062660  0.49548639  1
  O  O306  1  0.49245769  0.10863932  0.00613275  1
  O  O307  1  0.50901045  0.12303354  0.50300980  1
  O  O308  1  0.51180387  0.63519927  0.01219273  1
  O  O309  1  0.49856060  0.62189966  0.51018602  1
  O  O310  1  0.50187297  0.38788334  0.49167432  1
  O  O311  1  0.48973935  0.36533027  0.98584390  1
  O  O312  1  0.49574402  0.88410843  0.49536413  1
  O  O313  1  0.48373198  0.88234613  1.01021648  1
  O  O314  1  1.00360454  0.38631351  0.49468194  1
  O  O315  1  0.98002630  0.39025436  0.98246353  1
  O  O316  1  0.98920606  0.87877004  0.49235137  1
  O  O317  1  1.00113310  0.86798705  0.98304462  1
  O  O318  1  0.49187767  0.50559031  0.38709462  1
  O  O319  1  0.48320398  0.48239535  0.87139823  1
  O  O320  1  0.50426810  0.99239206  0.38468433  1
  O  O321  1  0.48295939  0.99439281  0.88450074  1
  O  O322  1  1.00884241  0.49006498  0.39369027  1
  O  O323  1  0.98809175  0.49164125  0.87554657  1
  O  O324  1  0.98059965  0.98577184  0.37423812  1
  O  O325  1  0.99019490  0.98733323  0.86959475  1
  O  O326  1  0.01178836  -0.02137588  0.11976246  1
  O  O327  1  -0.00870510  0.01513725  0.61734537  1
  O  O328  1  -0.00811400  0.48742227  0.10474513  1
  O  O329  1  0.01343355  0.49201772  0.61805508  1
  O  O330  1  0.50545820  0.00270114  0.11633750  1
  O  O331  1  0.49555963  0.01111038  0.61085570  1
  O  O332  1  0.51000285  0.51677711  0.13425024  1
  O  O333  1  0.48747127  0.51755847  0.61130864  1
  O  O334  1  0.23816941  0.39927967  0.27466188  1
  O  O335  1  0.25831374  0.38213371  0.74512801  1
  O  O336  1  0.24098959  0.87931367  0.24489994  1
  O  O337  1  0.23291053  0.87570464  0.75075236  1
  O  O338  1  0.73351885  0.38357019  0.25239737  1
  O  O339  1  0.74828519  0.37275534  0.73596226  1
  O  O340  1  0.74843749  0.88770961  0.23286535  1
  O  O341  1  0.73761120  0.87395696  0.73921354  1
  O  O342  1  0.23316353  0.10765356  0.24529321  1
  O  O343  1  0.26271753  0.11092006  0.73689147  1
  O  O344  1  0.24936176  0.63593013  0.26593699  1
  O  O345  1  0.25275943  0.61742103  0.76390199  1
  O  O346  1  0.74770026  0.11310867  0.23397427  1
  O  O347  1  0.76604957  0.12979173  0.74807529  1
  O  O348  1  0.75581067  0.61033570  0.25022112  1
  O  O349  1  0.75192919  0.62807834  0.75194189  1
  O  O350  1  0.36517669  0.15411970  0.35175346  1
  O  O351  1  0.37876170  0.11118700  0.86066394  1
  O  O352  1  0.37056718  0.62015914  0.37930001  1
  O  O353  1  0.36360151  0.61552984  0.88209293  1
  O  O354  1  0.87199498  0.10906618  0.38337717  1
  O  O355  1  0.88301167  0.11128819  0.86114644  1
  O  O356  1  0.84178580  0.62769773  0.41033647  1
  O  O357  1  0.87438821  0.61758519  0.86023727  1
  O  O358  1  0.14712691  0.38315526  0.15223991  1
  O  O359  1  0.13786668  0.38135480  0.62638329  1
  O  O360  1  0.13295166  0.87099260  0.13083593  1
  O  O361  1  0.11733157  0.87283597  0.63450349  1
  O  O362  1  0.60938871  0.38807096  0.14034933  1
  O  O363  1  0.63770921  0.36951827  0.62520037  1
  O  O364  1  0.63342853  0.88584103  0.12333572  1
  O  O365  1  0.63661408  0.86973441  0.63347608  1
  O  O366  1  0.13994464  0.25762992  0.27086778  1
  O  O367  1  0.12070727  0.23291581  0.77687504  1
  O  O368  1  0.11331137  0.75955311  0.25535164  1
  O  O369  1  0.11862294  0.76039856  0.75262018  1
  O  O370  1  0.62937675  0.26595679  0.24269322  1
  O  O371  1  0.60936211  0.25498682  0.74740588  1
  O  O372  1  0.61497872  0.75551242  0.25133401  1
  O  O373  1  0.61724795  0.75335087  0.75753259  1
  O  O374  1  0.36568134  0.20914226  0.28702263  1
  O  O375  1  0.37926336  0.23758662  0.74526349  1
  O  O376  1  0.38458963  0.75923833  0.23913172  1
  O  O377  1  0.38106614  0.75412403  0.74308675  1
  O  O378  1  0.87740129  0.28677403  0.22413967  1
  O  O379  1  0.87776607  0.23965904  0.73854977  1
  O  O380  1  0.87987781  0.75359923  0.23978610  1
  O  O381  1  0.87740557  0.73815388  0.74874652  1
  O  O382  1  0.38624878  0.49954328  0.49107105  1
  O  O383  1  0.36687715  0.49001516  0.99226945  1
  O  O384  1  0.38429079  0.99203529  0.49997582  1
  O  O385  1  0.37193162  0.99221802  0.99200263  1
  O  O386  1  0.89423310  0.49594479  0.51247520  1
  O  O387  1  0.87820050  0.50582067  0.98295336  1
  O  O388  1  0.87065044  0.98904859  0.48629343  1
  O  O389  1  0.87600484  1.00193371  0.98707754  1
  O  O390  1  0.13215606  -0.00501915  0.01353252  1
  O  O391  1  0.12785834  0.01629612  0.49076076  1
  O  O392  1  0.11004737  0.50349597  -0.00248721  1
  O  O393  1  0.12091939  0.50338787  0.51389683  1
  O  O394  1  0.61044491  -0.00914110  0.00330691  1
  O  O395  1  0.61779132  0.01597415  0.49664132  1
  O  O396  1  0.62834419  0.51242361  0.00849123  1
  O  O397  1  0.60871079  0.50155281  0.49728767  1
  O  O398  1  0.39646521  0.38022251  0.10544969  1
  O  O399  1  0.36919227  0.36144644  0.62750100  1
  O  O400  1  0.36438944  0.86687055  0.11712468  1
  O  O401  1  0.38377832  0.86313092  0.61213231  1
  O  O402  1  0.87163526  0.39368625  0.09811397  1
  O  O403  1  0.86534124  0.36685526  0.62386064  1
  O  O404  1  0.86430261  0.86538679  0.12292220  1
  O  O405  1  0.86271553  0.87329996  0.62078105  1
  O  O406  1  0.13570182  0.14909851  0.38691176  1
  O  O407  1  0.14075683  0.10111616  0.87327707  1
  O  O408  1  0.13487411  0.63612488  0.38208360  1
  O  O409  1  0.13687510  0.62291805  0.88479056  1
  O  O410  1  0.62241126  0.12841619  0.38371884  1
  O  O411  1  0.62428335  0.11611475  0.87817213  1
  O  O412  1  0.62120629  0.64104039  0.37295012  1
  O  O413  1  0.61787411  0.63500638  0.88489055  1
