# generated using pymatgen
data_V79Zn79O256
_symmetry_space_group_name_H-M   'P 1'
_cell_length_a   16.86729826
_cell_length_b   16.87239441
_cell_length_c   16.89236543
_cell_angle_alpha   90.04408578
_cell_angle_beta   90.23771959
_cell_angle_gamma   90.23298956
_symmetry_Int_Tables_number   1
_chemical_formula_structural   V79Zn79O256
_chemical_formula_sum   'V79 Zn79 O256'
_cell_volume   4807.34453483
_cell_formula_units_Z   1
loop_
 _symmetry_equiv_pos_site_id
 _symmetry_equiv_pos_as_xyz
  1  'x, y, z'
loop_
 _atom_site_type_symbol
 _atom_site_label
 _atom_site_symmetry_multiplicity
 _atom_site_fract_x
 _atom_site_fract_y
 _atom_site_fract_z
 _atom_site_occupancy
  V  V0  1  0.00235610  0.00046326  0.49884772  1
  V  V1  1  0.12637234  0.49777338  0.62597010  1
  V  V2  1  0.00258333  0.86992592  0.36949788  1
  V  V3  1  0.50103641  0.11592551  0.13237433  1
  V  V4  1  0.25694062  0.49516566  0.75929968  1
  V  V5  1  0.25387495  0.12628984  0.37310400  1
  V  V6  1  0.75078214  0.75038550  0.49733195  1
  V  V7  1  0.25591198  0.51265556  0.24479827  1
  V  V8  1  0.61716304  0.48876161  0.11859155  1
  V  V9  1  0.37497514  0.00116187  0.37029430  1
  V  V10  1  0.62915895  0.38048380  0.75125283  1
  V  V11  1  0.62968119  0.25038381  0.88160783  1
  V  V12  1  0.26800583  0.00092295  0.74709498  1
  V  V13  1  0.00202601  0.37053505  0.37101308  1
  V  V14  1  0.74938270  0.37695922  0.62786084  1
  V  V15  1  0.49372413  0.85461801  0.86514024  1
  V  V16  1  0.37629668  0.49694707  0.38667008  1
  V  V17  1  0.38646674  -0.00065848  0.89672636  1
  V  V18  1  0.11446776  0.35914739  0.76189863  1
  V  V19  1  0.25212278  0.63055134  0.39339927  1
  V  V20  1  0.85977155  0.11271179  0.75077297  1
  V  V21  1  0.13061465  0.25107614  0.37758702  1
  V  V22  1  0.12383682  0.37180886  0.24943065  1
  V  V23  1  0.24234772  0.24221533  -0.00488401  1
  V  V24  1  0.87605702  0.75181564  0.62373578  1
  V  V25  1  0.12719739  0.00120195  0.62922413  1
  V  V26  1  0.75094048  0.62474965  0.37109107  1
  V  V27  1  0.25231731  0.75933894  0.00043351  1
  V  V28  1  0.00257457  0.12861524  0.14403001  1
  V  V29  1  0.38272510  0.74954457  0.63314841  1
  V  V30  1  0.24446335  -0.00178219  0.24060860  1
  V  V31  1  0.49108491  0.62538966  0.12706757  1
  V  V32  1  0.00066951  0.13102969  0.63465323  1
  V  V33  1  0.86594734  0.88064167  -0.00720551  1
  V  V34  1  0.25010066  0.37328003  0.12435576  1
  V  V35  1  -0.00001553  0.90937589  0.87343683  1
  V  V36  1  0.87500400  0.00694824  0.36919576  1
  V  V37  1  0.62001159  0.11731323  0.00815341  1
  V  V38  1  0.86819457  0.61973546  0.75090957  1
  V  V39  1  0.74815051  0.00086019  0.23417560  1
  V  V40  1  0.25470165  0.62891378  0.87326447  1
  V  V41  1  0.86685894  0.49033945  0.86987960  1
  V  V42  1  0.00047519  0.48540692  -0.00669226  1
  V  V43  1  0.50931980  0.26326385  0.25035920  1
  V  V44  1  0.00271367  0.74882588  0.76377685  1
  V  V45  1  0.87247318  0.87495306  0.50003274  1
  V  V46  1  0.49994984  0.61694832  0.62918529  1
  V  V47  1  0.86986622  0.25121776  0.14788604  1
  V  V48  1  0.25020483  0.86670525  0.62054331  1
  V  V49  1  0.38025682  0.38423220  -0.00604065  1
  V  V50  1  0.87635867  0.49985289  0.37178957  1
  V  V51  1  0.37352247  0.24811546  0.60883668  1
  V  V52  1  0.37277539  0.86874296  0.49989035  1
  V  V53  1  0.85385576  0.36590297  0.00526080  1
  V  V54  1  0.49818307  0.12436260  0.63038694  1
  V  V55  1  0.12584918  0.74582071  0.38930545  1
  V  V56  1  0.48918648  0.24918369  0.75446075  1
  V  V57  1  0.11633125  0.63098214  -0.01416154  1
  V  V58  1  0.86944456  0.36751880  0.49968705  1
  V  V59  1  0.74327415  0.48625328  0.24373755  1
  V  V60  1  0.63582202  -0.00943366  0.63514684  1
  V  V61  1  0.00369430  0.50214357  0.50003916  1
  V  V62  1  0.12535428  0.87241041  0.75502062  1
  V  V63  1  0.13148800  0.13080326  0.50139861  1
  V  V64  1  0.00109957  0.63216351  0.12891309  1
  V  V65  1  0.00613623  0.62443632  0.62339287  1
  V  V66  1  0.12568279  0.86935256  0.23644956  1
  V  V67  1  0.74341291  0.12687889  0.37859688  1
  V  V68  1  0.25023197  0.12438795  0.86953646  1
  V  V69  1  0.87263693  0.24925160  0.62996317  1
  V  V70  1  0.62098377  0.61915546  0.49948011  1
  V  V71  1  0.86841433  0.75636500  0.12548653  1
  V  V72  1  0.62461735  0.87197676  0.23518969  1
  V  V73  1  0.37688830  0.24703036  0.12992726  1
  V  V74  1  0.50399567  0.00232960  0.49876050  1
  V  V75  1  0.49852022  0.37876759  0.39100951  1
  V  V76  1  0.75124889  0.11549095  0.88367108  1
  V  V77  1  0.49782593  0.38867572  0.87674708  1
  V  V78  1  0.25541217  0.37055115  0.61390677  1
  Zn  Zn79  1  0.87980130  0.63143050  0.25045229  1
  Zn  Zn80  1  0.63939763  0.26796035  0.37968169  1
  Zn  Zn81  1  0.69763991  0.80782320  0.05734528  1
  Zn  Zn82  1  0.36427641  0.76101909  0.12490414  1
  Zn  Zn83  1  0.62617495  0.63141054  0.00564856  1
  Zn  Zn84  1  0.62828497  0.49982941  0.62766659  1
  Zn  Zn85  1  0.63317246  0.13560109  0.50661888  1
  Zn  Zn86  1  0.47120543  0.72657597  0.26219556  1
  Zn  Zn87  1  0.61878781  0.75080677  0.37084230  1
  Zn  Zn88  1  0.39049493  0.62635341  0.76472260  1
  Zn  Zn89  1  0.12085749  0.50034134  0.12403172  1
  Zn  Zn90  1  0.50237037  0.87014317  0.37260958  1
  Zn  Zn91  1  0.74947771  0.62931470  0.88601209  1
  Zn  Zn92  1  0.02568774  0.00937784  0.02238244  1
  Zn  Zn93  1  0.63769979  0.75593231  0.89099577  1
  Zn  Zn94  1  0.18421779  0.18452826  0.18747928  1
  Zn  Zn95  1  0.19391124  0.18687678  0.69017264  1
  Zn  Zn96  1  0.18086276  0.69334589  0.18450567  1
  Zn  Zn97  1  0.18855546  0.68776164  0.68956174  1
  Zn  Zn98  1  0.69037819  0.18813544  0.19395595  1
  Zn  Zn99  1  0.68341463  0.19332179  0.68670099  1
  Zn  Zn100  1  0.68015471  0.68042316  0.18779380  1
  Zn  Zn101  1  0.68899820  0.68992617  0.68384529  1
  Zn  Zn102  1  0.31466915  0.31324142  0.31225373  1
  Zn  Zn103  1  0.30975961  0.31337420  0.81177978  1
  Zn  Zn104  1  0.30560776  0.81473180  0.31377637  1
  Zn  Zn105  1  0.31452084  0.81425263  0.81503814  1
  Zn  Zn106  1  0.81476168  0.31055722  0.31209996  1
  Zn  Zn107  1  0.81563927  0.30482321  0.81235190  1
  Zn  Zn108  1  0.81060893  0.81559341  0.30494196  1
  Zn  Zn109  1  0.81793291  0.80992896  0.81768798  1
  Zn  Zn110  1  0.18947719  0.44222927  0.43634923  1
  Zn  Zn111  1  0.18577287  0.43452448  0.93928131  1
  Zn  Zn112  1  0.18804673  0.93875938  0.43606895  1
  Zn  Zn113  1  0.18834207  0.94680297  0.93675122  1
  Zn  Zn114  1  0.68739685  0.43953373  0.43733360  1
  Zn  Zn115  1  0.68429317  0.44270264  0.93721346  1
  Zn  Zn116  1  0.68509232  0.93949960  0.43322325  1
  Zn  Zn117  1  0.67704717  0.93934016  0.93174767  1
  Zn  Zn118  1  0.31416254  0.06270450  0.06190901  1
  Zn  Zn119  1  0.31586965  0.06081099  0.56050370  1
  Zn  Zn120  1  0.31195478  0.56735344  0.05887707  1
  Zn  Zn121  1  0.31426314  0.56016093  0.56749896  1
  Zn  Zn122  1  0.83834585  0.07829229  0.05955994  1
  Zn  Zn123  1  0.81295535  0.06172433  0.55924528  1
  Zn  Zn124  1  0.81104112  0.56036630  0.06284058  1
  Zn  Zn125  1  0.81477825  0.56005646  0.56143229  1
  Zn  Zn126  1  0.43579678  0.44157126  0.18980389  1
  Zn  Zn127  1  0.43807522  0.43562107  0.68788102  1
  Zn  Zn128  1  0.43261305  0.92540034  0.18709066  1
  Zn  Zn129  1  0.44978790  0.93196035  0.68599551  1
  Zn  Zn130  1  0.93371656  0.44058466  0.18332964  1
  Zn  Zn131  1  0.93883750  0.43302861  0.68897073  1
  Zn  Zn132  1  0.93578079  0.93863071  0.18624479  1
  Zn  Zn133  1  0.93858144  0.93925584  0.68755721  1
  Zn  Zn134  1  0.06290265  0.06025081  0.30762791  1
  Zn  Zn135  1  0.04196504  0.12514909  0.84411576  1
  Zn  Zn136  1  0.06886736  0.56061648  0.31198075  1
  Zn  Zn137  1  0.05904636  0.55318843  0.80932398  1
  Zn  Zn138  1  0.56512810  0.05964443  0.30469541  1
  Zn  Zn139  1  0.56561392  0.06172671  0.81136532  1
  Zn  Zn140  1  0.56320432  0.55869940  0.31007871  1
  Zn  Zn141  1  0.57036186  0.56901218  0.81544123  1
  Zn  Zn142  1  0.44340280  0.18748104  0.43552087  1
  Zn  Zn143  1  0.43520571  0.18872204  0.94137248  1
  Zn  Zn144  1  0.43577178  0.68549453  0.44173455  1
  Zn  Zn145  1  0.44002078  0.67964383  0.94778784  1
  Zn  Zn146  1  0.94085856  0.18701656  0.43791035  1
  Zn  Zn147  1  0.94456154  0.19447989  0.95955159  1
  Zn  Zn148  1  0.94037875  0.68704137  0.43574252  1
  Zn  Zn149  1  0.92299275  0.68618712  0.94122444  1
  Zn  Zn150  1  0.06047226  0.30148817  0.06396086  1
  Zn  Zn151  1  0.06315156  0.31337855  0.56525422  1
  Zn  Zn152  1  0.05755515  0.81351314  0.04932392  1
  Zn  Zn153  1  0.06138164  0.81272091  0.56295950  1
  Zn  Zn154  1  0.56570963  0.31033817  0.06098394  1
  Zn  Zn155  1  0.56397572  0.31108608  0.56189489  1
  Zn  Zn156  1  0.52451985  0.81883611  0.06142653  1
  Zn  Zn157  1  0.56157996  0.81074087  0.56258514  1
  O  O158  1  0.10215627  0.14351447  0.12124854  1
  O  O159  1  0.12245987  0.12124391  0.62105762  1
  O  O160  1  0.11403435  0.62275042  0.11180374  1
  O  O161  1  0.11569952  0.61397382  0.63276429  1
  O  O162  1  0.61745472  0.13541184  0.11611002  1
  O  O163  1  0.61396538  0.12054129  0.62319789  1
  O  O164  1  0.61605521  0.60977253  0.12730626  1
  O  O165  1  0.61623459  0.62528703  0.62203591  1
  O  O166  1  0.37759143  0.38916034  0.37262599  1
  O  O167  1  0.38050548  0.37055144  0.88671526  1
  O  O168  1  0.37233081  0.88388782  0.38563350  1
  O  O169  1  0.38244595  0.88894068  0.87122153  1
  O  O170  1  0.88444799  0.37888202  0.38214265  1
  O  O171  1  0.86811717  0.38318762  0.88434873  1
  O  O172  1  0.88517839  0.87788544  0.38148353  1
  O  O173  1  0.88740148  0.87614052  0.88393648  1
  O  O174  1  0.25607278  0.00754806  0.37046572  1
  O  O175  1  0.26722687  0.00477798  0.86635168  1
  O  O176  1  0.25369809  0.51049952  0.36608659  1
  O  O177  1  0.24547206  0.50483624  0.86360308  1
  O  O178  1  0.75987720  0.00862113  0.37398097  1
  O  O179  1  0.73928203  0.01690128  0.87051839  1
  O  O180  1  0.75558429  0.50727985  0.36853245  1
  O  O181  1  0.76434048  0.50336643  0.87561295  1
  O  O182  1  0.24865526  0.49345295  0.13263976  1
  O  O183  1  0.24515770  0.49108345  0.63370515  1
  O  O184  1  0.25541969  1.00859042  0.14264477  1
  O  O185  1  0.24585253  0.99378295  0.62912028  1
  O  O186  1  0.74402728  0.50044520  0.13908968  1
  O  O187  1  0.75310687  0.48352377  0.62347169  1
  O  O188  1  0.76308100  1.01122797  0.13747605  1
  O  O189  1  0.73490769  1.00384102  0.61671152  1
  O  O190  1  0.01212896  0.39030630  0.26118403  1
  O  O191  1  0.01528438  0.37275793  0.74483278  1
  O  O192  1  0.01308752  0.88249438  0.26285129  1
  O  O193  1  0.00424947  0.87069838  0.75763162  1
  O  O194  1  0.49631984  0.36606289  0.25428463  1
  O  O195  1  0.50507243  0.36869319  0.75784353  1
  O  O196  1  0.51937428  0.88339602  0.25392936  1
  O  O197  1  0.49912122  0.87200059  0.76366405  1
  O  O198  1  0.50581374  0.13950422  0.23867130  1
  O  O199  1  0.50423457  0.13604943  0.73911750  1
  O  O200  1  0.49702808  0.61554721  0.23961897  1
  O  O201  1  0.50331002  0.62315190  0.73530498  1
  O  O202  1  1.00344633  0.13405816  0.24698582  1
  O  O203  1  0.98840547  0.11989282  0.73707978  1
  O  O204  1  1.00322597  0.61531101  0.23235637  1
  O  O205  1  0.99447949  0.62973200  0.74194944  1
  O  O206  1  0.36732955  0.26058020  0.01082934  1
  O  O207  1  0.37768976  0.25207351  0.51049528  1
  O  O208  1  0.35409578  0.74069033  -0.00139389  1
  O  O209  1  0.37629434  0.76196398  0.51103630  1
  O  O210  1  0.86275124  0.26443835  -0.00213901  1
  O  O211  1  0.88230170  0.26105648  0.50789277  1
  O  O212  1  0.88198969  0.76381719  0.01214728  1
  O  O213  1  0.87341190  0.75515631  0.50425774  1
  O  O214  1  0.12379534  0.24200499  0.49202407  1
  O  O215  1  0.14426124  0.25770757  0.99842875  1
  O  O216  1  0.12542948  0.75077374  0.48944063  1
  O  O217  1  0.12917638  0.73497940  0.99517026  1
  O  O218  1  0.61015185  0.24470751  0.48632624  1
  O  O219  1  0.62335854  0.24331548  0.98831791  1
  O  O220  1  0.63837930  0.74084861  0.50222779  1
  O  O221  1  0.61109059  0.75372023  1.00785315  1
  O  O222  1  0.49590753  0.25187704  0.13704082  1
  O  O223  1  0.48789069  0.24717178  0.63119012  1
  O  O224  1  0.50518730  0.72927700  0.13954414  1
  O  O225  1  0.49117445  0.74080279  0.62404695  1
  O  O226  1  0.98131465  0.23970537  0.11203348  1
  O  O227  1  0.99122096  0.23933201  0.61869958  1
  O  O228  1  0.99739779  0.73614910  0.11903321  1
  O  O229  1  0.99445448  0.74126487  0.62839505  1
  O  O230  1  0.01213702  0.26326832  0.38059885  1
  O  O231  1  0.00824179  0.22503450  0.87751400  1
  O  O232  1  0.01331967  0.75518745  0.37686060  1
  O  O233  1  -0.00455844  0.74526640  0.86347788  1
  O  O234  1  0.48629022  0.26529163  0.36216208  1
  O  O235  1  0.50594079  0.25526294  0.86963973  1
  O  O236  1  0.49932098  0.74953337  0.37208207  1
  O  O237  1  0.48395454  0.75284513  0.87093502  1
  O  O238  1  0.23875114  0.11854683  0.49150929  1
  O  O239  1  0.25439025  0.13788413  0.99582219  1
  O  O240  1  0.24565783  0.61907277  0.49166661  1
  O  O241  1  0.23506609  0.62154858  0.98677717  1
  O  O242  1  0.75196879  0.12419089  0.48394665  1
  O  O243  1  0.74650431  0.12458902  0.98892852  1
  O  O244  1  0.74782282  0.62997155  0.49129869  1
  O  O245  1  0.74492349  0.62420777  1.00172137  1
  O  O246  1  0.25815903  0.36671609  0.00537926  1
  O  O247  1  0.24647555  0.37925672  0.51533334  1
  O  O248  1  0.24215034  0.85650903  -0.01666598  1
  O  O249  1  0.25942351  0.88420025  0.51135200  1
  O  O250  1  0.75587390  0.38056975  0.00448815  1
  O  O251  1  0.76257828  0.37843659  0.50384551  1
  O  O252  1  0.76036214  0.87650134  -0.01100592  1
  O  O253  1  0.76432707  0.86528999  0.49081233  1
  O  O254  1  0.13862102  0.48919232  0.24909740  1
  O  O255  1  0.13209588  0.49004676  0.74015394  1
  O  O256  1  0.13583035  0.98677492  0.25619536  1
  O  O257  1  0.13604512  0.99179319  0.73504576  1
  O  O258  1  0.63868693  0.50026234  0.24528690  1
  O  O259  1  0.62135027  0.48476662  0.74953359  1
  O  O260  1  0.63837392  0.98998459  0.24725867  1
  O  O261  1  0.62360546  1.00262117  0.73491766  1
  O  O262  1  0.36113610  -0.01322855  0.26180870  1
  O  O263  1  0.36753858  -0.00230675  0.74056245  1
  O  O264  1  0.35845133  0.49764313  0.25793153  1
  O  O265  1  0.35967582  0.50477400  0.74511361  1
  O  O266  1  0.86228033  -0.01325971  0.26302864  1
  O  O267  1  0.86983020  0.01283774  0.74047127  1
  O  O268  1  0.86443285  0.50375565  0.25407930  1
  O  O269  1  0.88456379  0.50300321  0.76325570  1
  O  O270  1  0.12266021  0.37043915  0.37121929  1
  O  O271  1  0.12940083  0.37624085  0.86043634  1
  O  O272  1  0.12075464  0.86380672  0.37580677  1
  O  O273  1  0.11653320  0.88723950  0.85957057  1
  O  O274  1  0.60442457  0.38344828  0.37896624  1
  O  O275  1  0.61839706  0.36979231  0.87131745  1
  O  O276  1  0.62238515  0.87013639  0.37021884  1
  O  O277  1  0.60733908  0.86840600  0.87659675  1
  O  O278  1  0.39176179  0.13609401  0.11509964  1
  O  O279  1  0.37982523  0.13909288  0.62158508  1
  O  O280  1  0.38495763  0.62683978  0.12112435  1
  O  O281  1  0.38699892  0.63082079  0.62198510  1
  O  O282  1  0.87695508  0.14417667  0.14668564  1
  O  O283  1  0.87971594  0.13006888  0.62886262  1
  O  O284  1  0.88804756  0.63400086  0.12065579  1
  O  O285  1  0.88689309  0.62813819  0.62987510  1
  O  O286  1  0.25554324  0.25392921  0.11761794  1
  O  O287  1  0.26254215  0.25904397  0.62774923  1
  O  O288  1  0.24414283  0.74632173  0.10535815  1
  O  O289  1  0.25458185  0.76119280  0.62726083  1
  O  O290  1  0.76701068  0.25385354  0.14293328  1
  O  O291  1  0.75915123  0.26136727  0.62333415  1
  O  O292  1  0.76491439  0.74377789  0.12651885  1
  O  O293  1  0.76752613  0.74068003  0.61007301  1
  O  O294  1  0.24230363  0.24153113  0.37023681  1
  O  O295  1  0.26050715  0.23633073  0.88388503  1
  O  O296  1  0.24266902  0.73837578  0.37840661  1
  O  O297  1  0.24780616  0.73412114  0.87693399  1
  O  O298  1  0.75192085  0.23245712  0.36341801  1
  O  O299  1  0.73521067  0.23775109  0.86455526  1
  O  O300  1  0.75721593  0.74002789  0.38379947  1
  O  O301  1  0.75325544  0.74447509  0.87851690  1
  O  O302  1  -0.03979747  0.10612069  0.02438709  1
  O  O303  1  0.01185118  0.11983828  0.50743373  1
  O  O304  1  0.00772699  0.62039185  0.00173090  1
  O  O305  1  -0.00476515  0.61308854  0.50956981  1
  O  O306  1  0.51244121  0.13157671  0.01298221  1
  O  O307  1  0.49572310  0.11580538  0.51100593  1
  O  O308  1  0.50458566  0.62130602  0.01879303  1
  O  O309  1  0.51161808  0.63015982  0.51170195  1
  O  O310  1  0.49231163  0.37423487  0.48956752  1
  O  O311  1  0.48703940  0.37030099  0.99314666  1
  O  O312  1  0.48904656  0.88521404  0.49957986  1
  O  O313  1  0.51099690  0.88676031  0.96857166  1
  O  O314  1  0.99479616  0.38359734  0.49324569  1
  O  O315  1  1.00189194  0.38517692  1.00124772  1
  O  O316  1  0.99428179  0.87899136  0.49035528  1
  O  O317  1  0.99963674  0.88863436  0.98600653  1
  O  O318  1  0.48500919  0.49201127  0.37100347  1
  O  O319  1  0.50235348  0.48787450  0.86953497  1
  O  O320  1  0.48959153  1.00595716  0.38119487  1
  O  O321  1  0.48516649  1.00773317  0.87094002  1
  O  O322  1  1.00016232  0.49398735  0.38260178  1
  O  O323  1  0.98913215  0.50144022  0.88771210  1
  O  O324  1  0.99544644  0.99276920  0.37933876  1
  O  O325  1  1.00314838  1.00840888  0.86658372  1
  O  O326  1  -0.00170745  0.01828800  0.13843097  1
  O  O327  1  0.00972856  0.00710970  0.61969026  1
  O  O328  1  -0.00304300  0.51048470  0.10841974  1
  O  O329  1  0.00609063  0.50429994  0.61969612  1
  O  O330  1  0.49597444  0.01837542  0.13806738  1
  O  O331  1  0.50268546  0.00894634  0.61766938  1
  O  O332  1  0.50981604  0.50425131  0.13099479  1
  O  O333  1  0.49847118  0.51256943  0.62342674  1
  O  O334  1  0.24455745  0.38137992  0.24067016  1
  O  O335  1  0.24487717  0.38520775  0.74525649  1
  O  O336  1  0.23625375  0.88657316  0.25133766  1
  O  O337  1  0.24379719  0.88120218  0.74199669  1
  O  O338  1  0.74900157  0.38791927  0.25994863  1
  O  O339  1  0.73997850  0.36655323  0.74247673  1
  O  O340  1  0.74013414  0.88868612  0.25152801  1
  O  O341  1  0.72590153  0.84228207  0.74022898  1
  O  O342  1  0.23933833  0.11200135  0.26210152  1
  O  O343  1  0.25444274  0.11703734  0.76035426  1
  O  O344  1  0.24286862  0.61352833  0.24773857  1
  O  O345  1  0.24333081  0.61327766  0.76135944  1
  O  O346  1  0.74483308  0.10799665  0.26290963  1
  O  O347  1  0.75632417  0.12667926  0.75058688  1
  O  O348  1  0.75245188  0.61970304  0.26261265  1
  O  O349  1  0.76676996  0.62589919  0.74275112  1
  O  O350  1  0.36403819  0.11595365  0.38261681  1
  O  O351  1  0.36634911  0.11111173  0.88579973  1
  O  O352  1  0.35990649  0.61648926  0.37924781  1
  O  O353  1  0.35843222  0.62018947  0.87831052  1
  O  O354  1  0.87163002  0.11356721  0.38012375  1
  O  O355  1  0.85877506  0.12831535  0.85955081  1
  O  O356  1  0.87023219  0.61871216  0.37346956  1
  O  O357  1  0.87570584  0.61137664  0.86694385  1
  O  O358  1  0.13350182  0.37333294  0.13091288  1
  O  O359  1  0.13760061  0.37744185  0.63329053  1
  O  O360  1  0.11373244  0.86611458  0.13825008  1
  O  O361  1  0.13057622  0.88180393  0.62891600  1
  O  O362  1  0.61878736  0.38774699  0.12551809  1
  O  O363  1  0.63099671  0.37458311  0.63248660  1
  O  O364  1  0.62413956  0.86916646  0.13278290  1
  O  O365  1  0.61858973  0.89155631  0.61752051  1
  O  O366  1  0.13056941  0.26388769  0.26097115  1
  O  O367  1  0.13166433  0.25961591  0.74862423  1
  O  O368  1  0.13246454  0.76521856  0.26198287  1
  O  O369  1  0.11583917  0.76290443  0.74218402  1
  O  O370  1  0.61202502  0.25231452  0.25961931  1
  O  O371  1  0.61208139  0.25982910  0.75718140  1
  O  O372  1  0.63658622  0.76536141  0.25269976  1
  O  O373  1  0.66651086  0.79134854  0.74337656  1
  O  O374  1  0.38020755  0.25397033  0.23616755  1
  O  O375  1  0.38540917  0.25583925  0.74520249  1
  O  O376  1  0.37060439  0.77026843  0.23758754  1
  O  O377  1  0.36463374  0.74134480  0.73759365  1
  O  O378  1  0.89443779  0.27217699  0.24357558  1
  O  O379  1  0.87446232  0.23872944  0.73626478  1
  O  O380  1  0.87854697  0.75147298  0.23341981  1
  O  O381  1  0.88521659  0.74294207  0.74037815  1
  O  O382  1  0.36901464  0.49949159  0.48592470  1
  O  O383  1  0.36698513  0.48247155  1.00277634  1
  O  O384  1  0.38225847  0.99215653  0.49336646  1
  O  O385  1  0.37708246  0.99464394  0.99612666  1
  O  O386  1  0.88540421  0.49052619  0.49436555  1
  O  O387  1  0.88358643  0.48927344  0.99173803  1
  O  O388  1  0.88176567  0.99122724  0.49282999  1
  O  O389  1  0.87268158  0.97853646  1.01046227  1
  O  O390  1  0.13615185  0.00891496  0.00871054  1
  O  O391  1  0.12302616  0.00694519  0.50995722  1
  O  O392  1  0.11340588  0.50641150  -0.00063451  1
  O  O393  1  0.11578952  0.49211744  0.51301462  1
  O  O394  1  0.62671971  0.01867100  0.00175201  1
  O  O395  1  0.61273478  0.00522967  0.50357362  1
  O  O396  1  0.62659995  0.50092266  0.01579990  1
  O  O397  1  0.63277059  0.51506659  0.50606810  1
  O  O398  1  0.36639723  0.37028673  0.11724595  1
  O  O399  1  0.36411892  0.36647417  0.62782288  1
  O  O400  1  0.42086617  0.85910448  0.09839023  1
  O  O401  1  0.36953482  0.86833684  0.62076383  1
  O  O402  1  0.88089415  0.36827906  0.11010390  1
  O  O403  1  0.87083458  0.36837340  0.61987342  1
  O  O404  1  0.88373404  0.86264402  0.11474845  1
  O  O405  1  0.88736136  0.86394939  0.61267765  1
  O  O406  1  0.13018664  0.13199176  0.38270461  1
  O  O407  1  0.15136721  0.11195856  0.87701887  1
  O  O408  1  0.13549294  0.63623920  0.37103360  1
  O  O409  1  0.12832851  0.61761619  0.88191759  1
  O  O410  1  0.63806889  0.11951397  0.37664219  1
  O  O411  1  0.62983646  0.13080428  0.88567916  1
  O  O412  1  0.63379372  0.62592232  0.38248023  1
  O  O413  1  0.62888824  0.63712486  0.87999491  1
