# generated using pymatgen
data_V79Zn79O256
_symmetry_space_group_name_H-M   'P 1'
_cell_length_a   16.90910373
_cell_length_b   16.90576050
_cell_length_c   16.91215378
_cell_angle_alpha   90.18984299
_cell_angle_beta   89.78948010
_cell_angle_gamma   89.79983690
_symmetry_Int_Tables_number   1
_chemical_formula_structural   V79Zn79O256
_chemical_formula_sum   'V79 Zn79 O256'
_cell_volume   4834.44067520
_cell_formula_units_Z   1
loop_
 _symmetry_equiv_pos_site_id
 _symmetry_equiv_pos_as_xyz
  1  'x, y, z'
loop_
 _atom_site_type_symbol
 _atom_site_label
 _atom_site_symmetry_multiplicity
 _atom_site_fract_x
 _atom_site_fract_y
 _atom_site_fract_z
 _atom_site_occupancy
  V  V0  1  0.25274809  0.36919626  0.12554317  1
  V  V1  1  0.50301156  0.49256821  -0.00343531  1
  V  V2  1  0.00260239  0.37659930  0.87377023  1
  V  V3  1  -0.00120988  0.75601937  0.26442053  1
  V  V4  1  0.85506273  0.75667216  0.61984461  1
  V  V5  1  0.25208004  0.12760376  0.87695964  1
  V  V6  1  0.38002676  0.00000347  0.88232042  1
  V  V7  1  0.00813581  0.50052142  0.50047682  1
  V  V8  1  0.25040810  0.24945806  0.50424707  1
  V  V9  1  0.88436637  0.24347074  0.11985723  1
  V  V10  1  0.87295034  -0.00340487  0.87794776  1
  V  V11  1  0.86783603  0.62405628  0.25100341  1
  V  V12  1  0.49995544  0.86525901  0.88503437  1
  V  V13  1  0.37139752  0.64407019  0.75526655  1
  V  V14  1  0.48893180  0.62220981  0.13763539  1
  V  V15  1  0.13084063  0.24725492  0.36861366  1
  V  V16  1  0.26165930  0.11900008  0.36820733  1
  V  V17  1  0.12938658  0.63041556  -0.00292028  1
  V  V18  1  0.60693568  0.74782896  0.37978254  1
  V  V19  1  0.38817748  0.24595019  0.12152770  1
  V  V20  1  0.12792356  0.49524755  0.13275402  1
  V  V21  1  0.50342537  0.50136621  0.50799590  1
  V  V22  1  0.86606990  0.12295691  0.25024904  1
  V  V23  1  0.74323569  0.25075276  0.00647404  1
  V  V24  1  0.87563704  0.49851823  0.37310287  1
  V  V25  1  0.86923972  0.75752708  0.12713884  1
  V  V26  1  0.61916001  0.86820051  0.74402051  1
  V  V27  1  0.25204772  0.50628688  0.25283691  1
  V  V28  1  0.61306661  0.37577555  0.26537382  1
  V  V29  1  0.37066542  0.76337739  0.13188834  1
  V  V30  1  0.37847611  0.50511683  0.37366894  1
  V  V31  1  0.74416364  -0.00289174  0.74859972  1
  V  V32  1  0.01564778  0.76404335  0.76052492  1
  V  V33  1  0.00966645  0.37141683  0.36687182  1
  V  V34  1  0.73937934  0.13131346  0.87847998  1
  V  V35  1  0.38000633  0.49073677  0.87313950  1
  V  V36  1  0.00345873  0.24160935  0.74621803  1
  V  V37  1  0.23380673  0.63224543  0.39629840  1
  V  V38  1  0.00734725  0.64301621  0.61436578  1
  V  V39  1  0.37733982  0.25075272  0.62227858  1
  V  V40  1  0.87451476  0.37347404  0.00439695  1
  V  V41  1  0.25623513  0.87806636  0.60625889  1
  V  V42  1  0.74477602  0.37852542  0.63043113  1
  V  V43  1  0.50451486  0.25510265  0.75090155  1
  V  V44  1  0.13238257  0.24849936  0.87589551  1
  V  V45  1  0.49945055  0.24588734  0.27452924  1
  V  V46  1  0.62817087  0.02424502  0.12550706  1
  V  V47  1  0.00337446  0.62769779  0.12579418  1
  V  V48  1  0.73054423  0.25465779  0.49160928  1
  V  V49  1  0.12603614  -0.02039760  0.12248342  1
  V  V50  1  0.62034015  0.01431581  0.62136013  1
  V  V51  1  0.49623832  -0.00245192  0.50686958  1
  V  V52  1  0.37445289  0.75345707  0.60241204  1
  V  V53  1  0.50670379  0.01756151  0.00464257  1
  V  V54  1  0.25446141  -0.00863839  0.74639781  1
  V  V55  1  0.74561227  0.75432402  0.00444432  1
  V  V56  1  0.12668520  0.86954060  0.27453880  1
  V  V57  1  0.24639608  0.62584514  0.87824649  1
  V  V58  1  0.74898222  0.62467820  0.87808664  1
  V  V59  1  0.75401099  0.48210497  0.23845407  1
  V  V60  1  0.00267291  0.49961127  0.00013527  1
  V  V61  1  0.11089563  0.00160044  0.62006537  1
  V  V62  1  0.61939288  0.85545315  0.23557012  1
  V  V63  1  0.13176471  0.37337358  0.74305951  1
  V  V64  1  0.12797064  0.50144607  0.62392783  1
  V  V65  1  0.37209259  0.37532634  0.49840057  1
  V  V66  1  0.12118884  0.13037320  0.00979358  1
  V  V67  1  0.87844114  0.62691804  0.74888004  1
  V  V68  1  0.74449255  0.49819676  0.74935093  1
  V  V69  1  0.87998340  0.36910562  0.49989661  1
  V  V70  1  0.38213856  0.12445836  0.74203709  1
  V  V71  1  0.87712856  0.12313367  0.75042657  1
  V  V72  1  0.00525564  0.24212261  0.24399742  1
  V  V73  1  0.88050052  0.24672597  0.62512184  1
  V  V74  1  0.87726571  0.87601814  -0.00134013  1
  V  V75  1  0.50520015  0.62730569  0.62834719  1
  V  V76  1  0.38800385  -0.01740759  0.37483389  1
  V  V77  1  0.86556528  0.92582466  0.45319135  1
  V  V78  1  0.25298737  0.49938151  0.74652408  1
  Zn  Zn79  1  0.37613065  0.36800601  -0.00521765  1
  Zn  Zn80  1  0.24894204  0.77758604  0.01461457  1
  Zn  Zn81  1  0.26585098  -0.01985512  0.23902359  1
  Zn  Zn82  1  0.87653632  0.49962000  0.87506233  1
  Zn  Zn83  1  0.12001772  0.11936013  0.49846663  1
  Zn  Zn84  1  0.61170565  0.38696897  0.75579441  1
  Zn  Zn85  1  0.62053032  0.62595209  0.00331418  1
  Zn  Zn86  1  0.75852532  0.09716733  0.40276872  1
  Zn  Zn87  1  0.75528671  -0.01607307  0.24634842  1
  Zn  Zn88  1  0.71257289  0.66973672  0.46807238  1
  Zn  Zn89  1  0.62963531  0.49781537  0.12158608  1
  Zn  Zn90  1  -0.00477772  0.00328035  0.00604190  1
  Zn  Zn91  1  0.39040071  0.11643054  0.24238286  1
  Zn  Zn92  1  0.62057632  0.74822347  0.87454787  1
  Zn  Zn93  1  0.60987875  0.25722498  0.89041608  1
  Zn  Zn94  1  0.19688582  0.18621384  0.18966718  1
  Zn  Zn95  1  0.18941908  0.17682638  0.68503489  1
  Zn  Zn96  1  0.19183513  0.69085232  0.19404427  1
  Zn  Zn97  1  0.15875522  0.72186375  0.63183514  1
  Zn  Zn98  1  0.68341625  0.20083754  0.19235351  1
  Zn  Zn99  1  0.69159849  0.18902278  0.68240627  1
  Zn  Zn100  1  0.68125009  0.67922093  0.18819601  1
  Zn  Zn101  1  0.68919975  0.68516491  0.68907899  1
  Zn  Zn102  1  0.31517677  0.31861849  0.30983915  1
  Zn  Zn103  1  0.31540882  0.31170633  0.80812391  1
  Zn  Zn104  1  0.31657198  0.79875307  0.31391800  1
  Zn  Zn105  1  0.29533942  0.82684557  0.84713391  1
  Zn  Zn106  1  0.81767260  0.30925398  0.31106321  1
  Zn  Zn107  1  0.81096303  0.31245621  0.81741300  1
  Zn  Zn108  1  0.79091032  0.81742309  0.32651418  1
  Zn  Zn109  1  0.80824806  0.81313290  0.81475937  1
  Zn  Zn110  1  0.19130238  0.43545027  0.43559503  1
  Zn  Zn111  1  0.19176333  0.43977186  0.94117760  1
  Zn  Zn112  1  0.18885777  0.94015291  0.43772688  1
  Zn  Zn113  1  0.17245152  0.93941592  0.92769193  1
  Zn  Zn114  1  0.69856844  0.46646748  0.44638459  1
  Zn  Zn115  1  0.68595017  0.43344897  0.93169322  1
  Zn  Zn116  1  0.68236343  0.92438540  0.43525240  1
  Zn  Zn117  1  0.68515439  0.93698211  0.94094687  1
  Zn  Zn118  1  0.30766094  0.06232305  0.06324732  1
  Zn  Zn119  1  0.31653616  0.06536821  0.55652508  1
  Zn  Zn120  1  0.31541461  0.56078439  0.06137890  1
  Zn  Zn121  1  0.31244245  0.56725984  0.56488551  1
  Zn  Zn122  1  0.80820224  0.06625839  0.06558716  1
  Zn  Zn123  1  0.80466235  0.06693185  0.56791486  1
  Zn  Zn124  1  0.81640933  0.56453806  0.06176148  1
  Zn  Zn125  1  0.82025331  0.56150334  0.56814966  1
  Zn  Zn126  1  0.43951529  0.43605495  0.18871430  1
  Zn  Zn127  1  0.43014159  0.43424354  0.68084837  1
  Zn  Zn128  1  0.44996497  0.93344988  0.18852613  1
  Zn  Zn129  1  0.44032559  0.93144430  0.69032635  1
  Zn  Zn130  1  0.94209591  0.43299627  0.18554040  1
  Zn  Zn131  1  0.93934475  0.43931168  0.68697917  1
  Zn  Zn132  1  0.94189769  0.93915372  0.19040977  1
  Zn  Zn133  1  0.92941774  0.92867481  0.68575047  1
  Zn  Zn134  1  0.06546892  0.06292700  0.30864316  1
  Zn  Zn135  1  0.06763160  0.05043569  0.81481946  1
  Zn  Zn136  1  0.06246042  0.56639449  0.31331410  1
  Zn  Zn137  1  0.06348457  0.56836263  0.80707081  1
  Zn  Zn138  1  0.57741152  0.05542087  0.31800934  1
  Zn  Zn139  1  0.56127144  0.06453483  0.81291480  1
  Zn  Zn140  1  0.56911016  0.56426273  0.31853706  1
  Zn  Zn141  1  0.55887068  0.56778110  0.81158874  1
  Zn  Zn142  1  0.44558438  0.17809206  0.44556259  1
  Zn  Zn143  1  0.43687672  0.18854379  0.93487931  1
  Zn  Zn144  1  0.43762134  0.67878071  0.43208699  1
  Zn  Zn145  1  0.42806835  0.68109367  0.95062631  1
  Zn  Zn146  1  0.93477331  0.18345083  0.42876392  1
  Zn  Zn147  1  0.93906368  0.18453562  0.93210151  1
  Zn  Zn148  1  0.92714058  0.68337487  0.43686646  1
  Zn  Zn149  1  0.93719585  0.68997099  0.93673065  1
  Zn  Zn150  1  0.06775850  0.31372002  0.06243605  1
  Zn  Zn151  1  0.06718025  0.31055776  0.55926270  1
  Zn  Zn152  1  0.05615210  0.80946945  0.05810484  1
  Zn  Zn153  1  0.00581911  0.81035228  0.53557060  1
  Zn  Zn154  1  0.56591156  0.32186911  0.07848575  1
  Zn  Zn155  1  0.55675911  0.31823350  0.56795580  1
  Zn  Zn156  1  0.55112035  0.80770122  0.06163264  1
  Zn  Zn157  1  0.56094925  0.81312249  0.55774660  1
  O  O158  1  0.13023198  0.13674407  0.11001306  1
  O  O159  1  0.12482302  0.11037505  0.61847721  1
  O  O160  1  0.11784818  0.61785937  0.12093377  1
  O  O161  1  0.11505217  0.60789639  0.63499615  1
  O  O162  1  0.62234267  0.12336314  0.13066782  1
  O  O163  1  0.62333309  0.11342381  0.62812200  1
  O  O164  1  0.61247590  0.61563156  0.12166726  1
  O  O165  1  0.60376926  0.63094903  0.63344938  1
  O  O166  1  0.36873511  0.38897172  0.38799904  1
  O  O167  1  0.37028639  0.38512504  0.87617914  1
  O  O168  1  0.36955858  0.88560680  0.37070864  1
  O  O169  1  0.39435459  0.88963169  0.86614736  1
  O  O170  1  0.88998525  0.37570847  0.38183944  1
  O  O171  1  0.88997821  0.37273952  0.88245246  1
  O  O172  1  0.86982692  0.89640712  0.35449767  1
  O  O173  1  0.86413510  0.88591488  0.88454289  1
  O  O174  1  0.26164840  0.00922331  0.37395946  1
  O  O175  1  0.26184439  0.01074832  0.86111059  1
  O  O176  1  0.25485522  0.50569146  0.37169073  1
  O  O177  1  0.25805653  0.50176354  0.86703359  1
  O  O178  1  0.70986662  0.00521660  0.35377806  1
  O  O179  1  0.75087672  0.01195035  0.87064223  1
  O  O180  1  0.77297576  0.48519903  0.35588760  1
  O  O181  1  0.75529907  0.50798894  0.86913922  1
  O  O182  1  0.24606303  0.49532415  0.13330987  1
  O  O183  1  0.24224893  0.50371482  0.63627706  1
  O  O184  1  0.23164946  1.00897476  0.13242730  1
  O  O185  1  0.27691497  0.98874470  0.63609877  1
  O  O186  1  0.75670536  0.49949298  0.13556226  1
  O  O187  1  0.76239120  0.48824881  0.63871218  1
  O  O188  1  0.73229279  1.00665321  0.12620572  1
  O  O189  1  0.73733761  1.00488935  0.63951693  1
  O  O190  1  -0.00304575  0.36252388  0.26029859  1
  O  O191  1  0.00892924  0.36660983  0.75702769  1
  O  O192  1  0.00710219  0.86135096  0.24837178  1
  O  O193  1  -0.01140932  0.86114125  0.75594709  1
  O  O194  1  0.50725849  0.37410721  0.26245317  1
  O  O195  1  0.49729505  0.36101477  0.73981106  1
  O  O196  1  0.51978523  0.87399358  0.25318274  1
  O  O197  1  0.51351266  0.87986138  0.76492890  1
  O  O198  1  0.50472988  0.14253148  0.26369426  1
  O  O199  1  0.48816540  0.13388176  0.75261695  1
  O  O200  1  0.50249308  0.60690966  0.23571638  1
  O  O201  1  0.48442296  0.61878079  0.73769216  1
  O  O202  1  0.99017666  0.13620742  0.25344197  1
  O  O203  1  0.99204798  0.13225892  0.76110042  1
  O  O204  1  0.99628042  0.63440874  0.24202441  1
  O  O205  1  0.99312152  0.63072944  0.73979755  1
  O  O206  1  0.38381611  0.25133008  0.01553261  1
  O  O207  1  0.37153186  0.25343067  0.50391691  1
  O  O208  1  0.36357382  0.74211589  0.01871923  1
  O  O209  1  0.37426576  0.74887314  0.50472885  1
  O  O210  1  0.87688660  0.25517939  0.00341186  1
  O  O211  1  0.88684293  0.25605183  0.50885756  1
  O  O212  1  0.86915255  0.75586523  0.00765068  1
  O  O213  1  0.89168892  0.74791593  0.52147591  1
  O  O214  1  0.13168936  0.24278786  0.48990596  1
  O  O215  1  0.12288697  0.24141945  0.98709799  1
  O  O216  1  0.07139153  0.72217349  0.55378250  1
  O  O217  1  0.12847874  0.73363204  1.00829830  1
  O  O218  1  0.63187720  0.26595328  0.49989796  1
  O  O219  1  0.64042089  0.26129467  1.00818533  1
  O  O220  1  0.62324913  0.74936316  0.48761306  1
  O  O221  1  0.63553209  0.74760224  0.99882950  1
  O  O222  1  0.48985654  0.25410976  0.13596372  1
  O  O223  1  0.48582733  0.24940567  0.63072512  1
  O  O224  1  0.48676250  0.73025290  0.11806589  1
  O  O225  1  0.48495394  0.73902575  0.61789929  1
  O  O226  1  0.99887313  0.25621220  0.13387780  1
  O  O227  1  0.99479001  0.25309578  0.63624977  1
  O  O228  1  0.99088450  0.74134276  0.12934398  1
  O  O229  1  0.97155357  0.74767317  0.65310881  1
  O  O230  1  0.01045701  0.25347395  0.36704422  1
  O  O231  1  0.01059909  0.25676987  0.86515980  1
  O  O232  1  -0.00791003  0.74604810  0.36275108  1
  O  O233  1  0.00083285  0.73907055  0.85936020  1
  O  O234  1  0.49157358  0.25577812  0.37313715  1
  O  O235  1  0.49604280  0.24959547  0.85723076  1
  O  O236  1  0.50503769  0.74512473  0.37385119  1
  O  O237  1  0.49714823  0.76195270  0.88804187  1
  O  O238  1  0.25320628  0.13323620  0.48536009  1
  O  O239  1  0.23785322  0.11908513  0.98463834  1
  O  O240  1  0.24094863  0.62441882  0.49773338  1
  O  O241  1  0.24023711  0.61249059  0.99226352  1
  O  O242  1  0.74904820  0.15315221  0.50847247  1
  O  O243  1  0.75485470  0.14136325  0.99195929  1
  O  O244  1  0.74664547  0.56762623  0.48805935  1
  O  O245  1  0.75174484  0.63056190  0.99175977  1
  O  O246  1  0.25680976  0.38273502  0.01891306  1
  O  O247  1  0.25583877  0.35831962  0.49450650  1
  O  O248  1  0.25007964  0.86711523  -0.05118652  1
  O  O249  1  0.26076566  0.88341883  0.50771953  1
  O  O250  1  0.76593734  0.36306719  -0.00898677  1
  O  O251  1  0.76320785  0.37111230  0.51089745  1
  O  O252  1  0.75789630  0.86206602  -0.00251586  1
  O  O253  1  0.77919146  0.88445486  0.48718020  1
  O  O254  1  0.12961245  0.50209752  0.23848440  1
  O  O255  1  0.13145282  0.49098748  0.74458753  1
  O  O256  1  0.11861861  0.97978896  0.24259869  1
  O  O257  1  0.15240253  1.01351406  0.72929936  1
  O  O258  1  0.64721533  0.49695142  0.25428107  1
  O  O259  1  0.63958191  0.50310658  0.75367215  1
  O  O260  1  0.61207114  0.99248439  0.22439737  1
  O  O261  1  0.62624297  0.99586812  0.74206953  1
  O  O262  1  0.37997095  -0.00033577  0.25998219  1
  O  O263  1  0.37562494  0.00792782  0.75803976  1
  O  O264  1  0.37091849  0.49425097  0.26856716  1
  O  O265  1  0.36673915  0.49854983  0.75510783  1
  O  O266  1  0.87202993  0.01852637  0.23544668  1
  O  O267  1  0.86391909  0.00503809  0.75555274  1
  O  O268  1  0.87395441  0.50232995  0.25132241  1
  O  O269  1  0.87198599  0.51103786  0.75255923  1
  O  O270  1  0.11927400  0.36141275  0.37879018  1
  O  O271  1  0.12124780  0.36744708  0.86887610  1
  O  O272  1  0.11675613  0.87808753  0.37304590  1
  O  O273  1  0.09388426  0.94740987  0.85340522  1
  O  O274  1  0.63615202  0.39348100  0.36174441  1
  O  O275  1  0.63613918  0.36272839  0.86238743  1
  O  O276  1  0.62540488  0.85462890  0.36483781  1
  O  O277  1  0.61326405  0.87503834  0.87008776  1
  O  O278  1  0.36512423  0.14231442  0.12947054  1
  O  O279  1  0.37037273  0.13458517  0.63291644  1
  O  O280  1  0.38532758  0.61779066  0.12944148  1
  O  O281  1  0.37071374  0.64377123  0.63467247  1
  O  O282  1  0.88154718  0.13787479  0.12516657  1
  O  O283  1  0.87086338  0.13412247  0.63952449  1
  O  O284  1  0.88717905  0.63057755  0.13111557  1
  O  O285  1  0.88882606  0.62689234  0.63105790  1
  O  O286  1  0.26066301  0.26528736  0.13536825  1
  O  O287  1  0.25602650  0.24020404  0.61177246  1
  O  O288  1  0.26019170  0.74972656  0.12739470  1
  O  O289  1  0.26108690  0.76800596  0.62178407  1
  O  O290  1  0.76303638  0.24930828  0.11020645  1
  O  O291  1  0.76328932  0.25997524  0.62008013  1
  O  O292  1  0.76214041  0.73552417  0.11628940  1
  O  O293  1  0.75840913  0.72318443  0.60765974  1
  O  O294  1  0.24823280  0.24190709  0.37724562  1
  O  O295  1  0.24224907  0.24213003  0.86654384  1
  O  O296  1  0.25195604  0.72953016  0.37534819  1
  O  O297  1  0.24868253  0.72499826  0.87416376  1
  O  O298  1  0.75476837  0.26380350  0.39389706  1
  O  O299  1  0.75418987  0.24366196  0.88834645  1
  O  O300  1  0.74171833  0.73736353  0.38161201  1
  O  O301  1  0.75067530  0.74020191  0.88670963  1
  O  O302  1  0.01731897  0.12393373  -0.00672266  1
  O  O303  1  0.00537343  0.09651732  0.46085735  1
  O  O304  1  0.00589871  0.62064993  0.00819977  1
  O  O305  1  -0.01118260  0.60542551  0.50384310  1
  O  O306  1  0.50656753  0.11677096  -0.00721608  1
  O  O307  1  0.50993922  0.10071563  0.49272096  1
  O  O308  1  0.50104881  0.60920954  0.00638112  1
  O  O309  1  0.48878891  0.61271313  0.51637367  1
  O  O310  1  0.48380147  0.38986189  0.51210283  1
  O  O311  1  0.49929115  0.38828753  1.00573933  1
  O  O312  1  0.50694941  0.89506335  0.49992961  1
  O  O313  1  0.50377603  0.88782499  0.98703067  1
  O  O314  1  0.99773076  0.37822508  0.49135924  1
  O  O315  1  0.99867035  0.37819028  0.99104633  1
  O  O316  1  0.95246752  0.89978363  0.50413859  1
  O  O317  1  0.98245943  0.87689068  1.00034821  1
  O  O318  1  0.48472028  0.51190895  0.39140227  1
  O  O319  1  0.49284234  0.50369188  0.88404392  1
  O  O320  1  0.49118411  0.99740873  0.37793863  1
  O  O321  1  0.49738598  0.99863602  0.88571114  1
  O  O322  1  0.99839346  0.48930012  0.37834343  1
  O  O323  1  1.00368034  0.48906908  0.87790718  1
  O  O324  1  1.00298491  1.03560506  0.40501507  1
  O  O325  1  0.97221471  1.01653764  0.88349602  1
  O  O326  1  0.01958607  -0.00295567  0.12413019  1
  O  O327  1  0.01344623  -0.00965649  0.63770889  1
  O  O328  1  0.00796969  0.50717429  0.12277039  1
  O  O329  1  0.00747731  0.50514688  0.61734194  1
  O  O330  1  0.50304711  0.00345838  0.10882584  1
  O  O331  1  0.50727958  -0.00051963  0.61938779  1
  O  O332  1  0.49541708  0.50482625  0.11130835  1
  O  O333  1  0.48706381  0.51317158  0.61832797  1
  O  O334  1  0.25456283  0.39002869  0.23838760  1
  O  O335  1  0.23905019  0.38242844  0.75438297  1
  O  O336  1  0.23040723  0.86938572  0.26222847  1
  O  O337  1  0.25887590  0.89106139  0.75477424  1
  O  O338  1  0.75322888  0.37937427  0.24373167  1
  O  O339  1  0.76120198  0.38374018  0.74423270  1
  O  O340  1  0.73037964  0.87316274  0.24737281  1
  O  O341  1  0.73268587  0.88994648  0.76426114  1
  O  O342  1  0.25826828  0.12229992  0.26237467  1
  O  O343  1  0.26390525  0.12000324  0.75678079  1
  O  O344  1  0.24527610  0.61008242  0.25827026  1
  O  O345  1  0.25811751  0.60938906  0.76032123  1
  O  O346  1  0.76673000  0.13494311  0.23461799  1
  O  O347  1  0.75710329  0.12119035  0.75728525  1
  O  O348  1  0.76600729  0.61386357  0.24406339  1
  O  O349  1  0.75619675  0.61521176  0.75701504  1
  O  O350  1  0.36838818  0.11879216  0.37335939  1
  O  O351  1  0.36921504  0.12065754  0.86724590  1
  O  O352  1  0.35799114  0.60820645  0.38566369  1
  O  O353  1  0.36831771  0.61183297  0.86990743  1
  O  O354  1  0.86162089  0.13836289  0.35358080  1
  O  O355  1  0.86210636  0.12208470  0.86571421  1
  O  O356  1  0.88613951  0.60854733  0.36225032  1
  O  O357  1  0.86635065  0.62372640  0.86793129  1
  O  O358  1  0.13913340  0.38288661  0.12134503  1
  O  O359  1  0.11845034  0.38270290  0.63595658  1
  O  O360  1  0.13061954  0.87919480  0.11566929  1
  O  O361  1  0.15396603  0.89524683  0.62576554  1
  O  O362  1  0.62160814  0.38706196  0.15209418  1
  O  O363  1  0.64130374  0.37080100  0.63514762  1
  O  O364  1  0.62190084  0.86220385  0.13192092  1
  O  O365  1  0.61708341  0.87896553  0.64184155  1
  O  O366  1  0.12022446  0.24126019  0.25955727  1
  O  O367  1  0.12200637  0.25317455  0.75341829  1
  O  O368  1  0.11079677  0.75924551  0.24922027  1
  O  O369  1  0.11303035  0.75279845  0.73633305  1
  O  O370  1  0.61207598  0.26549416  0.25507141  1
  O  O371  1  0.60622000  0.24436334  0.73957299  1
  O  O372  1  0.62525334  0.75071430  0.25638021  1
  O  O373  1  0.63401559  0.76487819  0.75403357  1
  O  O374  1  0.38966481  0.25336504  0.24609954  1
  O  O375  1  0.38108205  0.24447517  0.74123547  1
  O  O376  1  0.37474609  0.74639343  0.23307680  1
  O  O377  1  0.36754816  0.74212226  0.76393663  1
  O  O378  1  0.88449947  0.24514803  0.23787868  1
  O  O379  1  0.88341688  0.24366795  0.74549298  1
  O  O380  1  0.88458274  0.74228973  0.24367474  1
  O  O381  1  0.85495868  0.73352533  0.74292022  1
  O  O382  1  0.37274137  0.49197649  0.49629955  1
  O  O383  1  0.38545579  0.49703272  0.98914569  1
  O  O384  1  0.38630746  1.00073497  0.48814569  1
  O  O385  1  0.38579212  1.01141871  0.99008066  1
  O  O386  1  0.88896175  0.48346659  0.49266684  1
  O  O387  1  0.88421568  0.49072879  0.99914314  1
  O  O388  1  0.84505702  1.02940494  0.46900682  1
  O  O389  1  0.86789052  0.99240025  0.99728561  1
  O  O390  1  0.12588660  0.01207600  0.01379621  1
  O  O391  1  0.13008723  -0.00008409  0.51573359  1
  O  O392  1  0.12010648  0.50547325  0.01272348  1
  O  O393  1  0.11780316  0.48640982  0.51104726  1
  O  O394  1  0.61638060  0.00064552  0.01118242  1
  O  O395  1  0.62585164  -0.00764280  0.51923153  1
  O  O396  1  0.61420487  0.49783807  -0.00188917  1
  O  O397  1  0.60073698  0.49034662  0.50267876  1
  O  O398  1  0.36824246  0.36607413  0.12590566  1
  O  O399  1  0.36630824  0.36194002  0.61441166  1
  O  O400  1  0.38255122  0.86415073  0.12659526  1
  O  O401  1  0.37349713  0.85908497  0.62941688  1
  O  O402  1  0.88537238  0.36430009  0.11132833  1
  O  O403  1  0.87565821  0.36566861  0.61827564  1
  O  O404  1  0.87782662  0.86366268  0.12052535  1
  O  O405  1  0.85304068  0.85568838  0.63976969  1
  O  O406  1  0.14293103  0.12986355  0.37354701  1
  O  O407  1  0.13367603  0.13294003  0.87528391  1
  O  O408  1  0.13374964  0.61968476  0.38011554  1
  O  O409  1  0.13266023  0.60962081  0.88736643  1
  O  O410  1  0.65455719  0.12554568  0.35789595  1
  O  O411  1  0.63520473  0.13632092  0.86880688  1
  O  O412  1  0.62577484  0.64009586  0.37563919  1
  O  O413  1  0.63663842  0.62866227  0.87489407  1
