# generated using pymatgen
data_V79Zn79O256
_symmetry_space_group_name_H-M   'P 1'
_cell_length_a   16.86264550
_cell_length_b   16.87538226
_cell_length_c   16.86583329
_cell_angle_alpha   89.90753656
_cell_angle_beta   90.06723455
_cell_angle_gamma   89.87094625
_symmetry_Int_Tables_number   1
_chemical_formula_structural   V79Zn79O256
_chemical_formula_sum   'V79 Zn79 O256'
_cell_volume   4799.38029854
_cell_formula_units_Z   1
loop_
 _symmetry_equiv_pos_site_id
 _symmetry_equiv_pos_as_xyz
  1  'x, y, z'
loop_
 _atom_site_type_symbol
 _atom_site_label
 _atom_site_symmetry_multiplicity
 _atom_site_fract_x
 _atom_site_fract_y
 _atom_site_fract_z
 _atom_site_occupancy
  V  V0  1  0.81278062  0.30207396  0.06569913  1
  V  V1  1  0.63349002  0.23423013  0.88517277  1
  V  V2  1  -0.01537504  0.63601223  0.63236398  1
  V  V3  1  0.87802677  0.00618652  0.36430215  1
  V  V4  1  0.74489248  0.24817256  0.49368616  1
  V  V5  1  0.24559230  0.75466480  0.00168497  1
  V  V6  1  0.50638745  0.10909893  0.11183333  1
  V  V7  1  0.87162339  0.12370152  0.76313501  1
  V  V8  1  0.62023457  0.50204099  0.62771027  1
  V  V9  1  0.48536192  0.12790676  0.62864469  1
  V  V10  1  0.13136876  0.10549387  -0.00061798  1
  V  V11  1  0.00566952  0.10572191  0.12149867  1
  V  V12  1  0.87708725  0.48578879  0.86827867  1
  V  V13  1  0.63297914  0.48591200  0.12765140  1
  V  V14  1  0.00398656  0.75951059  0.76611004  1
  V  V15  1  0.01495721  0.89817369  0.88244827  1
  V  V16  1  0.37687271  -0.00722218  0.37373239  1
  V  V17  1  0.12444689  -0.00228070  0.63413307  1
  V  V18  1  0.12548407  0.12657444  0.50026583  1
  V  V19  1  0.50160551  -0.00267427  0.50219189  1
  V  V20  1  0.62023493  0.62124958  0.48794450  1
  V  V21  1  0.25179869  0.11868380  0.37255865  1
  V  V22  1  0.48690104  0.75571046  0.74389688  1
  V  V23  1  0.25216653  0.74268507  0.50370565  1
  V  V24  1  0.24894455  0.50364810  0.25539232  1
  V  V25  1  0.24776999  0.87079244  0.62819303  1
  V  V26  1  0.62527255  0.87761149  0.75616487  1
  V  V27  1  0.62579482  0.75172332  0.86793796  1
  V  V28  1  -0.00374840  0.62946629  0.12076261  1
  V  V29  1  0.48982178  0.24376079  0.74777292  1
  V  V30  1  0.12218936  0.49931179  0.12264477  1
  V  V31  1  0.12010810  0.62161758  0.50231306  1
  V  V32  1  0.49079331  0.48600261  0.50006274  1
  V  V33  1  0.36700426  0.75403523  0.12823909  1
  V  V34  1  0.26583278  0.00305969  0.74946425  1
  V  V35  1  0.12127262  0.25538060  0.87669640  1
  V  V36  1  0.00343341  0.87203158  0.36917471  1
  V  V37  1  0.51144592  0.25382898  0.25324717  1
  V  V38  1  0.37666160  0.86801024  0.50501296  1
  V  V39  1  0.13671336  0.88630710  0.24717394  1
  V  V40  1  0.62790293  0.62253940  0.00034399  1
  V  V41  1  0.75359284  0.75855339  0.00075940  1
  V  V42  1  0.87727325  0.62345191  0.25275277  1
  V  V43  1  0.87718452  0.38599840  0.48987843  1
  V  V44  1  0.26389135  0.13045140  0.86406887  1
  V  V45  1  0.87489701  0.75940717  0.12314616  1
  V  V46  1  0.37763480  0.25185182  0.12264180  1
  V  V47  1  0.25154452  0.37403226  0.12341952  1
  V  V48  1  -0.00713022  0.24209685  0.24084186  1
  V  V49  1  -0.00210581  0.25578600  0.75493392  1
  V  V50  1  0.26178191  0.61445509  0.87720482  1
  V  V51  1  -0.00038553  0.00185634  0.50022489  1
  V  V52  1  -0.00085584  0.12580080  0.62512095  1
  V  V53  1  0.75973933  0.62460673  0.86437116  1
  V  V54  1  0.12468581  0.38001250  0.74884058  1
  V  V55  1  0.87862158  0.86630986  0.50778612  1
  V  V56  1  0.87233544  0.25055998  0.62228277  1
  V  V57  1  0.12809339  0.74342153  0.36957275  1
  V  V58  1  0.62997968  0.37470549  0.75343280  1
  V  V59  1  0.49525916  0.50306251  -0.00314376  1
  V  V60  1  -0.00906196  0.48932724  -0.00501805  1
  V  V61  1  0.63013750  0.00525702  0.62796910  1
  V  V62  1  0.37202497  0.11684250  0.24436228  1
  V  V63  1  0.12366092  0.37373483  0.24935552  1
  V  V64  1  0.75160903  0.49517926  0.25609440  1
  V  V65  1  -0.00375726  0.38482783  0.37528417  1
  V  V66  1  0.12467026  0.24944758  0.37472919  1
  V  V67  1  0.26568620  0.25403278  0.50136941  1
  V  V68  1  0.37223478  0.62315463  0.25837358  1
  V  V69  1  0.51226559  0.75026223  0.25748257  1
  V  V70  1  0.37215653  0.60652418  0.74857024  1
  V  V71  1  0.75204698  0.00547081  0.76711974  1
  V  V72  1  0.73265702  -0.01946030  0.24761361  1
  V  V73  1  0.49570670  0.37897756  0.87566294  1
  V  V74  1  0.11680723  0.50007893  0.62282091  1
  V  V75  1  0.74368811  0.12863253  0.36264843  1
  V  V76  1  0.37255679  0.48505344  0.37772197  1
  V  V77  1  0.25937160  0.37618386  0.62088325  1
  V  V78  1  0.12230850  0.62777287  -0.01127909  1
  Zn  Zn79  1  0.25070351  0.25157845  -0.00289120  1
  Zn  Zn80  1  0.71222089  0.77740654  0.47816974  1
  Zn  Zn81  1  0.25089142  0.90768251  0.12654927  1
  Zn  Zn82  1  0.74993856  0.37676289  0.62163172  1
  Zn  Zn83  1  0.51905722  0.36697443  0.37457461  1
  Zn  Zn84  1  0.54890839  0.87745064  0.35865701  1
  Zn  Zn85  1  0.48769423  0.62885089  0.61871013  1
  Zn  Zn86  1  0.37058237  0.38431837  -0.00715497  1
  Zn  Zn87  1  0.62133774  0.13224011  0.49840730  1
  Zn  Zn88  1  0.42731670  -0.08234124  -0.07334359  1
  Zn  Zn89  1  0.89020926  0.91904328  -0.00330218  1
  Zn  Zn90  1  0.76383298  0.86795867  0.63209165  1
  Zn  Zn91  1  0.75647598  0.50496434  0.74343738  1
  Zn  Zn92  1  0.50087435  0.62557080  0.12609416  1
  Zn  Zn93  1  0.74796297  0.63176476  0.37461340  1
  Zn  Zn94  1  0.18744385  0.18181808  0.18500566  1
  Zn  Zn95  1  0.18981799  0.19194994  0.68511157  1
  Zn  Zn96  1  0.18171326  0.68500854  0.18654297  1
  Zn  Zn97  1  0.18342897  0.68656747  0.69311391  1
  Zn  Zn98  1  0.68359410  0.19132978  0.16074004  1
  Zn  Zn99  1  0.68376230  0.18790566  0.69121298  1
  Zn  Zn100  1  0.69279931  0.68494138  0.18408041  1
  Zn  Zn101  1  0.69068076  0.69307604  0.67302882  1
  Zn  Zn102  1  0.31411300  0.30716342  0.30876564  1
  Zn  Zn103  1  0.31012384  0.31821381  0.80724661  1
  Zn  Zn104  1  0.31236323  0.80944820  0.31674466  1
  Zn  Zn105  1  0.29987741  0.80812548  0.81272531  1
  Zn  Zn106  1  0.78981392  0.28913211  0.27881333  1
  Zn  Zn107  1  0.81020080  0.30767614  0.81880104  1
  Zn  Zn108  1  0.81450825  0.81069171  0.31523997  1
  Zn  Zn109  1  0.83021161  0.82208954  0.81528125  1
  Zn  Zn110  1  0.18500582  0.43676778  0.43972743  1
  Zn  Zn111  1  0.18364035  0.44056258  0.93612714  1
  Zn  Zn112  1  0.18796347  0.93323399  0.43964034  1
  Zn  Zn113  1  0.21710803  0.92603629  0.92396951  1
  Zn  Zn114  1  0.68923656  0.43942887  0.43331906  1
  Zn  Zn115  1  0.69180647  0.42899048  0.94149477  1
  Zn  Zn116  1  0.69172195  0.94843124  0.43735269  1
  Zn  Zn117  1  0.72527014  0.97325826  0.97854991  1
  Zn  Zn118  1  0.31879743  0.06287901  0.05158753  1
  Zn  Zn119  1  0.31064885  0.06146285  0.55907192  1
  Zn  Zn120  1  0.31157595  0.56839629  0.06856679  1
  Zn  Zn121  1  0.30715029  0.55703230  0.56417442  1
  Zn  Zn122  1  0.80527262  0.08966654  0.08395015  1
  Zn  Zn123  1  0.81189448  0.06351789  0.56256359  1
  Zn  Zn124  1  0.81142836  0.56182371  0.06117673  1
  Zn  Zn125  1  0.80644139  0.56485900  0.56051448  1
  Zn  Zn126  1  0.44203744  0.43911205  0.18579787  1
  Zn  Zn127  1  0.43998888  0.43438641  0.69064818  1
  Zn  Zn128  1  0.44033630  0.93027663  0.18796293  1
  Zn  Zn129  1  0.44014053  0.93666287  0.68785809  1
  Zn  Zn130  1  0.93247986  0.43292008  0.18504060  1
  Zn  Zn131  1  0.93871010  0.43967603  0.68201411  1
  Zn  Zn132  1  0.93976106  0.93513061  0.18853871  1
  Zn  Zn133  1  0.93929557  0.93493343  0.69916573  1
  Zn  Zn134  1  0.06533166  0.06140362  0.31054715  1
  Zn  Zn135  1  0.06658855  0.07105073  0.81337375  1
  Zn  Zn136  1  0.06081613  0.56566541  0.30938341  1
  Zn  Zn137  1  0.05982405  0.56615026  0.80909358  1
  Zn  Zn138  1  0.56256915  0.06669615  0.30608781  1
  Zn  Zn139  1  0.55138798  0.05852507  0.82534908  1
  Zn  Zn140  1  0.55610198  0.55415092  0.30922474  1
  Zn  Zn141  1  0.56016775  0.56746385  0.81289280  1
  Zn  Zn142  1  0.44119135  0.18341365  0.43420006  1
  Zn  Zn143  1  0.44475809  0.19297978  0.93871296  1
  Zn  Zn144  1  0.44002132  0.68181557  0.43573049  1
  Zn  Zn145  1  0.44116235  0.70853738  0.93830777  1
  Zn  Zn146  1  0.93278585  0.19029153  0.43198586  1
  Zn  Zn147  1  0.94053584  0.18216557  0.94828824  1
  Zn  Zn148  1  0.94308216  0.68675140  0.43949091  1
  Zn  Zn149  1  0.93636272  0.69044393  0.93464433  1
  Zn  Zn150  1  0.05976462  0.31050743  0.05975299  1
  Zn  Zn151  1  0.06143318  0.31325907  0.56096113  1
  Zn  Zn152  1  0.06489081  0.82098081  0.05946697  1
  Zn  Zn153  1  0.06434691  0.80949854  0.56444015  1
  Zn  Zn154  1  0.56083802  0.31090626  0.06210091  1
  Zn  Zn155  1  0.56122887  0.31316900  0.56648417  1
  Zn  Zn156  1  0.54710044  0.80940090  0.05041866  1
  Zn  Zn157  1  0.57401388  0.81591804  0.56287603  1
  O  O158  1  0.12720848  0.12803594  0.10551142  1
  O  O159  1  0.12009649  0.11955839  0.61873454  1
  O  O160  1  0.11462897  0.61782707  0.11767682  1
  O  O161  1  0.12205784  0.61589635  0.62081282  1
  O  O162  1  0.60579897  0.11729866  0.12922155  1
  O  O163  1  0.61519986  0.11708694  0.62637314  1
  O  O164  1  0.62548349  0.62135149  0.11037507  1
  O  O165  1  0.61846811  0.61021320  0.62283790  1
  O  O166  1  0.37618466  0.38286677  0.36875981  1
  O  O167  1  0.38895982  0.37120207  0.87441536  1
  O  O168  1  0.36923172  0.88331732  0.38817382  1
  O  O169  1  0.32333638  0.88949725  0.88498484  1
  O  O170  1  0.88259811  0.36902638  0.38567691  1
  O  O171  1  0.87174251  0.38698418  0.87587898  1
  O  O172  1  0.88813327  0.88390172  0.38322465  1
  O  O173  1  0.89656770  0.87714632  0.88696053  1
  O  O174  1  0.25967562  0.01095742  0.38711978  1
  O  O175  1  0.24372294  0.02062137  0.85563879  1
  O  O176  1  0.25371336  0.49092243  0.36289152  1
  O  O177  1  0.25611965  0.51413740  0.88354699  1
  O  O178  1  0.75860289  0.00916932  0.36572289  1
  O  O179  1  0.74079240  0.00166894  0.86436542  1
  O  O180  1  0.74738480  0.51427900  0.36025880  1
  O  O181  1  0.76062398  0.50850529  0.87634477  1
  O  O182  1  0.24444789  0.49200021  0.13268495  1
  O  O183  1  0.23444170  0.48399196  0.61992820  1
  O  O184  1  0.26515008  1.01698093  0.13778979  1
  O  O185  1  0.24391842  0.99790432  0.63153464  1
  O  O186  1  0.73924845  0.50380084  0.13102586  1
  O  O187  1  0.73750863  0.49705205  0.62726750  1
  O  O188  1  0.74377327  1.01343723  0.15312129  1
  O  O189  1  0.74028307  0.99756716  0.62747479  1
  O  O190  1  0.00397221  0.36279165  0.25482750  1
  O  O191  1  0.00697227  0.36320688  0.74369351  1
  O  O192  1  0.01184057  0.87788877  0.26389025  1
  O  O193  1  0.00455044  0.87138563  0.76730087  1
  O  O194  1  0.49642330  0.35784675  0.24732811  1
  O  O195  1  0.50866279  0.36693956  0.75619328  1
  O  O196  1  0.50200031  0.85869258  0.25419761  1
  O  O197  1  0.50631188  0.86092101  0.74688744  1
  O  O198  1  0.48731689  0.13117464  0.24341139  1
  O  O199  1  0.50112606  0.13751573  0.74612132  1
  O  O200  1  0.48979279  0.63211338  0.24897028  1
  O  O201  1  0.48235232  0.62844691  0.74777968  1
  O  O202  1  1.01983975  0.13428103  0.23534451  1
  O  O203  1  0.99248715  0.13496619  0.74373857  1
  O  O204  1  0.99002894  0.61767489  0.23218837  1
  O  O205  1  0.99911902  0.63385607  0.73849278  1
  O  O206  1  0.37373247  0.25719705  0.01152593  1
  O  O207  1  0.36474138  0.24800888  0.49276200  1
  O  O208  1  0.35671297  0.73507637  0.01987397  1
  O  O209  1  0.36651811  0.75652269  0.49309233  1
  O  O210  1  0.88058778  0.25828803  0.00195921  1
  O  O211  1  0.86775517  0.25313565  0.50724808  1
  O  O212  1  0.86234416  0.74266609  0.00740441  1
  O  O213  1  0.88460380  0.76707025  0.49812939  1
  O  O214  1  0.12809812  0.24534567  0.48931846  1
  O  O215  1  0.12804996  0.25296606  0.98616730  1
  O  O216  1  0.13334587  0.74278206  0.49436202  1
  O  O217  1  0.13478225  0.73510180  1.01370624  1
  O  O218  1  0.64043848  0.25194822  0.50734249  1
  O  O219  1  0.61483471  0.25078979  0.98368552  1
  O  O220  1  0.59816356  0.71931736  0.50225699  1
  O  O221  1  0.63612171  0.74214746  0.99121349  1
  O  O222  1  0.49227895  0.24357571  0.13199741  1
  O  O223  1  0.50564358  0.24290331  0.63855765  1
  O  O224  1  0.48503242  0.74847163  0.13467408  1
  O  O225  1  0.50659634  0.74426137  0.64110593  1
  O  O226  1  1.00861838  0.24804548  0.13871717  1
  O  O227  1  0.99184411  0.24533194  0.63136240  1
  O  O228  1  0.98587437  0.74008859  0.11056583  1
  O  O229  1  0.99961930  0.73977656  0.62736387  1
  O  O230  1  0.01106718  0.24993518  0.36544693  1
  O  O231  1  0.00914710  0.24420405  0.86443338  1
  O  O232  1  0.01696059  0.76180211  0.38449584  1
  O  O233  1  0.00767084  0.74828856  0.86944483  1
  O  O234  1  0.49545977  0.24763234  0.35898667  1
  O  O235  1  0.50821427  0.25729072  0.86336233  1
  O  O236  1  0.49691156  0.74834256  0.36014220  1
  O  O237  1  0.51929984  0.73083844  0.84937811  1
  O  O238  1  0.24611380  0.13418235  0.49223386  1
  O  O239  1  0.24477869  0.13085302  0.98323868  1
  O  O240  1  0.23908712  0.63462166  0.50862631  1
  O  O241  1  0.24132707  0.62646010  0.99455255  1
  O  O242  1  0.74927672  0.13307914  0.49235064  1
  O  O243  1  0.75802413  0.19345592  1.07018123  1
  O  O244  1  0.72657020  0.61829977  0.49844266  1
  O  O245  1  0.74338062  0.62888399  0.98872992  1
  O  O246  1  0.25081025  0.37784516  0.01107978  1
  O  O247  1  0.24462389  0.36721884  0.51038157  1
  O  O248  1  0.23428854  0.85540810  0.01920066  1
  O  O249  1  0.25651729  0.86671063  0.50792182  1
  O  O250  1  0.75282865  0.36311961  0.01016620  1
  O  O251  1  0.76339128  0.36648033  0.49776696  1
  O  O252  1  0.75147608  0.85653684  -0.01066087  1
  O  O253  1  0.77665992  0.88840857  0.49734434  1
  O  O254  1  0.13021642  0.49514417  0.24429013  1
  O  O255  1  0.11818098  0.48852183  0.74276098  1
  O  O256  1  0.13180052  0.98598543  0.25828102  1
  O  O257  1  0.13084102  1.00925603  0.73613782  1
  O  O258  1  0.63616616  0.50936595  0.23573982  1
  O  O259  1  0.62108512  0.49224187  0.74445476  1
  O  O260  1  0.63153384  0.98182902  0.27183052  1
  O  O261  1  0.63618945  0.99809642  0.74741316  1
  O  O262  1  0.38386610  0.00444866  0.26440602  1
  O  O263  1  0.36442209  0.00436717  0.74463188  1
  O  O264  1  0.36840293  0.50320155  0.25543077  1
  O  O265  1  0.37649331  0.50784092  0.75742128  1
  O  O266  1  0.87028022  -0.00625862  0.26128665  1
  O  O267  1  0.86065854  0.00819924  0.74667021  1
  O  O268  1  0.86516494  0.51424017  0.23845758  1
  O  O269  1  0.87598779  0.49596609  0.76261249  1
  O  O270  1  0.11793551  0.36620619  0.37143898  1
  O  O271  1  0.13407321  0.36714721  0.86191712  1
  O  O272  1  0.12290935  0.86602569  0.36979353  1
  O  O273  1  0.11616197  0.88273131  0.88304010  1
  O  O274  1  0.63029930  0.37209619  0.37006591  1
  O  O275  1  0.61678737  0.37095250  0.86839713  1
  O  O276  1  0.62570261  0.85799514  0.43674649  1
  O  O277  1  0.63068802  0.86093073  0.86349160  1
  O  O278  1  0.38037456  0.13543814  0.12941397  1
  O  O279  1  0.38557483  0.12248309  0.62149143  1
  O  O280  1  0.37740281  0.63032097  0.14088805  1
  O  O281  1  0.36644140  0.61882734  0.64348062  1
  O  O282  1  0.90858794  0.12518712  0.12095170  1
  O  O283  1  0.87959176  0.13412393  0.63137598  1
  O  O284  1  0.88034861  0.63220843  0.12708991  1
  O  O285  1  0.88599151  0.62210988  0.61806215  1
  O  O286  1  0.25698278  0.25926099  0.12581215  1
  O  O287  1  0.24311103  0.26274445  0.61318227  1
  O  O288  1  0.25793750  0.74011914  0.12227099  1
  O  O289  1  0.24140673  0.76068996  0.61796970  1
  O  O290  1  0.75633019  0.27863329  0.16693930  1
  O  O291  1  0.75908211  0.25045066  0.61813017  1
  O  O292  1  0.75912674  0.74784113  0.11020654  1
  O  O293  1  0.71744456  0.77091356  0.59624803  1
  O  O294  1  0.24273607  0.24359227  0.38088993  1
  O  O295  1  0.24147512  0.24314797  0.86790571  1
  O  O296  1  0.23668719  0.75263088  0.38863032  1
  O  O297  1  0.25026037  0.73871247  0.89680416  1
  O  O298  1  0.75841658  0.23596758  0.37840174  1
  O  O299  1  0.73381307  0.24675203  0.87311602  1
  O  O300  1  0.76042891  0.74208277  0.38328315  1
  O  O301  1  0.74880277  0.73859965  0.88061355  1
  O  O302  1  0.02025664  0.11961936  0.00654920  1
  O  O303  1  0.00399490  0.11986338  0.50325171  1
  O  O304  1  0.00511499  0.61859595  0.00347293  1
  O  O305  1  0.01243992  0.63138437  0.51431632  1
  O  O306  1  0.49354365  0.12266957  0.01158844  1
  O  O307  1  0.50045049  0.11576848  0.50778309  1
  O  O308  1  0.51232145  0.62069531  -0.00517512  1
  O  O309  1  0.50010450  0.60563737  0.50224142  1
  O  O310  1  0.49888889  0.38171557  0.49903901  1
  O  O311  1  0.49823598  0.38519844  0.99257853  1
  O  O312  1  0.48732226  0.88622636  0.51542351  1
  O  O313  1  0.47393203  0.82000958  0.96677117  1
  O  O314  1  0.98772299  0.36802638  0.49029014  1
  O  O315  1  1.00526035  0.39105938  0.99811950  1
  O  O316  1  0.99844890  0.88505518  0.49311356  1
  O  O317  1  1.00173635  0.88397391  0.99200540  1
  O  O318  1  0.48928194  0.49098912  0.38092948  1
  O  O319  1  0.50835141  0.49210852  0.88570013  1
  O  O320  1  0.49534529  0.99474468  0.38699421  1
  O  O321  1  0.49317862  0.97236616  0.85436608  1
  O  O322  1  1.00409277  0.48407432  0.36659645  1
  O  O323  1  0.98776817  0.50727808  0.88353506  1
  O  O324  1  0.99766001  0.99661863  0.38172455  1
  O  O325  1  1.00349692  0.99837968  0.87130618  1
  O  O326  1  0.00925721  0.00579941  0.13082710  1
  O  O327  1  0.00612300  0.00471798  0.61968246  1
  O  O328  1  0.00013597  0.50609474  0.11154782  1
  O  O329  1  0.00907225  0.51376483  0.62731408  1
  O  O330  1  0.48818591  0.01029416  0.12656504  1
  O  O331  1  0.50530730  0.00965205  0.62203498  1
  O  O332  1  0.51473517  0.50374024  0.11849872  1
  O  O333  1  0.50319407  0.49800429  0.61782719  1
  O  O334  1  0.24437515  0.38089088  0.24116765  1
  O  O335  1  0.23599180  0.36572731  0.73216577  1
  O  O336  1  0.23992952  0.87096951  0.25091025  1
  O  O337  1  0.25081331  0.89076025  0.73853496  1
  O  O338  1  0.76062171  0.39737095  0.26007384  1
  O  O339  1  0.73957900  0.37776690  0.74967004  1
  O  O340  1  0.75458297  0.88190182  0.24921074  1
  O  O341  1  0.74731494  0.88843571  0.75021714  1
  O  O342  1  0.25931437  0.13144105  0.26284578  1
  O  O343  1  0.25088604  0.12089330  0.75345592  1
  O  O344  1  0.25355236  0.61038095  0.24507177  1
  O  O345  1  0.26026249  0.63342189  0.76652740  1
  O  O346  1  0.74413540  0.12494207  0.26255406  1
  O  O347  1  0.75613806  0.11357996  0.74645029  1
  O  O348  1  0.76541665  0.62224334  0.24858832  1
  O  O349  1  0.74359173  0.62647920  0.76084145  1
  O  O350  1  0.36986986  0.11477204  0.36744367  1
  O  O351  1  0.36206586  0.13643924  0.87575962  1
  O  O352  1  0.37496999  0.61187987  0.36395350  1
  O  O353  1  0.36699430  0.63199492  0.87120609  1
  O  O354  1  0.86481560  0.11402014  0.37896044  1
  O  O355  1  0.88060652  0.13232986  0.86154563  1
  O  O356  1  0.89037190  0.63050480  0.35381921  1
  O  O357  1  0.86214047  0.61967269  0.87639452  1
  O  O358  1  0.13201033  0.37932641  0.12870099  1
  O  O359  1  0.12246017  0.38263621  0.62961315  1
  O  O360  1  0.12480600  0.86744164  0.14568558  1
  O  O361  1  0.13505466  0.88834631  0.61429495  1
  O  O362  1  0.62301528  0.38728038  0.12441894  1
  O  O363  1  0.62486089  0.38361528  0.63565749  1
  O  O364  1  0.61420756  0.90574857  0.07746684  1
  O  O365  1  0.61783611  0.89342138  0.64088907  1
  O  O366  1  0.12498913  0.25435981  0.25983951  1
  O  O367  1  0.11563531  0.25565440  0.75434402  1
  O  O368  1  0.12944440  0.75056741  0.26656606  1
  O  O369  1  0.10647499  0.75035674  0.74371575  1
  O  O370  1  0.60886586  0.23899652  0.24284560  1
  O  O371  1  0.61838846  0.25909117  0.75772033  1
  O  O372  1  0.61098046  0.73909982  0.24300093  1
  O  O373  1  0.62901800  0.76015034  0.75225174  1
  O  O374  1  0.37846525  0.23823727  0.23994984  1
  O  O375  1  0.39124037  0.25668722  0.75055654  1
  O  O376  1  0.37393287  0.73989947  0.24582621  1
  O  O377  1  0.38497088  0.75287025  0.75495606  1
  O  O378  1  0.89580544  0.24143797  0.25805581  1
  O  O379  1  0.87872392  0.24634429  0.74264832  1
  O  O380  1  0.87027727  0.73983043  0.23040949  1
  O  O381  1  0.89785581  0.75816403  0.74897535  1
  O  O382  1  0.37755571  0.50304873  0.48950758  1
  O  O383  1  0.39103899  0.50386974  1.01164923  1
  O  O384  1  0.38238066  0.99363110  0.49354896  1
  O  O385  1  0.37437283  0.98045318  1.00443320  1
  O  O386  1  0.86930601  0.48452944  0.50102158  1
  O  O387  1  0.88511173  0.50336431  0.99099092  1
  O  O388  1  0.88976266  0.99916764  0.49370224  1
  O  O389  1  0.82717574  1.01080159  1.00722012  1
  O  O390  1  0.14576787  0.00904463  -0.00714879  1
  O  O391  1  0.11672658  0.00599020  0.50464784  1
  O  O392  1  0.11247505  0.50828664  0.00182869  1
  O  O393  1  0.12702202  0.51119484  0.50600727  1
  O  O394  1  0.61590960  -0.04235195  0.01895897  1
  O  O395  1  0.61529399  0.00487443  0.51167084  1
  O  O396  1  0.62227753  0.50387853  0.00876791  1
  O  O397  1  0.61287601  0.50179285  0.50861811  1
  O  O398  1  0.36584968  0.36935039  0.12726763  1
  O  O399  1  0.35813292  0.38164490  0.62912605  1
  O  O400  1  0.36509535  0.85708721  0.13594970  1
  O  O401  1  0.36166525  0.88174576  0.61506626  1
  O  O402  1  0.87326264  0.36520813  0.11974999  1
  O  O403  1  0.87677738  0.36520740  0.61412555  1
  O  O404  1  0.88406700  0.86130266  0.11845051  1
  O  O405  1  0.88311531  0.88246846  0.61200678  1
  O  O406  1  0.13365260  0.13048855  0.37899945  1
  O  O407  1  0.13271795  0.13661356  0.88341081  1
  O  O408  1  0.11534162  0.63642534  0.38316034  1
  O  O409  1  0.13578134  0.61894201  0.88304136  1
  O  O410  1  0.63932234  0.11834232  0.38008462  1
  O  O411  1  0.61876532  0.13452602  0.87248515  1
  O  O412  1  0.61857348  0.61378629  0.38560051  1
  O  O413  1  0.63781404  0.62857008  0.88041136  1
