# generated using pymatgen
data_V79Zn79O256
_symmetry_space_group_name_H-M   'P 1'
_cell_length_a   16.83684466
_cell_length_b   16.88011998
_cell_length_c   16.86048369
_cell_angle_alpha   89.95555505
_cell_angle_beta   89.98924829
_cell_angle_gamma   90.09988652
_symmetry_Int_Tables_number   1
_chemical_formula_structural   V79Zn79O256
_chemical_formula_sum   'V79 Zn79 O256'
_cell_volume   4791.87482870
_cell_formula_units_Z   1
loop_
 _symmetry_equiv_pos_site_id
 _symmetry_equiv_pos_as_xyz
  1  'x, y, z'
loop_
 _atom_site_type_symbol
 _atom_site_label
 _atom_site_symmetry_multiplicity
 _atom_site_fract_x
 _atom_site_fract_y
 _atom_site_fract_z
 _atom_site_occupancy
  V  V0  1  0.37199113  0.11154897  0.77047228  1
  V  V1  1  0.25563284  0.75049068  0.01362580  1
  V  V2  1  0.01294810  0.00437062  0.00362696  1
  V  V3  1  0.12811623  0.62655450  0.50037766  1
  V  V4  1  0.75396417  0.12487415  0.86389615  1
  V  V5  1  0.00821921  0.38008590  0.86894200  1
  V  V6  1  0.49214348  0.35382362  0.33307893  1
  V  V7  1  0.12694564  0.62929339  -0.00076899  1
  V  V8  1  0.74360208  0.00390078  0.24964629  1
  V  V9  1  0.24498527  0.23804990  -0.00207513  1
  V  V10  1  -0.00198039  0.50545108  0.00220971  1
  V  V11  1  0.37068535  0.87790178  0.01474615  1
  V  V12  1  0.12512291  0.12054776  0.50748551  1
  V  V13  1  0.47831237  -0.01097108  0.49867395  1
  V  V14  1  0.88344919  0.74746291  0.12641624  1
  V  V15  1  0.12300239  0.76357934  0.37897137  1
  V  V16  1  0.49619658  0.50136988  -0.00762159  1
  V  V17  1  0.62924350  0.63175693  -0.01264736  1
  V  V18  1  0.87263510  0.25417576  0.61421287  1
  V  V19  1  0.26543020  -0.00836113  0.25456800  1
  V  V20  1  0.00647725  0.86996359  0.86502783  1
  V  V21  1  0.87125736  0.24376388  0.12186231  1
  V  V22  1  0.01914982  0.12991909  0.12590978  1
  V  V23  1  0.50208811  0.61727395  0.62764170  1
  V  V24  1  -0.00079463  0.11596075  0.63141573  1
  V  V25  1  0.11850495  0.50872594  0.12616904  1
  V  V26  1  -0.00135200  0.25312273  0.74950129  1
  V  V27  1  0.13261269  0.75211111  0.86473107  1
  V  V28  1  -0.00633963  0.24612360  0.25135830  1
  V  V29  1  0.62418259  0.49546868  0.12583998  1
  V  V30  1  0.13003440  -0.02037105  0.13968978  1
  V  V31  1  0.26588409  0.25096038  0.50423097  1
  V  V32  1  0.25530262  0.50478090  0.25690602  1
  V  V33  1  0.88467799  0.61921775  0.25489905  1
  V  V34  1  0.24785883  0.50209300  0.76140952  1
  V  V35  1  0.50290562  0.86504401  0.38270653  1
  V  V36  1  0.12456822  0.37857764  0.25187919  1
  V  V37  1  -0.00282217  0.37672693  0.38229826  1
  V  V38  1  0.37295271  0.38074037  -0.00898797  1
  V  V39  1  0.25265353  0.37368986  0.63170529  1
  V  V40  1  0.49877188  0.00144349  -0.00271144  1
  V  V41  1  0.49033713  0.12138600  0.62030559  1
  V  V42  1  0.52689882  0.75773036  0.24807519  1
  V  V43  1  0.86791524  0.62629791  0.75341166  1
  V  V44  1  0.12673912  0.23585376  0.87436495  1
  V  V45  1  0.62426083  0.00383806  0.61565381  1
  V  V46  1  0.61784445  0.25245054  0.86626594  1
  V  V47  1  0.49494508  0.50659933  0.48048004  1
  V  V48  1  0.48971624  0.87853735  0.87284887  1
  V  V49  1  0.74970235  0.75003460  -0.01159591  1
  V  V50  1  0.88046756  0.87875944  0.00234892  1
  V  V51  1  0.74808043  0.87153656  0.61722132  1
  V  V52  1  0.27151561  0.12097265  0.37343677  1
  V  V53  1  0.62956168  0.12073255  0.01060740  1
  V  V54  1  0.74555826  0.64492686  0.37469702  1
  V  V55  1  0.82167822  0.44222754  0.42907797  1
  V  V56  1  0.88128677  0.00917796  0.37191512  1
  V  V57  1  0.73939139  0.48854567  0.74242953  1
  V  V58  1  0.86666683  0.50236285  0.87472012  1
  V  V59  1  0.24912584  0.37732751  0.12217762  1
  V  V60  1  0.37221185  0.61985198  0.76273985  1
  V  V61  1  0.62998321  0.63618656  0.50436386  1
  V  V62  1  0.50123027  0.74989347  0.75443840  1
  V  V63  1  -0.00065987  0.49801287  0.49897057  1
  V  V64  1  0.88171113  0.87039007  0.49251896  1
  V  V65  1  0.00354253  0.76620172  0.25598724  1
  V  V66  1  0.12668613  0.24706185  0.37739943  1
  V  V67  1  0.74705794  0.49742546  0.24533889  1
  V  V68  1  0.73988163  0.87858122  0.12978744  1
  V  V69  1  0.75636528  -0.00044129  0.74960727  1
  V  V70  1  0.49145033  0.25139516  0.74130695  1
  V  V71  1  0.36998158  0.64157823  0.25027665  1
  V  V72  1  0.62600692  0.87097120  0.75876444  1
  V  V73  1  0.23758851  -0.00455055  0.76287472  1
  V  V74  1  0.49176817  0.12305767  0.13357568  1
  V  V75  1  0.87300584  0.75045922  0.62637829  1
  V  V76  1  0.24143658  0.88150139  0.62423940  1
  V  V77  1  -0.00200338  0.62798225  0.63006427  1
  V  V78  1  0.49645285  0.63457796  0.12138762  1
  Zn  Zn79  1  0.26258752  0.76463242  0.49721171  1
  Zn  Zn80  1  0.87205812  0.37644630  0.00051150  1
  Zn  Zn81  1  0.88399211  0.00743807  0.87288278  1
  Zn  Zn82  1  0.37153667  0.39418269  0.48904691  1
  Zn  Zn83  1  0.73801504  0.13015554  0.39884541  1
  Zn  Zn84  1  0.74413636  0.36677686  0.12627336  1
  Zn  Zn85  1  0.38772536  0.25337098  0.14154482  1
  Zn  Zn86  1  0.00899063  -0.00917516  0.49837049  1
  Zn  Zn87  1  0.49966494  0.37939150  0.86399068  1
  Zn  Zn88  1  0.25787851  0.62445199  0.38613145  1
  Zn  Zn89  1  0.74364753  0.37028997  0.61550101  1
  Zn  Zn90  1  0.37606154  0.75355153  0.61773993  1
  Zn  Zn91  1  0.62690019  0.25128216  0.36911435  1
  Zn  Zn92  1  0.12076907  0.49408454  0.63372682  1
  Zn  Zn93  1  0.74913407  0.25185113  -0.00544148  1
  Zn  Zn94  1  0.20945406  0.19526948  0.19743656  1
  Zn  Zn95  1  0.19196223  0.18674587  0.69255546  1
  Zn  Zn96  1  0.18372342  0.69339121  0.18975459  1
  Zn  Zn97  1  0.19127302  0.68889040  0.68278727  1
  Zn  Zn98  1  0.66177917  0.16278864  0.22114247  1
  Zn  Zn99  1  0.67721007  0.19829012  0.56887675  1
  Zn  Zn100  1  0.69558819  0.68234568  0.17538467  1
  Zn  Zn101  1  0.68855733  0.68694953  0.69139892  1
  Zn  Zn102  1  0.31782034  0.31123936  0.31217000  1
  Zn  Zn103  1  0.31259244  0.30773188  0.81167539  1
  Zn  Zn104  1  0.31458849  0.81524448  0.31906506  1
  Zn  Zn105  1  0.31137772  0.81294021  0.80901203  1
  Zn  Zn106  1  0.78107337  0.28509739  0.28990795  1
  Zn  Zn107  1  0.81583787  0.31187230  0.80847794  1
  Zn  Zn108  1  0.81459733  0.81595330  0.30907536  1
  Zn  Zn109  1  0.82010055  0.81712607  0.80910686  1
  Zn  Zn110  1  0.18543218  0.43809498  0.44209809  1
  Zn  Zn111  1  0.18448461  0.43843940  0.93696405  1
  Zn  Zn112  1  0.19607792  0.94091266  0.43696138  1
  Zn  Zn113  1  0.18901254  0.93660872  0.94189638  1
  Zn  Zn114  1  0.65661412  0.44366222  0.42778792  1
  Zn  Zn115  1  0.68577386  0.43563614  0.94201920  1
  Zn  Zn116  1  0.68709765  0.93601331  0.43237198  1
  Zn  Zn117  1  0.68855771  0.93851730  0.94010526  1
  Zn  Zn118  1  0.31073160  0.05605232  0.06553364  1
  Zn  Zn119  1  0.30841457  0.06055365  0.57042392  1
  Zn  Zn120  1  0.31111838  0.56583821  0.06231418  1
  Zn  Zn121  1  0.31592492  0.56560158  0.57385612  1
  Zn  Zn122  1  0.81873004  0.06561113  0.06815446  1
  Zn  Zn123  1  0.81520446  0.06271496  0.56039576  1
  Zn  Zn124  1  0.81231683  0.56732794  0.06324478  1
  Zn  Zn125  1  0.80492520  0.56519517  0.56750682  1
  Zn  Zn126  1  0.42901286  0.45102880  0.17416515  1
  Zn  Zn127  1  0.43069327  0.43698754  0.68099098  1
  Zn  Zn128  1  0.44854299  0.93725150  0.18851056  1
  Zn  Zn129  1  0.42764462  0.93621102  0.68724117  1
  Zn  Zn130  1  0.93492841  0.43128545  0.18854041  1
  Zn  Zn131  1  0.93095565  0.43509827  0.68690142  1
  Zn  Zn132  1  0.93735897  0.94230879  0.18756565  1
  Zn  Zn133  1  0.93959968  0.93645502  0.68395378  1
  Zn  Zn134  1  0.06513331  0.06256164  0.31369641  1
  Zn  Zn135  1  0.06471262  0.06007162  0.81293601  1
  Zn  Zn136  1  0.06587954  0.56541819  0.31762943  1
  Zn  Zn137  1  0.06222788  0.56768275  0.81458352  1
  Zn  Zn138  1  0.56192396  0.05066730  0.32006950  1
  Zn  Zn139  1  0.56701781  0.06285685  0.81034557  1
  Zn  Zn140  1  0.56330328  0.57168976  0.30816550  1
  Zn  Zn141  1  0.56374825  0.56331633  0.81194819  1
  Zn  Zn142  1  0.46331599  0.19492047  0.43438632  1
  Zn  Zn143  1  0.43401493  0.19063233  0.94533771  1
  Zn  Zn144  1  0.44124414  0.68859399  0.43283117  1
  Zn  Zn145  1  0.43803441  0.69309693  0.93596581  1
  Zn  Zn146  1  0.93549908  0.18592990  0.43948815  1
  Zn  Zn147  1  0.94211513  0.18696249  0.93971088  1
  Zn  Zn148  1  0.93710247  0.68815793  0.43815949  1
  Zn  Zn149  1  0.93946620  0.68794449  0.93578535  1
  Zn  Zn150  1  0.06348932  0.31697249  0.05950147  1
  Zn  Zn151  1  0.06857722  0.30975286  0.56703270  1
  Zn  Zn152  1  0.06385394  0.81102292  0.06321210  1
  Zn  Zn153  1  0.06507119  0.81167830  0.57098187  1
  Zn  Zn154  1  0.56019237  0.30842023  0.06238728  1
  Zn  Zn155  1  0.56028732  0.32011518  0.53943184  1
  Zn  Zn156  1  0.56304920  0.81399402  0.05805104  1
  Zn  Zn157  1  0.56218809  0.81110296  0.56702295  1
  O  O158  1  0.12078587  0.12900913  0.13271087  1
  O  O159  1  0.12079492  0.13295946  0.61312720  1
  O  O160  1  0.12817254  0.61774006  0.11597589  1
  O  O161  1  0.11233859  0.62716543  0.61792867  1
  O  O162  1  0.61842823  0.12720580  0.11383739  1
  O  O163  1  0.60379041  0.11146316  0.63030219  1
  O  O164  1  0.61526979  0.61916001  0.11545560  1
  O  O165  1  0.62206168  0.62976497  0.61265629  1
  O  O166  1  0.39230755  0.37298840  0.37306193  1
  O  O167  1  0.37809499  0.36942607  0.88724721  1
  O  O168  1  0.40008163  0.87140298  0.36686635  1
  O  O169  1  0.38627774  0.87197816  0.88079400  1
  O  O170  1  0.88226669  0.37660918  0.37728521  1
  O  O171  1  0.88624839  0.38489307  0.87710101  1
  O  O172  1  0.87165510  0.87749999  0.38936279  1
  O  O173  1  0.88942934  0.87681353  0.88629723  1
  O  O174  1  0.25679008  0.01227446  0.37145035  1
  O  O175  1  0.24366252  -0.00215941  0.86467088  1
  O  O176  1  0.24041593  0.50504993  0.36207089  1
  O  O177  1  0.25090751  0.49386833  0.86108339  1
  O  O178  1  0.75856038  -0.00101112  0.36451845  1
  O  O179  1  0.75068656  0.00920364  0.86922866  1
  O  O180  1  0.75558224  0.49959522  0.36782003  1
  O  O181  1  0.76152135  0.49374815  0.86904274  1
  O  O182  1  0.23944143  0.49536720  0.12981508  1
  O  O183  1  0.24715711  0.49119304  0.63438748  1
  O  O184  1  0.23741360  1.00462034  0.14022934  1
  O  O185  1  0.25253387  0.98894723  0.63833464  1
  O  O186  1  0.74016378  0.50680269  0.13054957  1
  O  O187  1  0.75176889  0.49090281  0.63642025  1
  O  O188  1  0.76438067  0.98438356  0.13219625  1
  O  O189  1  0.74504893  0.99132913  0.63267747  1
  O  O190  1  0.00461861  0.36912097  0.26233906  1
  O  O191  1  -0.00102034  0.36911504  0.75727609  1
  O  O192  1  -0.00397790  0.86441341  0.25483381  1
  O  O193  1  -0.00341251  0.87923045  0.76613560  1
  O  O194  1  0.49237090  0.38070731  0.23609469  1
  O  O195  1  0.48745346  0.35669477  0.74537388  1
  O  O196  1  0.50801107  0.86174523  0.25168680  1
  O  O197  1  0.50553097  0.87069822  0.75489920  1
  O  O198  1  0.50380015  0.10253263  0.23051947  1
  O  O199  1  0.48928608  0.12529247  0.74652190  1
  O  O200  1  0.49219994  0.64042679  0.24316330  1
  O  O201  1  0.49588411  0.63060181  0.74764530  1
  O  O202  1  1.00659929  0.13988730  0.24502857  1
  O  O203  1  1.00911492  0.13098376  0.73667330  1
  O  O204  1  0.98716313  0.62812555  0.25737366  1
  O  O205  1  0.98711136  0.61453251  0.73686805  1
  O  O206  1  0.35693243  0.25982096  0.00356110  1
  O  O207  1  0.36635812  0.24630391  0.49492316  1
  O  O208  1  0.36345167  0.75886169  -0.00330554  1
  O  O209  1  0.37188832  0.73648085  0.50287968  1
  O  O210  1  0.87731474  0.25120936  0.01047012  1
  O  O211  1  0.88042677  0.25100346  0.51321445  1
  O  O212  1  0.87415013  0.75583901  0.00800892  1
  O  O213  1  0.87580920  0.76126416  0.50823365  1
  O  O214  1  0.13531259  0.24245113  0.49289617  1
  O  O215  1  0.13172310  0.25701655  0.98554466  1
  O  O216  1  0.11753311  0.74216431  0.49000543  1
  O  O217  1  0.13495770  0.74612285  0.99855554  1
  O  O218  1  0.56973995  0.23052333  0.47008384  1
  O  O219  1  0.62383198  0.23496325  0.99083117  1
  O  O220  1  0.61850054  0.73578855  0.49735919  1
  O  O221  1  0.63707142  0.74454889  1.00486938  1
  O  O222  1  0.50011945  0.23201389  0.12433360  1
  O  O223  1  0.49859770  0.23209672  0.63588931  1
  O  O224  1  0.50829872  0.74552241  0.13599032  1
  O  O225  1  0.50070857  0.74195389  0.63942968  1
  O  O226  1  1.00104228  0.24792787  0.13241741  1
  O  O227  1  0.99743570  0.24459253  0.63233399  1
  O  O228  1  0.99476696  0.75249233  0.14005364  1
  O  O229  1  0.98744340  0.73840708  0.62151144  1
  O  O230  1  0.00490267  0.25629982  0.37177922  1
  O  O231  1  0.00922546  0.25662193  0.87164710  1
  O  O232  1  0.00784948  0.74808931  0.36602988  1
  O  O233  1  0.01016024  0.76346917  0.88155537  1
  O  O234  1  0.48677712  0.25200890  0.33052646  1
  O  O235  1  0.50614156  0.24885232  0.87099485  1
  O  O236  1  0.50680346  0.75422805  0.35939282  1
  O  O237  1  0.50117427  0.76123763  0.86391255  1
  O  O238  1  0.24408343  0.12891056  0.49459290  1
  O  O239  1  0.25040374  0.14001595  1.00800835  1
  O  O240  1  0.23541274  0.62193411  0.50590284  1
  O  O241  1  0.24343045  0.63914427  1.00161702  1
  O  O242  1  0.73064587  0.11657252  0.51186093  1
  O  O243  1  0.73932623  0.12255230  0.99696143  1
  O  O244  1  0.74152656  0.62372178  0.48842579  1
  O  O245  1  0.74249824  0.63853664  1.00650111  1
  O  O246  1  0.25571039  0.38094093  0.00620628  1
  O  O247  1  0.25415499  0.36786203  0.50212543  1
  O  O248  1  0.26234395  0.86739026  0.00110761  1
  O  O249  1  0.24797991  0.88073952  0.51626282  1
  O  O250  1  0.75290085  0.36850815  0.00723075  1
  O  O251  1  0.75277135  0.39709485  0.48802435  1
  O  O252  1  0.76106977  0.87299164  0.00817567  1
  O  O253  1  0.75958872  0.88033564  0.51156097  1
  O  O254  1  0.12890451  0.50103631  0.24262084  1
  O  O255  1  0.14153146  0.51287074  0.75021009  1
  O  O256  1  0.12645219  0.99835353  0.24252180  1
  O  O257  1  0.13857826  1.00838272  0.74596078  1
  O  O258  1  0.63408563  0.51113948  0.23886213  1
  O  O259  1  0.64069913  0.50227694  0.75666383  1
  O  O260  1  0.64365152  0.99600312  0.25099480  1
  O  O261  1  0.63376800  0.99060260  0.74158790  1
  O  O262  1  0.36423008  -0.00260286  0.23967747  1
  O  O263  1  0.37198203  0.00772996  0.75970524  1
  O  O264  1  0.36118344  0.51531561  0.24043005  1
  O  O265  1  0.36857952  0.51167362  0.74891683  1
  O  O266  1  0.87180642  -0.01018712  0.26795986  1
  O  O267  1  0.86183519  -0.00841246  0.75324480  1
  O  O268  1  0.87034127  0.51559467  0.24177901  1
  O  O269  1  0.86625463  0.50574814  0.75691993  1
  O  O270  1  0.11808686  0.36574180  0.37389686  1
  O  O271  1  0.11227105  0.37256369  0.87612751  1
  O  O272  1  0.12427132  0.86256772  0.38616450  1
  O  O273  1  0.11474821  0.86556241  0.88136860  1
  O  O274  1  0.58983460  0.37060503  0.37309355  1
  O  O275  1  0.62170585  0.35615229  0.88157271  1
  O  O276  1  0.60601161  0.88035940  0.37639146  1
  O  O277  1  0.61781095  0.88147168  0.86428210  1
  O  O278  1  0.38886865  0.12416258  0.11653973  1
  O  O279  1  0.38684907  0.11527845  0.63907787  1
  O  O280  1  0.38847243  0.62415064  0.13128614  1
  O  O281  1  0.38744382  0.63016106  0.63992004  1
  O  O282  1  0.89492964  0.13780809  0.12134082  1
  O  O283  1  0.89649586  0.12984024  0.61837043  1
  O  O284  1  0.86617176  0.63888783  0.14193984  1
  O  O285  1  0.87757187  0.63223864  0.62903199  1
  O  O286  1  0.22679828  0.26829673  0.10299265  1
  O  O287  1  0.24714405  0.26282346  0.61979950  1
  O  O288  1  0.24620250  0.75351230  0.11297686  1
  O  O289  1  0.25113268  0.76107515  0.62100180  1
  O  O290  1  0.76848587  0.24231992  0.12547962  1
  O  O291  1  0.77884362  0.22848354  0.63748334  1
  O  O292  1  0.76273797  0.76328272  0.11884420  1
  O  O293  1  0.75903058  0.75982681  0.62869814  1
  O  O294  1  0.24453892  0.23881091  0.38356526  1
  O  O295  1  0.23717750  0.25435773  0.88416174  1
  O  O296  1  0.23470495  0.74759973  0.37748483  1
  O  O297  1  0.23609046  0.75961086  0.88556761  1
  O  O298  1  0.74674668  0.24763128  0.38983553  1
  O  O299  1  0.74067339  0.23888711  0.87022790  1
  O  O300  1  0.74782562  0.74342676  0.37085642  1
  O  O301  1  0.75990780  0.75990111  0.88921394  1
  O  O302  1  0.00239380  0.11223623  0.00819475  1
  O  O303  1  0.01460981  0.12803357  0.50986736  1
  O  O304  1  0.00862433  0.61506542  -0.00118578  1
  O  O305  1  0.00243048  0.61630231  0.50637994  1
  O  O306  1  0.50972982  0.11854185  0.00259104  1
  O  O307  1  0.48582040  0.10484404  0.51482764  1
  O  O308  1  0.50493635  0.62427121  0.00381212  1
  O  O309  1  0.50929866  0.62233128  0.50573381  1
  O  O310  1  0.49265752  0.40345875  0.50867468  1
  O  O311  1  0.48923336  0.38456651  1.00412496  1
  O  O312  1  0.49767430  0.87704453  0.49477130  1
  O  O313  1  0.49110403  0.87868801  0.99357109  1
  O  O314  1  1.00663325  0.38333899  0.49309261  1
  O  O315  1  1.00001213  0.39098374  0.99144338  1
  O  O316  1  0.98647730  0.87552256  0.50968178  1
  O  O317  1  0.99640460  0.88311722  0.99823090  1
  O  O318  1  0.49812028  0.50608649  0.37842826  1
  O  O319  1  0.50702137  0.49540679  0.88770753  1
  O  O320  1  0.49752271  0.99206542  0.39379412  1
  O  O321  1  0.50518995  0.99195963  0.88549149  1
  O  O322  1  1.00432687  0.48901091  0.38419259  1
  O  O323  1  0.99387214  0.49695902  0.88066352  1
  O  O324  1  0.98718491  1.00643819  0.37885411  1
  O  O325  1  1.00509352  0.99046494  0.88524293  1
  O  O326  1  0.01375909  0.00754488  0.12556468  1
  O  O327  1  0.00086753  0.01227872  0.62251291  1
  O  O328  1  0.00906696  0.49400579  0.11738622  1
  O  O329  1  -0.00377491  0.50555016  0.61456552  1
  O  O330  1  0.49907050  0.00661796  0.10705064  1
  O  O331  1  0.50279593  -0.00039085  0.61856496  1
  O  O332  1  0.50701998  0.51389817  0.11407159  1
  O  O333  1  0.50136124  0.51507528  0.62977354  1
  O  O334  1  0.24305102  0.38817290  0.24289522  1
  O  O335  1  0.26026485  0.38522625  0.74050879  1
  O  O336  1  0.24811447  0.89321330  0.26682768  1
  O  O337  1  0.24958904  0.88813480  0.74803073  1
  O  O338  1  0.76486670  0.39581120  0.24278692  1
  O  O339  1  0.75031311  0.38544895  0.74951703  1
  O  O340  1  0.75515138  0.87825734  0.23500317  1
  O  O341  1  0.74413896  0.87966713  0.74390768  1
  O  O342  1  0.24342631  0.11111918  0.27072621  1
  O  O343  1  0.26481898  0.11458841  0.74633598  1
  O  O344  1  0.25874344  0.62363756  0.24507477  1
  O  O345  1  0.26340815  0.61620895  0.74620300  1
  O  O346  1  0.76252715  0.10166778  0.23256502  1
  O  O347  1  0.74722191  0.11428348  0.76290113  1
  O  O348  1  0.75612475  0.62009932  0.26159912  1
  O  O349  1  0.76090706  0.61215143  0.74330121  1
  O  O350  1  0.36929621  0.13045178  0.37951939  1
  O  O351  1  0.37748611  0.12325605  0.87009451  1
  O  O352  1  0.37417269  0.63023149  0.35437058  1
  O  O353  1  0.38087672  0.62460939  0.86278268  1
  O  O354  1  0.86678217  0.11114575  0.38439649  1
  O  O355  1  0.85870502  0.12500483  0.88405123  1
  O  O356  1  0.86277571  0.63183105  0.36401296  1
  O  O357  1  0.88287182  0.61631575  0.86437709  1
  O  O358  1  0.12952053  0.38848410  0.12998580  1
  O  O359  1  0.14277641  0.37891836  0.61970036  1
  O  O360  1  0.12449717  0.88046116  0.13433004  1
  O  O361  1  0.13816462  0.87010906  0.63225783  1
  O  O362  1  0.62341807  0.39124929  0.11719117  1
  O  O363  1  0.65300518  0.30662796  0.59753613  1
  O  O364  1  0.64103373  0.87754366  0.11730333  1
  O  O365  1  0.63228110  0.87985271  0.63389448  1
  O  O366  1  0.12077151  0.25760357  0.26203935  1
  O  O367  1  0.11907702  0.24643648  0.76479027  1
  O  O368  1  0.11244391  0.74617626  0.26301841  1
  O  O369  1  0.12960775  0.74209164  0.76617438  1
  O  O370  1  0.66792041  0.26970678  0.25584598  1
  O  O371  1  0.60481026  0.24228231  0.76409853  1
  O  O372  1  0.62519559  0.74526259  0.24611615  1
  O  O373  1  0.61765213  0.76054016  0.74619298  1
  O  O374  1  0.31560929  0.24308936  0.22533269  1
  O  O375  1  0.38564223  0.23383815  0.75762335  1
  O  O376  1  0.36924196  0.74230639  0.24247791  1
  O  O377  1  0.38367667  0.73761412  0.75255843  1
  O  O378  1  0.88566155  0.25534827  0.23909295  1
  O  O379  1  0.89403416  0.24744927  0.74933774  1
  O  O380  1  0.88686832  0.74452252  0.24743475  1
  O  O381  1  0.87181480  0.74031051  0.74001639  1
  O  O382  1  0.38944857  0.51750996  0.49786585  1
  O  O383  1  0.38433898  0.49519394  1.00627265  1
  O  O384  1  0.37972216  0.99113313  0.50603521  1
  O  O385  1  0.37856459  0.98522430  1.00053264  1
  O  O386  1  0.87907469  0.50370293  0.49241034  1
  O  O387  1  0.88214634  0.50611332  0.99373497  1
  O  O388  1  0.87699002  0.98704678  0.49160870  1
  O  O389  1  0.88883864  0.99187894  1.00269496  1
  O  O390  1  0.12064468  -0.00860724  0.01974476  1
  O  O391  1  0.12587462  0.01733706  0.49282433  1
  O  O392  1  0.11994613  0.51027367  0.00519122  1
  O  O393  1  0.11396777  0.50947800  0.50301351  1
  O  O394  1  0.61831614  0.01351473  -0.00416331  1
  O  O395  1  0.61569087  -0.01134723  0.51365753  1
  O  O396  1  0.61844417  0.51063594  0.00547503  1
  O  O397  1  0.60679006  0.51818515  0.49700710  1
  O  O398  1  0.36142002  0.37449925  0.11464807  1
  O  O399  1  0.35772762  0.38126876  0.61195616  1
  O  O400  1  0.38317440  0.87231421  0.11267698  1
  O  O401  1  0.35775892  0.86710995  0.63535411  1
  O  O402  1  0.87751269  0.35911378  0.12130045  1
  O  O403  1  0.86677422  0.36046445  0.62713152  1
  O  O404  1  0.87699831  0.86678762  0.11648430  1
  O  O405  1  0.86851903  0.86863318  0.61954655  1
  O  O406  1  0.12426722  0.13571943  0.38685140  1
  O  O407  1  0.11936077  0.13726551  0.88128911  1
  O  O408  1  0.12600623  0.63344592  0.38748641  1
  O  O409  1  0.11801460  0.64117899  0.88773064  1
  O  O410  1  0.63506391  0.13463323  0.33825082  1
  O  O411  1  0.63492900  0.13155426  0.88233740  1
  O  O412  1  0.63977806  0.62401680  0.38099112  1
  O  O413  1  0.62262220  0.62714127  0.88794446  1
