# generated using pymatgen
data_V79Zn79O256
_symmetry_space_group_name_H-M   'P 1'
_cell_length_a   16.89413037
_cell_length_b   16.88595957
_cell_length_c   16.89192417
_cell_angle_alpha   89.98089793
_cell_angle_beta   89.96717628
_cell_angle_gamma   90.17520995
_symmetry_Int_Tables_number   1
_chemical_formula_structural   V79Zn79O256
_chemical_formula_sum   'V79 Zn79 O256'
_cell_volume   4818.79646682
_cell_formula_units_Z   1
loop_
 _symmetry_equiv_pos_site_id
 _symmetry_equiv_pos_as_xyz
  1  'x, y, z'
loop_
 _atom_site_type_symbol
 _atom_site_label
 _atom_site_symmetry_multiplicity
 _atom_site_fract_x
 _atom_site_fract_y
 _atom_site_fract_z
 _atom_site_occupancy
  V  V0  1  0.23874766  0.62905812  0.87716218  1
  V  V1  1  0.36592955  0.37217404  0.50295807  1
  V  V2  1  0.50522354  0.49608779  0.49932622  1
  V  V3  1  0.25197478  -0.00112298  0.25694539  1
  V  V4  1  0.12717080  0.49507646  0.61842694  1
  V  V5  1  0.00145276  0.63351362  0.62546207  1
  V  V6  1  0.50263586  0.50031798  -0.00264294  1
  V  V7  1  0.86720267  0.00774176  0.88093704  1
  V  V8  1  0.50557059  0.36991626  0.36003320  1
  V  V9  1  0.12516020  0.75871787  0.36255997  1
  V  V10  1  -0.00845575  0.86561165  0.87660253  1
  V  V11  1  0.60760806  0.12898437  0.50859911  1
  V  V12  1  0.49481387  -0.00695975  0.00420189  1
  V  V13  1  0.00191356  0.37505305  0.87472189  1
  V  V14  1  0.87574412  0.24225336  0.62260388  1
  V  V15  1  0.25839060  0.87587872  0.10977621  1
  V  V16  1  0.24945303  0.87547108  0.62171607  1
  V  V17  1  0.12162082  0.12426283  0.00361994  1
  V  V18  1  0.75648701  0.37506306  0.61853079  1
  V  V19  1  0.51351802  0.86780288  0.87499993  1
  V  V20  1  -0.00276273  -0.00164567  0.00225041  1
  V  V21  1  0.12890826  0.37064000  0.74225570  1
  V  V22  1  0.87091601  0.37413174  -0.00442473  1
  V  V23  1  0.63285536  0.24369004  0.87377693  1
  V  V24  1  0.62546724  -0.00786185  0.13684277  1
  V  V25  1  0.63107101  0.49321484  0.13840106  1
  V  V26  1  0.50165248  0.62384516  0.62273064  1
  V  V27  1  0.62425451  0.24620760  0.36344842  1
  V  V28  1  0.60875498  0.00009309  0.62486944  1
  V  V29  1  0.25147965  0.37598403  0.12280831  1
  V  V30  1  0.86646074  0.77426735  0.13759017  1
  V  V31  1  0.25085359  0.49423720  0.74207878  1
  V  V32  1  0.75225660  0.24690485  0.49549063  1
  V  V33  1  0.88114324  0.63924270  0.75193745  1
  V  V34  1  0.87855050  0.50072749  0.87212073  1
  V  V35  1  -0.00062469  0.23844909  0.74471013  1
  V  V36  1  0.12165212  0.85924696  0.75388641  1
  V  V37  1  0.12413255  -0.00430494  0.13070587  1
  V  V38  1  0.10680604  0.00478475  0.61741712  1
  V  V39  1  -0.01794225  0.62357747  0.12752821  1
  V  V40  1  0.37542720  0.75293675  0.62397721  1
  V  V41  1  0.37933971  0.62802570  0.25002968  1
  V  V42  1  0.25806100  0.25019995  0.00260312  1
  V  V43  1  0.86200622  0.08724985  0.29468612  1
  V  V44  1  0.75263219  0.62992473  0.87888945  1
  V  V45  1  0.25122183  0.12360355  0.87472654  1
  V  V46  1  0.25480904  0.75430314  0.49666456  1
  V  V47  1  0.36164417  0.25274286  0.62116959  1
  V  V48  1  0.74915603  0.37249585  0.14094130  1
  V  V49  1  0.74377072  0.00055795  0.74557655  1
  V  V50  1  0.63413949  0.63940248  0.49412797  1
  V  V51  1  0.24582362  -0.00285493  0.75025814  1
  V  V52  1  0.12642985  0.24725452  0.87164759  1
  V  V53  1  0.37270720  0.13917142  0.25001574  1
  V  V54  1  0.38485182  -0.00871581  0.38406837  1
  V  V55  1  0.13040187  0.51005126  0.10961421  1
  V  V56  1  0.62852174  0.37620806  0.74863041  1
  V  V57  1  0.37353151  -0.01076513  0.87935247  1
  V  V58  1  0.75438793  0.50030224  0.74883315  1
  V  V59  1  0.49680814  0.13950971  0.12998134  1
  V  V60  1  0.37565383  0.49692983  0.37397593  1
  V  V61  1  0.87057512  0.75554213  0.60554613  1
  V  V62  1  0.50405716  0.62521663  0.12786750  1
  V  V63  1  0.89129982  0.24460569  0.13136169  1
  V  V64  1  0.25116634  0.62397691  0.37015648  1
  V  V65  1  0.75433816  0.76383614  0.00488437  1
  V  V66  1  0.37978738  0.12311210  0.74475886  1
  V  V67  1  0.62812949  0.12523450  -0.00166275  1
  V  V68  1  0.12601633  0.62490617  0.49490169  1
  V  V69  1  0.24201363  0.49881969  0.24571765  1
  V  V70  1  -0.00549826  0.89751489  0.37622223  1
  V  V71  1  0.75810474  0.62641221  0.35865742  1
  V  V72  1  0.51181360  0.76156322  0.25916120  1
  V  V73  1  0.63241864  0.62679907  0.00264391  1
  V  V74  1  0.50222774  0.37922596  0.87330415  1
  V  V75  1  0.37439676  0.62410359  0.74886235  1
  V  V76  1  -0.00268085  0.36502711  0.35712712  1
  V  V77  1  -0.01117759  0.49384202  0.49119391  1
  V  V78  1  0.50223897  0.24653176  0.74160284  1
  Zn  Zn79  1  0.12683326  0.74648451  0.91252057  1
  Zn  Zn80  1  0.74968101  0.87219647  0.62678197  1
  Zn  Zn81  1  0.37262660  0.49962434  0.87420537  1
  Zn  Zn82  1  0.75501991  0.24314075  -0.00241092  1
  Zn  Zn83  1  0.87112263  0.12191739  0.74654809  1
  Zn  Zn84  1  0.38057935  0.76709775  0.11195989  1
  Zn  Zn85  1  0.63018245  0.50039546  0.62322718  1
  Zn  Zn86  1  0.00590572  0.51425569  -0.00858117  1
  Zn  Zn87  1  -0.01165675  0.75112940  0.25584927  1
  Zn  Zn88  1  0.24646719  0.14978363  0.40947290  1
  Zn  Zn89  1  0.77678734  0.93326094  0.20161757  1
  Zn  Zn90  1  0.86096715  0.49835603  0.34276049  1
  Zn  Zn91  1  0.38113058  0.36823722  0.00179200  1
  Zn  Zn92  1  0.12715852  0.25427474  0.35500113  1
  Zn  Zn93  1  0.52799245  0.76101934  0.75057311  1
  Zn  Zn94  1  0.18800602  0.18763816  0.18690740  1
  Zn  Zn95  1  0.18958865  0.18118821  0.67414199  1
  Zn  Zn96  1  0.18743677  0.69331475  0.17156367  1
  Zn  Zn97  1  0.18987123  0.68285009  0.68520933  1
  Zn  Zn98  1  0.70264761  0.17765360  0.18572222  1
  Zn  Zn99  1  0.68980720  0.18232496  0.68775287  1
  Zn  Zn100  1  0.68821975  0.69269255  0.19029813  1
  Zn  Zn101  1  0.69314332  0.69007737  0.68580097  1
  Zn  Zn102  1  0.31269783  0.31756309  0.31134208  1
  Zn  Zn103  1  0.31548229  0.31146747  0.81287654  1
  Zn  Zn104  1  0.31607734  0.81579949  0.30487027  1
  Zn  Zn105  1  0.31221272  0.80817243  0.81290800  1
  Zn  Zn106  1  0.82019161  0.31178668  0.31613915  1
  Zn  Zn107  1  0.81432883  0.31037623  0.80784385  1
  Zn  Zn108  1  0.81390906  0.80941237  0.34029493  1
  Zn  Zn109  1  0.80636768  0.81878157  0.81510198  1
  Zn  Zn110  1  0.18301154  0.43131099  0.42822885  1
  Zn  Zn111  1  0.19134666  0.43736639  0.93309997  1
  Zn  Zn112  1  0.18130786  0.94471362  0.43689141  1
  Zn  Zn113  1  0.18103677  0.93274737  0.93695738  1
  Zn  Zn114  1  0.68932557  0.43809606  0.43157390  1
  Zn  Zn115  1  0.68741716  0.43996294  0.93701043  1
  Zn  Zn116  1  0.67273657  0.93676364  0.44401686  1
  Zn  Zn117  1  0.68409232  0.94351951  0.94160241  1
  Zn  Zn118  1  0.31243878  0.06516262  0.06503151  1
  Zn  Zn119  1  0.31020117  0.06337971  0.56060691  1
  Zn  Zn120  1  0.32551616  0.59256938  0.04947518  1
  Zn  Zn121  1  0.31435306  0.56168727  0.55820358  1
  Zn  Zn122  1  0.81222446  0.06259762  0.06591670  1
  Zn  Zn123  1  0.80494627  0.06376390  0.55279298  1
  Zn  Zn124  1  0.81437085  0.55464106  0.06565316  1
  Zn  Zn125  1  0.81359592  0.56633113  0.56303805  1
  Zn  Zn126  1  0.43392988  0.44100261  0.18257013  1
  Zn  Zn127  1  0.43923739  0.43538830  0.68587517  1
  Zn  Zn128  1  0.43609608  0.94458706  0.19222966  1
  Zn  Zn129  1  0.43541826  0.93197550  0.69395259  1
  Zn  Zn130  1  0.94450768  0.42978461  0.18351513  1
  Zn  Zn131  1  0.93927502  0.43761514  0.68352344  1
  Zn  Zn132  1  0.95591919  0.94012863  0.20559444  1
  Zn  Zn133  1  0.93482762  0.93342172  0.69542647  1
  Zn  Zn134  1  0.05753342  0.09380660  0.30269677  1
  Zn  Zn135  1  0.06165602  0.05558447  0.81390260  1
  Zn  Zn136  1  0.05689245  0.56441798  0.30562393  1
  Zn  Zn137  1  0.06421221  0.56255444  0.80642856  1
  Zn  Zn138  1  0.56071971  0.06786628  0.31467441  1
  Zn  Zn139  1  0.56098941  0.05805758  0.81356968  1
  Zn  Zn140  1  0.56741008  0.56517711  0.31646834  1
  Zn  Zn141  1  0.57930768  0.58562544  0.79920347  1
  Zn  Zn142  1  0.43264875  0.18650981  0.43364018  1
  Zn  Zn143  1  0.44306877  0.18215729  0.93347902  1
  Zn  Zn144  1  0.44019195  0.68925008  0.43719847  1
  Zn  Zn145  1  0.43147346  0.69201792  0.93931317  1
  Zn  Zn146  1  0.93294891  0.18261406  0.43149894  1
  Zn  Zn147  1  0.93920110  0.18719045  0.93947012  1
  Zn  Zn148  1  0.93653114  0.68233896  0.43165005  1
  Zn  Zn149  1  0.93108374  0.69133901  0.95046991  1
  Zn  Zn150  1  0.07186924  0.31673352  0.06417547  1
  Zn  Zn151  1  0.05525502  0.31454920  0.55809302  1
  Zn  Zn152  1  0.05761079  0.81402537  0.06819509  1
  Zn  Zn153  1  0.06223872  0.81967782  0.55706616  1
  Zn  Zn154  1  0.56814677  0.31324054  0.06144198  1
  Zn  Zn155  1  0.56319083  0.31495815  0.56060709  1
  Zn  Zn156  1  0.56538234  0.81148420  0.06491819  1
  Zn  Zn157  1  0.56397214  0.81318706  0.56770273  1
  O  O158  1  0.13408372  0.11244098  0.10844281  1
  O  O159  1  0.11924377  0.10214888  0.64420792  1
  O  O160  1  0.12802287  0.61209539  0.12026850  1
  O  O161  1  0.12025494  0.61773752  0.61552617  1
  O  O162  1  0.61411002  0.12078633  0.11962186  1
  O  O163  1  0.62201339  0.11701071  0.61801413  1
  O  O164  1  0.62179305  0.61462982  0.12076977  1
  O  O165  1  0.61364782  0.62193905  0.61292757  1
  O  O166  1  0.38925170  0.37640789  0.38278750  1
  O  O167  1  0.38851838  0.37879078  0.87537368  1
  O  O168  1  0.36897306  0.89106054  0.37177303  1
  O  O169  1  0.37648692  0.88592353  0.87167614  1
  O  O170  1  0.89028300  0.38703556  0.36754621  1
  O  O171  1  0.88377946  0.37888689  0.87501253  1
  O  O172  1  0.89433206  0.87777597  0.37607412  1
  O  O173  1  0.88686784  0.88430472  0.87279125  1
  O  O174  1  0.24846174  0.00567642  0.36132063  1
  O  O175  1  0.25419100  0.00115526  0.86786206  1
  O  O176  1  0.25328050  0.50314230  0.36533960  1
  O  O177  1  0.24886145  0.50490318  0.85543459  1
  O  O178  1  0.72380901  -0.04820936  0.34313421  1
  O  O179  1  0.76200378  -0.00643535  0.87138328  1
  O  O180  1  0.75319606  0.51539330  0.38440373  1
  O  O181  1  0.75957374  0.50859686  0.87026991  1
  O  O182  1  0.24228468  0.50048973  0.12595201  1
  O  O183  1  0.23919177  0.50623602  0.62998477  1
  O  O184  1  0.24366698  0.99382052  0.12693148  1
  O  O185  1  0.25209315  0.98929261  0.63678296  1
  O  O186  1  0.74415505  0.48226454  0.11877972  1
  O  O187  1  0.75363332  0.49161327  0.62987350  1
  O  O188  1  0.73260269  1.00177475  0.12211453  1
  O  O189  1  0.74760335  1.00047936  0.63884742  1
  O  O190  1  0.01262138  0.37710812  0.25850583  1
  O  O191  1  0.00935502  0.36924908  0.75643175  1
  O  O192  1  0.01037726  0.86356387  0.26746463  1
  O  O193  1  0.00876595  0.87798311  0.76893914  1
  O  O194  1  0.49479617  0.37884690  0.26165982  1
  O  O195  1  0.50742873  0.36919894  0.75571595  1
  O  O196  1  0.48985000  0.85878324  0.24236073  1
  O  O197  1  0.49906924  0.87087299  0.76658667  1
  O  O198  1  0.48881324  0.12569778  0.23798685  1
  O  O199  1  0.48927413  0.13308406  0.75855815  1
  O  O200  1  0.49848436  0.62950379  0.24498684  1
  O  O201  1  0.48362031  0.61287386  0.73611524  1
  O  O202  1  0.95107766  0.12331598  0.26447785  1
  O  O203  1  0.99882280  0.13599568  0.75709672  1
  O  O204  1  1.00998190  0.63665700  0.23039366  1
  O  O205  1  0.99332382  0.61958454  0.73562063  1
  O  O206  1  0.36218316  0.24530953  -0.00801937  1
  O  O207  1  0.38090992  0.25534008  0.51476316  1
  O  O208  1  0.36156193  0.70229841  0.02288615  1
  O  O209  1  0.36483505  0.74288054  0.50945085  1
  O  O210  1  0.87487793  0.26023854  0.00053998  1
  O  O211  1  0.85801268  0.24784491  0.50415564  1
  O  O212  1  0.86092124  0.75449409  0.01749539  1
  O  O213  1  0.87614750  0.74817829  0.50662670  1
  O  O214  1  0.08438920  0.21133758  0.50714045  1
  O  O215  1  0.13242450  0.24228429  0.99167787  1
  O  O216  1  0.13679721  0.74003808  0.49317049  1
  O  O217  1  0.12925689  0.74406436  1.02342339  1
  O  O218  1  0.62977290  0.24291886  0.49899752  1
  O  O219  1  0.62525015  0.24236253  0.98930446  1
  O  O220  1  0.62108222  0.73841885  0.50320408  1
  O  O221  1  0.64103808  0.73647755  1.01337657  1
  O  O222  1  0.50209976  0.23868904  0.11923617  1
  O  O223  1  0.49691181  0.25389811  0.63881004  1
  O  O224  1  0.49973024  0.73667243  0.12990623  1
  O  O225  1  0.49220212  0.74385222  0.62830665  1
  O  O226  1  0.99117309  0.25917523  0.11711857  1
  O  O227  1  0.98721199  0.26039545  0.63618610  1
  O  O228  1  0.97654088  0.74790900  0.12632239  1
  O  O229  1  0.99448616  0.73893229  0.61363124  1
  O  O230  1  -0.01270404  0.26332875  0.37292980  1
  O  O231  1  0.00557435  0.25692252  0.86484412  1
  O  O232  1  0.01939662  0.74352805  0.37545009  1
  O  O233  1  -0.00311674  0.76365045  0.88827435  1
  O  O234  1  0.50951418  0.26120277  0.37636715  1
  O  O235  1  0.50721266  0.25961972  0.86591698  1
  O  O236  1  0.49572369  0.74495518  0.35845742  1
  O  O237  1  0.49429902  0.76466232  0.88076885  1
  O  O238  1  0.24402520  0.14074771  0.52046636  1
  O  O239  1  0.24378707  0.13082203  0.99409496  1
  O  O240  1  0.24418480  0.63102709  0.49334102  1
  O  O241  1  0.24296148  0.60085780  0.97287743  1
  O  O242  1  0.73486667  0.14323490  0.50325684  1
  O  O243  1  0.73232703  0.12432117  1.00414044  1
  O  O244  1  0.73379651  0.62472652  0.50881800  1
  O  O245  1  0.75040824  0.62706440  0.99661741  1
  O  O246  1  0.25365525  0.36631431  0.00035875  1
  O  O247  1  0.26716750  0.38535947  0.49443774  1
  O  O248  1  0.24996678  0.87904994  0.00953800  1
  O  O249  1  0.24207987  0.86496179  0.51108087  1
  O  O250  1  0.76352147  0.37299301  -0.00574970  1
  O  O251  1  0.73886097  0.36379189  0.51125374  1
  O  O252  1  0.74223557  0.86164717  -0.00240965  1
  O  O253  1  0.76980360  0.90582193  0.50693776  1
  O  O254  1  0.13800454  0.50731201  0.24042313  1
  O  O255  1  0.13013206  0.49096426  0.73742412  1
  O  O256  1  0.13766566  1.01534023  0.23395065  1
  O  O257  1  0.13421270  0.98616462  0.75020813  1
  O  O258  1  0.61957194  0.49987156  0.23724669  1
  O  O259  1  0.63649276  0.49623678  0.74773340  1
  O  O260  1  0.61736394  1.00881513  0.23565405  1
  O  O261  1  0.63172954  1.00618155  0.73790229  1
  O  O262  1  0.36560645  0.00985187  0.25925835  1
  O  O263  1  0.36696792  0.00444698  0.75691454  1
  O  O264  1  0.37022525  0.50743065  0.25786493  1
  O  O265  1  0.36514915  0.50384733  0.74448150  1
  O  O266  1  0.86441287  -0.00967250  0.25106323  1
  O  O267  1  0.86695075  0.00183598  0.76194406  1
  O  O268  1  0.88048373  0.50415841  0.23301635  1
  O  O269  1  0.87364884  0.50876961  0.75309878  1
  O  O270  1  0.10395814  0.36279017  0.39037336  1
  O  O271  1  0.11950783  0.36915325  0.86336095  1
  O  O272  1  0.13333721  0.85967994  0.37304412  1
  O  O273  1  0.11675282  0.86424257  0.87070746  1
  O  O274  1  0.61292242  0.36507218  0.37716670  1
  O  O275  1  0.62003051  0.36695636  0.86924634  1
  O  O276  1  0.56994375  0.87880707  0.41841993  1
  O  O277  1  0.61283286  0.87656241  0.87778378  1
  O  O278  1  0.38915774  0.12112013  0.13196862  1
  O  O279  1  0.37238863  0.13669680  0.63740889  1
  O  O280  1  0.39433836  0.60477762  0.14168117  1
  O  O281  1  0.38093973  0.63186879  0.62659127  1
  O  O282  1  0.87285860  0.14584264  0.11218783  1
  O  O283  1  0.86945007  0.13712863  0.62038722  1
  O  O284  1  0.88099883  0.62409412  0.12953685  1
  O  O285  1  0.88163640  0.63783413  0.63131618  1
  O  O286  1  0.23987930  0.26099309  0.11322725  1
  O  O287  1  0.26295166  0.25729568  0.63357777  1
  O  O288  1  0.25548659  0.77515808  0.13780055  1
  O  O289  1  0.25537668  0.75443106  0.61650722  1
  O  O290  1  0.75475210  0.26326161  0.11859443  1
  O  O291  1  0.75508904  0.25581526  0.61857143  1
  O  O292  1  0.75831616  0.75090448  0.11865741  1
  O  O293  1  0.76427596  0.75251317  0.62517003  1
  O  O294  1  0.24194476  0.25780226  0.37056133  1
  O  O295  1  0.24521858  0.24447261  0.87966830  1
  O  O296  1  0.24688869  0.74539315  0.37966293  1
  O  O297  1  0.25028421  0.73321547  0.87342485  1
  O  O298  1  0.73739497  0.26305838  0.38813487  1
  O  O299  1  0.73685716  0.25188415  0.87239350  1
  O  O300  1  0.75160481  0.72694882  0.38206890  1
  O  O301  1  0.76096379  0.74013848  0.89165059  1
  O  O302  1  0.01175894  0.11305421  -0.00799696  1
  O  O303  1  0.02648204  0.15933961  0.50914648  1
  O  O304  1  -0.00376673  0.62766153  0.01925656  1
  O  O305  1  0.01089925  0.61653925  0.50420857  1
  O  O306  1  0.50530705  0.11711632  0.01021364  1
  O  O307  1  0.50850345  0.13435692  0.50439601  1
  O  O308  1  0.51454521  0.61915613  0.00746613  1
  O  O309  1  0.50499728  0.61720448  0.50512788  1
  O  O310  1  0.49270783  0.38291836  0.49601225  1
  O  O311  1  0.50292931  0.38214963  0.99171512  1
  O  O312  1  0.51649702  0.87459038  0.47375498  1
  O  O313  1  0.50172370  0.88392964  0.99277564  1
  O  O314  1  0.99536221  0.39192144  0.50015280  1
  O  O315  1  0.99632479  0.37358616  0.98309456  1
  O  O316  1  1.01819298  0.87947024  0.47556978  1
  O  O317  1  1.00593303  0.88862429  0.98915892  1
  O  O318  1  0.49839948  0.48905290  0.38067433  1
  O  O319  1  0.50943716  0.49050526  0.87953727  1
  O  O320  1  0.48423222  1.00685110  0.37155154  1
  O  O321  1  0.49328247  0.98883170  0.88202847  1
  O  O322  1  1.00468719  0.49656332  0.38446633  1
  O  O323  1  0.99852871  0.49166140  0.87138007  1
  O  O324  1  1.01398532  0.99557414  0.35891915  1
  O  O325  1  0.99012277  0.99226863  0.88259110  1
  O  O326  1  0.01523810  -0.00630910  0.11899702  1
  O  O327  1  0.00759743  -0.01101600  0.62723361  1
  O  O328  1  0.01438497  0.51046966  0.12318461  1
  O  O329  1  0.00893166  0.50820634  0.61396461  1
  O  O330  1  0.50637704  0.00776885  0.11839490  1
  O  O331  1  0.50956021  -0.00501548  0.63142672  1
  O  O332  1  0.51131037  0.50290815  0.11665174  1
  O  O333  1  0.49960148  0.50727771  0.61559528  1
  O  O334  1  0.25867630  0.38996504  0.23795968  1
  O  O335  1  0.23890874  0.38019527  0.75345992  1
  O  O336  1  0.25400951  0.89624735  0.24120535  1
  O  O337  1  0.24342270  0.87827634  0.74407610  1
  O  O338  1  0.75204758  0.37247768  0.23906880  1
  O  O339  1  0.74715743  0.38000479  0.74243062  1
  O  O340  1  0.72756577  0.88275968  0.29499022  1
  O  O341  1  0.75007517  0.89141294  0.74878263  1
  O  O342  1  0.26732040  0.11416981  0.23303271  1
  O  O343  1  0.25770474  0.11475688  0.75428829  1
  O  O344  1  0.26160357  0.61841490  0.25004460  1
  O  O345  1  0.25643312  0.61432439  0.75128822  1
  O  O346  1  0.77614922  0.12998934  0.25739992  1
  O  O347  1  0.75131338  0.10897489  0.75289833  1
  O  O348  1  0.74307814  0.62215894  0.25926307  1
  O  O349  1  0.76380876  0.62052793  0.75968091  1
  O  O350  1  0.36829128  0.12243363  0.36176846  1
  O  O351  1  0.37073063  0.11481671  0.86512021  1
  O  O352  1  0.37124180  0.61796651  0.36856497  1
  O  O353  1  0.36717325  0.62117409  0.86061316  1
  O  O354  1  0.86512443  0.09877721  0.39922166  1
  O  O355  1  0.87763790  0.11060456  0.87485199  1
  O  O356  1  0.86578899  0.61936905  0.36994480  1
  O  O357  1  0.87320651  0.62168176  0.87145138  1
  O  O358  1  0.13956835  0.39156774  0.11971223  1
  O  O359  1  0.11910459  0.38267391  0.62944157  1
  O  O360  1  0.13589885  0.89153680  0.12388427  1
  O  O361  1  0.13229183  0.88192343  0.63352517  1
  O  O362  1  0.64071653  0.37781296  0.12104558  1
  O  O363  1  0.63500635  0.37608975  0.63254252  1
  O  O364  1  0.61889641  0.89187316  0.12525946  1
  O  O365  1  0.63156381  0.89479542  0.61025500  1
  O  O366  1  0.10249675  0.19829548  0.25681573  1
  O  O367  1  0.12003210  0.25445578  0.74886497  1
  O  O368  1  0.13472135  0.74178111  0.26359894  1
  O  O369  1  0.12757352  0.75927518  0.74229288  1
  O  O370  1  0.63427438  0.23833866  0.26580591  1
  O  O371  1  0.61972160  0.25220964  0.75480621  1
  O  O372  1  0.61168537  0.75395478  0.24512018  1
  O  O373  1  0.61486750  0.69576676  0.76283541  1
  O  O374  1  0.37110950  0.23828205  0.24840293  1
  O  O375  1  0.38150555  0.24442984  0.74246196  1
  O  O376  1  0.37986292  0.73611417  0.24276435  1
  O  O377  1  0.37076540  0.73779135  0.73755891  1
  O  O378  1  0.87538335  0.26083276  0.22964037  1
  O  O379  1  0.88133719  0.24381110  0.74250901  1
  O  O380  1  0.86429191  0.75714554  0.23959357  1
  O  O381  1  0.87303575  0.74042351  0.75211325  1
  O  O382  1  0.38517467  0.49488019  0.49452950  1
  O  O383  1  0.39559160  0.50677469  0.99451047  1
  O  O384  1  0.36721851  1.00620610  0.48332043  1
  O  O385  1  0.38425929  1.01008645  0.98957779  1
  O  O386  1  0.89061517  0.51071064  0.50094098  1
  O  O387  1  0.88274302  0.48978855  0.99164728  1
  O  O388  1  0.82600324  0.96364938  0.49639508  1
  O  O389  1  0.88148610  1.00350927  0.99092265  1
  O  O390  1  0.11844413  0.00606880  0.00484136  1
  O  O391  1  0.13077002  0.00111121  0.51951259  1
  O  O392  1  0.12310194  0.49724238  0.00563746  1
  O  O393  1  0.12275909  0.50770737  0.50335343  1
  O  O394  1  0.61298904  0.00824208  0.00641607  1
  O  O395  1  0.62728820  0.01950813  0.51104146  1
  O  O396  1  0.62057781  0.50536813  0.00916458  1
  O  O397  1  0.61328329  0.50301197  0.50128782  1
  O  O398  1  0.35966310  0.38524685  0.11600665  1
  O  O399  1  0.37969840  0.36171653  0.61934172  1
  O  O400  1  0.36467343  0.88437903  0.12032336  1
  O  O401  1  0.36395927  0.86335964  0.63229668  1
  O  O402  1  0.86669807  0.36927457  0.11277380  1
  O  O403  1  0.86403482  0.36418604  0.63007215  1
  O  O404  1  0.86644850  0.87589942  0.13622789  1
  O  O405  1  0.88109277  0.85540609  0.63050266  1
  O  O406  1  0.13210356  0.13734117  0.37868510  1
  O  O407  1  0.13208686  0.12649214  0.88064391  1
  O  O408  1  0.13179864  0.62872733  0.38132362  1
  O  O409  1  0.13398155  0.63260869  0.86140054  1
  O  O410  1  0.61679698  0.14014124  0.38908844  1
  O  O411  1  0.61259436  0.13290533  0.88525739  1
  O  O412  1  0.63376150  0.62107370  0.38928962  1
  O  O413  1  0.64274444  0.61363343  0.89341290  1
