# generated using pymatgen
data_V79Zn79O256
_symmetry_space_group_name_H-M   'P 1'
_cell_length_a   16.87217143
_cell_length_b   16.93483766
_cell_length_c   16.91793920
_cell_angle_alpha   90.09359538
_cell_angle_beta   90.03692501
_cell_angle_gamma   89.85445024
_symmetry_Int_Tables_number   1
_chemical_formula_structural   V79Zn79O256
_chemical_formula_sum   'V79 Zn79 O256'
_cell_volume   4833.89716684
_cell_formula_units_Z   1
loop_
 _symmetry_equiv_pos_site_id
 _symmetry_equiv_pos_as_xyz
  1  'x, y, z'
loop_
 _atom_site_type_symbol
 _atom_site_label
 _atom_site_symmetry_multiplicity
 _atom_site_fract_x
 _atom_site_fract_y
 _atom_site_fract_z
 _atom_site_occupancy
  V  V0  1  0.39077297  0.49384327  0.87939982  1
  V  V1  1  -0.00323793  0.87956713  0.88868972  1
  V  V2  1  0.11771438  0.25499895  0.87758501  1
  V  V3  1  0.62716854  0.25035136  0.87620701  1
  V  V4  1  0.26060040  -0.00096246  0.25041359  1
  V  V5  1  0.00191476  0.50107962  0.50347713  1
  V  V6  1  0.49979266  0.12670278  0.62239601  1
  V  V7  1  0.72819734  0.75133664  0.49574008  1
  V  V8  1  0.88787656  0.38635118  -0.01048208  1
  V  V9  1  0.75288239  0.00600222  0.74780215  1
  V  V10  1  0.37887895  0.23755541  0.13140612  1
  V  V11  1  0.62339089  0.12424714  0.49743710  1
  V  V12  1  0.12966968  0.13632790  0.50335893  1
  V  V13  1  0.87409173  0.75757677  0.13004280  1
  V  V14  1  0.35566557  0.37465571  0.50336066  1
  V  V15  1  0.12941316  0.37044077  0.74228490  1
  V  V16  1  0.75110609  0.25099776  0.50121693  1
  V  V17  1  0.75349481  0.24547781  -0.00391456  1
  V  V18  1  0.75632289  0.12490799  0.37356483  1
  V  V19  1  0.49694378  0.23873609  0.25069974  1
  V  V20  1  0.50132642  0.25783237  0.75376199  1
  V  V21  1  0.37768614  0.62410231  0.75487419  1
  V  V22  1  0.37688213  0.90427122  0.48495802  1
  V  V23  1  0.49569324  0.74514309  0.26407207  1
  V  V24  1  -0.00075222  0.62144173  0.10542277  1
  V  V25  1  0.10925374  0.11877217  0.00235090  1
  V  V26  1  0.21814068  0.72260575  -0.01643763  1
  V  V27  1  0.24969235  0.24753673  0.00357541  1
  V  V28  1  0.13329896  0.64075281  0.50581754  1
  V  V29  1  0.24669656  0.64288787  0.37689317  1
  V  V30  1  0.38184472  0.00080762  0.87945963  1
  V  V31  1  0.87769745  0.50400471  0.37749407  1
  V  V32  1  0.24951491  0.12378716  0.87765530  1
  V  V33  1  0.74793959  0.38098304  0.12445685  1
  V  V34  1  0.87577013  0.37708677  0.50086230  1
  V  V35  1  0.35936171  0.75003537  0.62530154  1
  V  V36  1  0.73914911  -0.00309307  0.25067824  1
  V  V37  1  0.62142323  0.00136597  0.62169985  1
  V  V38  1  0.24729297  0.38379719  0.12966345  1
  V  V39  1  -0.01101931  0.64092127  0.62408697  1
  V  V40  1  0.36142710  0.50173862  0.37484522  1
  V  V41  1  0.87953495  0.24565165  0.62418472  1
  V  V42  1  0.35982694  0.25363041  0.62273650  1
  V  V43  1  0.76121443  0.50280887  0.76302645  1
  V  V44  1  0.87844825  0.00433883  0.89224897  1
  V  V45  1  0.74731053  0.75119901  -0.00794112  1
  V  V46  1  0.50667790  0.86733455  0.87773125  1
  V  V47  1  0.37193226  0.86004051  0.00069920  1
  V  V48  1  0.52064789  0.62323475  0.12400312  1
  V  V49  1  0.87680659  0.00074524  0.37197063  1
  V  V50  1  0.75214454  0.87040298  0.62363621  1
  V  V51  1  0.87548221  0.86698077  0.50290727  1
  V  V52  1  0.74759941  0.38482477  0.62360339  1
  V  V53  1  0.12518936  0.24487492  0.35354245  1
  V  V54  1  0.50921093  0.50689493  0.50486812  1
  V  V55  1  0.11551953  0.87536282  0.75046149  1
  V  V56  1  0.73580959  0.63044641  0.37838857  1
  V  V57  1  0.37416958  0.12571583  0.74844399  1
  V  V58  1  0.63241269  0.61981447  -0.01748041  1
  V  V59  1  0.36420310  0.62465861  0.23851014  1
  V  V60  1  -0.00284435  0.25565910  0.75332248  1
  V  V61  1  0.62479585  0.87003442  0.75108263  1
  V  V62  1  0.39251777  0.37579916  0.00212066  1
  V  V63  1  0.49804202  0.37710234  0.37525469  1
  V  V64  1  0.62438879  0.25220214  0.37465344  1
  V  V65  1  0.12620525  0.00274339  0.62442283  1
  V  V66  1  0.87301683  0.63593176  0.75986068  1
  V  V67  1  -0.00793874  0.12140308  0.14805799  1
  V  V68  1  0.88225694  0.24886268  0.14109388  1
  V  V69  1  0.61704977  0.86154886  0.25825632  1
  V  V70  1  0.25796690  0.48491367  0.74833370  1
  V  V71  1  0.12005640  0.39829257  0.24645077  1
  V  V72  1  0.74237786  0.50236337  0.24861873  1
  V  V73  1  0.00961681  0.86580689  0.37229708  1
  V  V74  1  0.25152491  -0.00441548  0.74737148  1
  V  V75  1  0.62713641  0.38034478  0.74806719  1
  V  V76  1  0.88381188  0.62844369  0.25416058  1
  V  V77  1  0.00108488  0.00589271  0.50481816  1
  V  V78  1  0.87899131  0.12455066  0.74933831  1
  Zn  Zn79  1  0.74572949  0.87700468  0.12621404  1
  Zn  Zn80  1  -0.00591386  0.36871279  0.36425967  1
  Zn  Zn81  1  0.24728304  0.86503446  0.12148668  1
  Zn  Zn82  1  0.12955736  0.86567162  0.24467244  1
  Zn  Zn83  1  0.51309984  0.73816188  0.75154861  1
  Zn  Zn84  1  0.13332259  0.49774595  0.62077382  1
  Zn  Zn85  1  0.11914058  0.50984137  0.10627034  1
  Zn  Zn86  1  0.56736490  0.44944434  0.06407352  1
  Zn  Zn87  1  0.51138522  0.62575292  0.62406622  1
  Zn  Zn88  1  0.61826044  0.37913084  0.24162105  1
  Zn  Zn89  1  0.11906145  -0.01072376  0.12422294  1
  Zn  Zn90  1  0.25114443  0.12101517  0.36942758  1
  Zn  Zn91  1  0.70888949  0.08785286  0.91347644  1
  Zn  Zn92  1  0.52716414  0.01682379  0.00958950  1
  Zn  Zn93  1  0.04605705  0.71227361  0.80414949  1
  Zn  Zn94  1  0.19140130  0.17959043  0.18293042  1
  Zn  Zn95  1  0.18237163  0.18151722  0.68989473  1
  Zn  Zn96  1  0.18511198  0.69746011  0.17030607  1
  Zn  Zn97  1  0.18553544  0.67088702  0.70829702  1
  Zn  Zn98  1  0.69639578  0.19792524  0.19636388  1
  Zn  Zn99  1  0.68958901  0.19123883  0.68791668  1
  Zn  Zn100  1  0.69216952  0.68967120  0.19137157  1
  Zn  Zn101  1  0.69071823  0.68345243  0.68562354  1
  Zn  Zn102  1  0.30553107  0.31172668  0.31295590  1
  Zn  Zn103  1  0.31503758  0.31058979  0.81748320  1
  Zn  Zn104  1  0.31906149  0.82228320  0.31563272  1
  Zn  Zn105  1  0.30887292  0.81306277  0.81448505  1
  Zn  Zn106  1  0.80933008  0.31822243  0.31416974  1
  Zn  Zn107  1  0.81369586  0.31671305  0.81491377  1
  Zn  Zn108  1  0.81464779  0.81386299  0.31721471  1
  Zn  Zn109  1  0.81823032  0.81784270  0.81368659  1
  Zn  Zn110  1  0.17890754  0.44103254  0.42885975  1
  Zn  Zn111  1  0.20374319  0.42846381  0.93138013  1
  Zn  Zn112  1  0.19733885  0.93548923  0.44053206  1
  Zn  Zn113  1  0.18765887  0.93458088  0.93318599  1
  Zn  Zn114  1  0.68814886  0.43927579  0.43491774  1
  Zn  Zn115  1  0.69524614  0.43240082  0.93554984  1
  Zn  Zn116  1  0.68116713  0.93697777  0.43506075  1
  Zn  Zn117  1  0.69395576  0.92380564  0.93732236  1
  Zn  Zn118  1  0.31199966  0.05227218  0.06691549  1
  Zn  Zn119  1  0.31028103  0.06286549  0.55974466  1
  Zn  Zn120  1  0.30710913  0.56399229  0.05290702  1
  Zn  Zn121  1  0.31634507  0.56430311  0.56778182  1
  Zn  Zn122  1  0.70257481  0.06037360  0.07528424  1
  Zn  Zn123  1  0.81358706  0.06101868  0.56175987  1
  Zn  Zn124  1  0.81447396  0.56565926  0.06107464  1
  Zn  Zn125  1  0.80444435  0.56872964  0.56181476  1
  Zn  Zn126  1  0.43116096  0.44182966  0.18921650  1
  Zn  Zn127  1  0.43895755  0.43501116  0.68163028  1
  Zn  Zn128  1  0.43821229  0.93001731  0.18129681  1
  Zn  Zn129  1  0.44272558  0.92133745  0.66801809  1
  Zn  Zn130  1  0.93402433  0.44213987  0.18273773  1
  Zn  Zn131  1  0.93984949  0.43915669  0.68785323  1
  Zn  Zn132  1  0.93870293  0.94085937  0.18868332  1
  Zn  Zn133  1  0.93812156  0.93853504  0.68518737  1
  Zn  Zn134  1  0.07262798  0.05037309  0.31452569  1
  Zn  Zn135  1  0.05847385  0.06462024  0.81403073  1
  Zn  Zn136  1  0.06739627  0.69196331  0.31471376  1
  Zn  Zn137  1  0.10354543  0.55089170  0.84824500  1
  Zn  Zn138  1  0.55891658  0.06134055  0.18909762  1
  Zn  Zn139  1  0.55885344  0.06311955  0.80880734  1
  Zn  Zn140  1  0.55420693  0.56145093  0.31576880  1
  Zn  Zn141  1  0.56527497  0.55332367  0.81168079  1
  Zn  Zn142  1  0.44113516  0.19855777  0.44623227  1
  Zn  Zn143  1  0.43836907  0.18898940  0.93496767  1
  Zn  Zn144  1  0.42864302  0.69102744  0.44396341  1
  Zn  Zn145  1  0.44707494  0.68145083  0.93660908  1
  Zn  Zn146  1  0.94443076  0.18855440  0.43358572  1
  Zn  Zn147  1  0.92881266  0.18985888  0.93809151  1
  Zn  Zn148  1  0.93177998  0.68698683  0.44348106  1
  Zn  Zn149  1  0.92879976  0.69620107  0.94034336  1
  Zn  Zn150  1  0.06104786  0.31062068  0.06850884  1
  Zn  Zn151  1  0.05992966  0.31416831  0.56228637  1
  Zn  Zn152  1  0.06204187  0.80349936  0.06123350  1
  Zn  Zn153  1  0.06738855  0.82029392  0.56456366  1
  Zn  Zn154  1  0.56554875  0.19937316  0.06161517  1
  Zn  Zn155  1  0.55943404  0.31650023  0.56313739  1
  Zn  Zn156  1  0.56569758  0.80718504  0.07154912  1
  Zn  Zn157  1  0.54473488  0.80871494  0.56584754  1
  O  O158  1  0.10885638  0.13181404  0.11266246  1
  O  O159  1  0.12548483  0.11777046  0.61234969  1
  O  O160  1  0.10339977  0.62702557  0.12604370  1
  O  O161  1  0.11566120  0.61964107  0.61567798  1
  O  O162  1  0.63104681  0.13196882  0.13070156  1
  O  O163  1  0.62134644  0.12226125  0.61840646  1
  O  O164  1  0.62176309  0.61832762  0.12935361  1
  O  O165  1  0.62253802  0.61997470  0.62952891  1
  O  O166  1  0.37577946  0.37953521  0.38349276  1
  O  O167  1  0.37629861  0.37347746  0.89463966  1
  O  O168  1  0.39130551  0.87215015  0.38910719  1
  O  O169  1  0.38882874  0.88249868  0.87680084  1
  O  O170  1  0.87412354  0.38536639  0.38223692  1
  O  O171  1  0.87798241  0.37139964  0.88902582  1
  O  O172  1  0.88301121  0.88205911  0.38607535  1
  O  O173  1  0.88466560  0.89451260  0.86854391  1
  O  O174  1  0.24564765  -0.00030094  0.35792381  1
  O  O175  1  0.25903640  0.00706928  0.86837713  1
  O  O176  1  0.25775054  0.50755370  0.37568223  1
  O  O177  1  0.26889459  0.48751656  0.86038098  1
  O  O178  1  0.75595460  0.00642266  0.37271099  1
  O  O179  1  0.76283396  -0.00433981  0.86296085  1
  O  O180  1  0.75860130  0.50898102  0.37269776  1
  O  O181  1  0.75742502  0.49684314  0.86147833  1
  O  O182  1  0.23868259  0.48663172  0.10843483  1
  O  O183  1  0.25306145  0.49871933  0.64202426  1
  O  O184  1  0.24268841  0.99309684  0.13280820  1
  O  O185  1  0.24233078  1.00894909  0.63856675  1
  O  O186  1  0.76089253  0.49345469  0.13891716  1
  O  O187  1  0.75417919  0.48784758  0.62736093  1
  O  O188  1  0.76236648  0.99728424  0.14890857  1
  O  O189  1  0.74106162  0.99374255  0.62923206  1
  O  O190  1  0.01371454  0.38599104  0.24828314  1
  O  O191  1  0.00817333  0.36364757  0.74894602  1
  O  O192  1  -0.00008643  0.87965076  0.27102697  1
  O  O193  1  0.01037622  0.88444093  0.75399848  1
  O  O194  1  0.49613675  0.37417056  0.26310075  1
  O  O195  1  0.51262814  0.36603374  0.73796428  1
  O  O196  1  0.50434867  0.85421235  0.24658788  1
  O  O197  1  0.51155288  0.87817596  0.75790866  1
  O  O198  1  0.50397197  0.14018170  0.25519328  1
  O  O199  1  0.49506076  0.13746931  0.74099314  1
  O  O200  1  0.49191485  0.62914650  0.24310355  1
  O  O201  1  0.49088792  0.61796068  0.75372228  1
  O  O202  1  1.00374955  0.12193484  0.24635146  1
  O  O203  1  0.98900773  0.13787925  0.75121550  1
  O  O204  1  0.98491440  0.62965740  0.26061955  1
  O  O205  1  0.98428570  0.63016577  0.73305827  1
  O  O206  1  0.37147744  0.25968013  0.01077544  1
  O  O207  1  0.37225759  0.26501608  0.50639816  1
  O  O208  1  0.38204359  0.76049161  -0.01090177  1
  O  O209  1  0.37286695  0.75062389  0.52303883  1
  O  O210  1  0.86568182  0.25861608  0.00709198  1
  O  O211  1  0.87274275  0.25450567  0.50590824  1
  O  O212  1  0.85778630  0.74072320  0.01839838  1
  O  O213  1  0.86517606  0.76437966  0.49949025  1
  O  O214  1  0.12338116  0.23767631  0.50406719  1
  O  O215  1  0.13031738  0.24297461  0.99548009  1
  O  O216  1  0.12964364  0.73930712  0.50886775  1
  O  O217  1  0.11714828  0.73897715  0.98287217  1
  O  O218  1  0.63042253  0.24457069  0.49652049  1
  O  O219  1  0.64180127  0.25566731  0.99125575  1
  O  O220  1  0.62924294  0.76429958  0.49923583  1
  O  O221  1  0.63700221  0.73501569  1.00679782  1
  O  O222  1  0.48657069  0.25289638  0.13434862  1
  O  O223  1  0.49342159  0.24310599  0.63186916  1
  O  O224  1  0.50420151  0.72895543  0.13822799  1
  O  O225  1  0.48423131  0.74274196  0.63921021  1
  O  O226  1  0.98899585  0.24099858  0.12705387  1
  O  O227  1  0.98669180  0.25532217  0.63437268  1
  O  O228  1  0.98167166  0.73815675  0.11988231  1
  O  O229  1  1.00135019  0.73946371  0.61688021  1
  O  O230  1  0.01883719  0.25661160  0.38170464  1
  O  O231  1  0.00790541  0.24514224  0.86712443  1
  O  O232  1  -0.00281334  0.76109159  0.38240973  1
  O  O233  1  -0.01863165  0.77331904  0.87095959  1
  O  O234  1  0.50197220  0.25949079  0.36956672  1
  O  O235  1  0.50723041  0.25098431  0.86032226  1
  O  O236  1  0.49915063  0.73466514  0.36309186  1
  O  O237  1  0.49956639  0.76429979  0.86792210  1
  O  O238  1  0.23267986  0.11771633  0.49108049  1
  O  O239  1  0.24457150  0.13602316  1.00005452  1
  O  O240  1  0.23987312  0.61866117  0.49355291  1
  O  O241  1  0.23791504  0.62178379  0.98682694  1
  O  O242  1  0.74339809  0.13076745  0.49602247  1
  O  O243  1  0.75815543  0.14263021  1.00524584  1
  O  O244  1  0.74782715  0.64446013  0.49592609  1
  O  O245  1  0.73913874  0.63177367  1.00228312  1
  O  O246  1  0.25286609  0.35909883  0.00980613  1
  O  O247  1  0.25716152  0.38096380  0.49558005  1
  O  O248  1  0.26736966  0.87656727  -0.00801344  1
  O  O249  1  0.27690886  0.88744882  0.50694106  1
  O  O250  1  0.76044018  0.36754254  0.00830282  1
  O  O251  1  0.75449973  0.37064297  0.50523419  1
  O  O252  1  0.74322876  0.85663356  0.01145753  1
  O  O253  1  0.75249463  0.86933178  0.50344583  1
  O  O254  1  0.13112423  0.49398659  0.24641616  1
  O  O255  1  0.14299511  0.48439963  0.75603608  1
  O  O256  1  0.13418691  0.98625664  0.24477034  1
  O  O257  1  0.13013804  1.00326615  0.74311251  1
  O  O258  1  0.63768993  0.49865434  0.25945566  1
  O  O259  1  0.64134343  0.48788988  0.75497087  1
  O  O260  1  0.63607290  0.99338380  0.25154957  1
  O  O261  1  0.63532517  0.99649596  0.74240673  1
  O  O262  1  0.36184027  -0.00846963  0.24023042  1
  O  O263  1  0.36836815  0.00617455  0.75667139  1
  O  O264  1  0.37792321  0.51680887  0.26199408  1
  O  O265  1  0.37495133  0.49021298  0.76039833  1
  O  O266  1  0.86533560  -0.00829702  0.26814553  1
  O  O267  1  0.86822353  0.01080556  0.74394718  1
  O  O268  1  0.86672717  0.50786025  0.26135152  1
  O  O269  1  0.86623581  0.50663537  0.74496240  1
  O  O270  1  0.12803332  0.36606425  0.35647406  1
  O  O271  1  0.13400196  0.35828148  0.86311658  1
  O  O272  1  0.10988360  0.87659234  0.38692241  1
  O  O273  1  0.10746516  0.88757731  0.86364798  1
  O  O274  1  0.61438524  0.36891758  0.37579758  1
  O  O275  1  0.63493702  0.36210990  0.86112375  1
  O  O276  1  0.61956102  0.88210463  0.35845080  1
  O  O277  1  0.61421201  0.88213245  0.86564427  1
  O  O278  1  0.37031060  0.14024123  0.12087360  1
  O  O279  1  0.38203425  0.13337801  0.62718219  1
  O  O280  1  0.36885901  0.61706302  0.13764697  1
  O  O281  1  0.38476776  0.62437636  0.64192113  1
  O  O282  1  0.88567545  0.14072463  0.13148255  1
  O  O283  1  0.86884350  0.13679409  0.63223536  1
  O  O284  1  0.88331125  0.62888110  0.13628851  1
  O  O285  1  0.88612016  0.62728149  0.61909325  1
  O  O286  1  0.25992772  0.25650929  0.12093692  1
  O  O287  1  0.26122691  0.24312409  0.63208799  1
  O  O288  1  0.24383300  0.74911468  0.08741082  1
  O  O289  1  0.26238402  0.72215868  0.63958311  1
  O  O290  1  0.76134223  0.25912043  0.11918427  1
  O  O291  1  0.76008775  0.25898525  0.62071581  1
  O  O292  1  0.76081847  0.74994540  0.12322673  1
  O  O293  1  0.74317628  0.76387157  0.61120559  1
  O  O294  1  0.23263285  0.24299882  0.36931259  1
  O  O295  1  0.24389925  0.24338721  0.88490175  1
  O  O296  1  0.25997073  0.73972144  0.38093225  1
  O  O297  1  0.25011514  0.75454896  0.89129770  1
  O  O298  1  0.74703960  0.24409523  0.38011600  1
  O  O299  1  0.74805480  0.25160364  0.88833848  1
  O  O300  1  0.74911753  0.74731964  0.38867113  1
  O  O301  1  0.75860995  0.75712306  0.89275523  1
  O  O302  1  0.00847361  0.12769300  -0.00227098  1
  O  O303  1  0.01289504  0.11384388  0.49352345  1
  O  O304  1  -0.00949132  0.62488750  0.00665696  1
  O  O305  1  0.01005785  0.62203452  0.50542642  1
  O  O306  1  0.50695906  0.12912113  -0.00359194  1
  O  O307  1  0.51154139  0.13423796  0.51114435  1
  O  O308  1  0.51851058  0.62929039  0.01387882  1
  O  O309  1  0.48991245  0.60848283  0.49835461  1
  O  O310  1  0.49203763  0.38103471  0.48880577  1
  O  O311  1  0.49098939  0.37500656  1.01185355  1
  O  O312  1  0.46367210  0.88675380  0.54849822  1
  O  O313  1  0.49909661  0.87333838  0.98581034  1
  O  O314  1  0.99405248  0.38605392  0.49890150  1
  O  O315  1  0.98644947  0.36990288  1.00820008  1
  O  O316  1  0.99277843  0.88316162  0.49642497  1
  O  O317  1  1.00220087  0.87787849  0.98698435  1
  O  O318  1  0.48572891  0.49398465  0.38286077  1
  O  O319  1  0.49022350  0.48422211  0.87156976  1
  O  O320  1  0.42031498  1.06261772  0.35689496  1
  O  O321  1  0.49420129  0.99329650  0.87415336  1
  O  O322  1  0.98400598  0.50134771  0.38873657  1
  O  O323  1  1.05642461  0.49772110  0.93401412  1
  O  O324  1  0.99393915  0.99167634  0.38588336  1
  O  O325  1  0.98777103  0.99646342  0.87502443  1
  O  O326  1  -0.00248155  0.01782005  0.12799879  1
  O  O327  1  0.00773927  -0.00045334  0.61354409  1
  O  O328  1  -0.00248080  0.51729913  0.12477079  1
  O  O329  1  0.00011471  0.50882820  0.61382098  1
  O  O330  1  0.50515428  -0.00546146  0.11931141  1
  O  O331  1  0.51111926  0.01677407  0.63903592  1
  O  O332  1  0.49897019  0.51510166  0.13076554  1
  O  O333  1  0.49697058  0.49640738  0.60715525  1
  O  O334  1  0.23913875  0.37224904  0.23756602  1
  O  O335  1  0.24750487  0.37528586  0.74876801  1
  O  O336  1  0.25324828  0.87976314  0.24348829  1
  O  O337  1  0.23288475  0.89119260  0.76592047  1
  O  O338  1  0.74809395  0.38498952  0.24328703  1
  O  O339  1  0.74961799  0.38403530  0.74238905  1
  O  O340  1  0.74040760  0.88411984  0.25820954  1
  O  O341  1  0.74706243  0.88567138  0.74182092  1
  O  O342  1  0.24741622  0.10778287  0.24893786  1
  O  O343  1  0.25374137  0.11810276  0.75827438  1
  O  O344  1  0.26007244  0.63277399  0.26095438  1
  O  O345  1  0.27406269  0.59910697  0.75482069  1
  O  O346  1  0.74455904  0.11331297  0.26593364  1
  O  O347  1  0.75815223  0.11503390  0.74534404  1
  O  O348  1  0.75788805  0.61928721  0.25947618  1
  O  O349  1  0.76083971  0.61046619  0.74402284  1
  O  O350  1  0.37966229  0.12450199  0.37443522  1
  O  O351  1  0.37040169  0.12067981  0.86851613  1
  O  O352  1  0.36091060  0.61921018  0.37553628  1
  O  O353  1  0.38753287  0.60286741  0.87151574  1
  O  O354  1  0.86548957  0.11662438  0.38634537  1
  O  O355  1  0.87499210  0.11470617  0.86403421  1
  O  O356  1  0.86399562  0.62106309  0.37392720  1
  O  O357  1  0.88539949  0.62736134  0.85816770  1
  O  O358  1  0.12882190  0.37647141  0.13502109  1
  O  O359  1  0.12290410  0.37618279  0.63780118  1
  O  O360  1  0.12466100  0.87325753  0.12233573  1
  O  O361  1  0.12301966  0.89317408  0.63622127  1
  O  O362  1  0.64115740  0.37935564  0.12304554  1
  O  O363  1  0.63783746  0.36591207  0.63419720  1
  O  O364  1  0.62854070  0.86936929  0.14761058  1
  O  O365  1  0.62992388  0.88598717  0.63089665  1
  O  O366  1  0.12166779  0.24529561  0.25339121  1
  O  O367  1  0.11695383  0.25086082  0.75633640  1
  O  O368  1  0.13553305  0.75273614  0.25321781  1
  O  O369  1  0.12442535  0.77682963  0.73550580  1
  O  O370  1  0.61567012  0.25824996  0.25759108  1
  O  O371  1  0.62124102  0.25922177  0.75329066  1
  O  O372  1  0.61687372  0.75416281  0.25672908  1
  O  O373  1  0.63352902  0.76725822  0.74638484  1
  O  O374  1  0.37909967  0.25595274  0.23802334  1
  O  O375  1  0.38230139  0.24839436  0.74389131  1
  O  O376  1  0.38558811  0.73543943  0.25443424  1
  O  O377  1  0.37216411  0.72619895  0.76323691  1
  O  O378  1  0.87230126  0.25665356  0.24051206  1
  O  O379  1  0.87814561  0.24518941  0.74564219  1
  O  O380  1  0.86420016  0.74073173  0.24112223  1
  O  O381  1  0.85732050  0.73456963  0.74581924  1
  O  O382  1  0.37777195  0.48768512  0.49460313  1
  O  O383  1  0.37320950  0.48623963  0.99070949  1
  O  O384  1  0.37968054  1.00724751  0.49137273  1
  O  O385  1  0.37544659  0.99468254  0.98516859  1
  O  O386  1  0.87713268  0.49814568  0.49567243  1
  O  O387  1  0.87013729  0.48513566  1.00341887  1
  O  O388  1  0.88081376  0.99314891  0.49399902  1
  O  O389  1  0.86744175  1.00733338  0.98721654  1
  O  O390  1  0.13082055  0.01840910  -0.00135351  1
  O  O391  1  0.11974554  0.00420490  0.50752531  1
  O  O392  1  0.12173103  0.48959582  -0.01382742  1
  O  O393  1  0.11488067  0.50483700  0.49986641  1
  O  O394  1  0.64550106  0.01439646  -0.01328124  1
  O  O395  1  0.62973601  0.01043091  0.51120152  1
  O  O396  1  0.63253408  0.51176179  -0.00638555  1
  O  O397  1  0.60854056  0.49756514  0.49121251  1
  O  O398  1  0.36648707  0.37491200  0.11585465  1
  O  O399  1  0.37459300  0.36849687  0.61053140  1
  O  O400  1  0.37715164  0.87145804  0.10233478  1
  O  O401  1  0.35761133  0.84556646  0.66492763  1
  O  O402  1  0.86917502  0.36520060  0.12052208  1
  O  O403  1  0.86784624  0.36712207  0.62014113  1
  O  O404  1  0.87576010  0.86013751  0.13550254  1
  O  O405  1  0.86158277  0.88515677  0.61619024  1
  O  O406  1  0.12156058  0.13541894  0.38250250  1
  O  O407  1  0.12811608  0.13369005  0.88548851  1
  O  O408  1  0.13737120  0.63080234  0.38977837  1
  O  O409  1  0.13399142  0.64581331  0.80933309  1
  O  O410  1  0.63638391  0.13283293  0.38878670  1
  O  O411  1  0.62801195  0.14399224  0.85807840  1
  O  O412  1  0.63691455  0.62231519  0.37050864  1
  O  O413  1  0.62006333  0.62685989  0.88414247  1
