# generated using pymatgen
data_V79Zn79O256
_symmetry_space_group_name_H-M   'P 1'
_cell_length_a   16.90244901
_cell_length_b   16.91234388
_cell_length_c   16.89093055
_cell_angle_alpha   89.97055807
_cell_angle_beta   89.72770150
_cell_angle_gamma   90.05331697
_symmetry_Int_Tables_number   1
_chemical_formula_structural   V79Zn79O256
_chemical_formula_sum   'V79 Zn79 O256'
_cell_volume   4828.38464833
_cell_formula_units_Z   1
loop_
 _symmetry_equiv_pos_site_id
 _symmetry_equiv_pos_as_xyz
  1  'x, y, z'
loop_
 _atom_site_type_symbol
 _atom_site_label
 _atom_site_symmetry_multiplicity
 _atom_site_fract_x
 _atom_site_fract_y
 _atom_site_fract_z
 _atom_site_occupancy
  V  V0  1  0.63259510  0.49437692  0.62535913  1
  V  V1  1  0.38296134  0.61923465  0.74060946  1
  V  V2  1  0.49990197  -0.00377894  0.50041935  1
  V  V3  1  -0.00559894  0.75412376  0.74571918  1
  V  V4  1  0.12143562  0.77812609  0.38139554  1
  V  V5  1  0.73634697  -0.01533185  0.25687980  1
  V  V6  1  0.11282047  0.51115947  0.11561030  1
  V  V7  1  -0.01149997  -0.00690428  0.50817122  1
  V  V8  1  0.87007099  0.25185636  0.12494247  1
  V  V9  1  0.87793112  0.37322328  0.00059893  1
  V  V10  1  0.64844529  0.50242101  0.12878111  1
  V  V11  1  0.62440652  0.25373077  0.37761298  1
  V  V12  1  0.89246433  0.62663119  0.24816341  1
  V  V13  1  0.76565458  0.75073458  0.50398237  1
  V  V14  1  0.87493790  0.12489122  0.74664792  1
  V  V15  1  0.12237350  0.37000027  0.25997781  1
  V  V16  1  0.88051012  0.62760602  0.73166447  1
  V  V17  1  0.37004702  0.12885616  0.76257402  1
  V  V18  1  0.49903954  0.37589630  0.37491043  1
  V  V19  1  0.25197251  0.37099820  0.12691633  1
  V  V20  1  0.24148163  0.63525086  0.38688303  1
  V  V21  1  0.00463875  0.37735383  0.87722686  1
  V  V22  1  0.62370139  0.12603589  0.50450915  1
  V  V23  1  0.13378571  -0.00061934  0.61951551  1
  V  V24  1  0.74583915  0.25142380  0.00241537  1
  V  V25  1  0.50011760  0.73987474  0.73905272  1
  V  V26  1  0.87063952  0.26544184  0.63018549  1
  V  V27  1  0.37692212  0.49945682  0.87605476  1
  V  V28  1  0.24393075  -0.00378809  0.76103304  1
  V  V29  1  0.76028609  0.87079645  0.62283270  1
  V  V30  1  0.37546515  0.36892861  0.00716991  1
  V  V31  1  0.23907066  0.23226380  0.49536546  1
  V  V32  1  0.75017400  0.62715592  0.86670435  1
  V  V33  1  0.50489936  0.49995512  0.00177149  1
  V  V34  1  0.63247034  0.37171810  0.74899941  1
  V  V35  1  0.61637234  0.87215734  0.75071084  1
  V  V36  1  0.37554485  0.01258171  0.36232897  1
  V  V37  1  0.35509562  0.87843227  0.50100465  1
  V  V38  1  0.74842808  -0.00428315  0.74964986  1
  V  V39  1  0.61988392  0.62641726  0.50496614  1
  V  V40  1  0.00304355  0.24944782  0.26072952  1
  V  V41  1  0.11638252  0.87034990  0.76190902  1
  V  V42  1  0.23373568  0.62174377  0.88031474  1
  V  V43  1  0.50185151  0.36782906  0.87175333  1
  V  V44  1  0.36725152  0.25002231  0.62700818  1
  V  V45  1  0.24794956  0.50174753  0.24936948  1
  V  V46  1  0.74962289  0.26094512  0.50846025  1
  V  V47  1  0.37323660  0.50142990  0.37623225  1
  V  V48  1  0.25152479  0.49376881  0.74252374  1
  V  V49  1  0.00508418  0.24798876  0.75496129  1
  V  V50  1  0.50369994  0.75470218  0.25080143  1
  V  V51  1  0.23911807  0.24652017  -0.00766549  1
  V  V52  1  0.74635218  0.87106204  0.11291051  1
  V  V53  1  0.00051891  0.12709571  0.11308327  1
  V  V54  1  0.38290953  -0.03000296  0.87394757  1
  V  V55  1  0.12849329  0.37260729  0.74545436  1
  V  V56  1  0.87528549  -0.01467709  0.88156160  1
  V  V57  1  0.62068491  0.24448474  0.87551667  1
  V  V58  1  0.75534821  0.62152825  0.36744155  1
  V  V59  1  -0.00354214  -0.01550348  -0.00415541  1
  V  V60  1  0.75248165  0.12466635  0.37648856  1
  V  V61  1  0.25079358  0.87946068  0.14225951  1
  V  V62  1  0.36396462  0.37349822  0.50449150  1
  V  V63  1  0.63791042  0.38338296  0.24691647  1
  V  V64  1  0.50150432  0.62293156  0.12443241  1
  V  V65  1  0.49586841  0.25106622  0.23380869  1
  V  V66  1  0.88627595  0.51749666  0.89346996  1
  V  V67  1  0.87599250  -0.01892863  0.38103805  1
  V  V68  1  0.49662386  0.12884224  0.63272842  1
  V  V69  1  0.63661799  0.62677931  -0.00059574  1
  V  V70  1  0.74601538  0.12372690  0.87874294  1
  V  V71  1  -0.00075879  0.50663956  0.48622900  1
  V  V72  1  0.37428032  0.62983521  0.24811259  1
  V  V73  1  0.62069033  0.74909464  0.87480743  1
  V  V74  1  0.49891769  0.50361517  0.50742457  1
  V  V75  1  0.62261988  0.75538389  0.37353824  1
  V  V76  1  0.24528888  0.75762205  -0.00837395  1
  V  V77  1  0.11594976  0.51363855  0.62316760  1
  V  V78  1  0.88594980  0.75776405  0.11749358  1
  Zn  Zn79  1  0.76151355  0.49373940  0.74310705  1
  Zn  Zn80  1  0.37962588  0.12752450  0.22027753  1
  Zn  Zn81  1  0.89445305  0.36702703  0.48287463  1
  Zn  Zn82  1  0.37903880  0.75858356  0.10919162  1
  Zn  Zn83  1  0.36419746  0.75180527  0.61194873  1
  Zn  Zn84  1  0.62328428  -0.00297206  0.62782765  1
  Zn  Zn85  1  0.12856978  -0.00719111  0.12526955  1
  Zn  Zn86  1  0.56596537  0.08169494  0.08124486  1
  Zn  Zn87  1  0.12844043  0.12608177  -0.02651803  1
  Zn  Zn88  1  0.01115769  0.13536537  0.61168194  1
  Zn  Zn89  1  0.87580614  0.48733369  0.36315343  1
  Zn  Zn90  1  0.87236750  0.12281938  0.24980922  1
  Zn  Zn91  1  0.01218454  0.77136712  0.25300149  1
  Zn  Zn92  1  0.22968872  0.13216633  0.34367800  1
  Zn  Zn93  1  0.50257823  0.88054477  0.36807399  1
  Zn  Zn94  1  0.18659835  0.18397410  0.17707992  1
  Zn  Zn95  1  0.18797070  0.18150236  0.69141465  1
  Zn  Zn96  1  0.18390180  0.69772080  0.18670178  1
  Zn  Zn97  1  0.19029401  0.69140883  0.68693388  1
  Zn  Zn98  1  0.68052455  0.19136951  0.19391009  1
  Zn  Zn99  1  0.68709529  0.18812921  0.69109775  1
  Zn  Zn100  1  0.69290996  0.69252947  0.18501860  1
  Zn  Zn101  1  0.68797089  0.68446261  0.68418196  1
  Zn  Zn102  1  0.30986030  0.30727587  0.31389838  1
  Zn  Zn103  1  0.31172747  0.31126287  0.81553834  1
  Zn  Zn104  1  0.31461091  0.81774177  0.32147721  1
  Zn  Zn105  1  0.30100756  0.79848571  0.78824234  1
  Zn  Zn106  1  0.81484101  0.30741565  0.31420118  1
  Zn  Zn107  1  0.81521244  0.31447650  0.81916220  1
  Zn  Zn108  1  0.81469504  0.80328710  0.31143924  1
  Zn  Zn109  1  0.80960727  0.80749745  0.80664563  1
  Zn  Zn110  1  0.18285705  0.44062569  0.44038389  1
  Zn  Zn111  1  0.18605334  0.43646788  0.93708265  1
  Zn  Zn112  1  0.17136008  0.97580335  0.41497342  1
  Zn  Zn113  1  0.18262176  0.93975971  0.93948332  1
  Zn  Zn114  1  0.68777517  0.44042600  0.43466330  1
  Zn  Zn115  1  0.69498884  0.43960336  0.93601152  1
  Zn  Zn116  1  0.68715918  0.93479022  0.44244701  1
  Zn  Zn117  1  0.68173710  0.93500284  0.93508013  1
  Zn  Zn118  1  0.31090524  0.05179995  0.04868738  1
  Zn  Zn119  1  0.31369248  0.05964056  0.56417547  1
  Zn  Zn120  1  0.31153394  0.56205585  0.06247307  1
  Zn  Zn121  1  0.30909536  0.56017129  0.56397684  1
  Zn  Zn122  1  0.77182288  0.07877267  0.08675329  1
  Zn  Zn123  1  0.81093275  0.06318292  0.56525016  1
  Zn  Zn124  1  0.83416034  0.57621187  0.05753375  1
  Zn  Zn125  1  0.81353459  0.55648920  0.55037858  1
  Zn  Zn126  1  0.44156310  0.44001863  0.18811082  1
  Zn  Zn127  1  0.44207696  0.43138763  0.68745645  1
  Zn  Zn128  1  0.43172706  0.93398374  0.17848988  1
  Zn  Zn129  1  0.43375517  0.93771486  0.68701106  1
  Zn  Zn130  1  0.93625504  0.43684522  0.18962668  1
  Zn  Zn131  1  0.94191593  0.44166881  0.69346826  1
  Zn  Zn132  1  0.91958296  0.94845254  0.18160922  1
  Zn  Zn133  1  0.93999328  0.93729062  0.68932401  1
  Zn  Zn134  1  0.04943635  0.05822367  0.30739747  1
  Zn  Zn135  1  0.05966533  0.06288799  0.81339794  1
  Zn  Zn136  1  0.06887574  0.56452432  0.30915692  1
  Zn  Zn137  1  0.05745600  0.56321442  0.80458768  1
  Zn  Zn138  1  0.55788137  0.06971848  0.31181784  1
  Zn  Zn139  1  0.55767646  0.05816331  0.81687566  1
  Zn  Zn140  1  0.56537958  0.56510406  0.31322505  1
  Zn  Zn141  1  0.56364052  0.55771522  0.81085756  1
  Zn  Zn142  1  0.43610554  0.19036033  0.44071769  1
  Zn  Zn143  1  0.43331162  0.18437292  0.94986392  1
  Zn  Zn144  1  0.43261748  0.69092995  0.43715392  1
  Zn  Zn145  1  0.43711906  0.68983031  0.93335425  1
  Zn  Zn146  1  0.93698607  0.18135244  0.44474920  1
  Zn  Zn147  1  0.93310364  0.18640955  0.93298936  1
  Zn  Zn148  1  0.95281585  0.69161931  0.43669348  1
  Zn  Zn149  1  0.93897629  0.69327897  0.92713499  1
  Zn  Zn150  1  0.06330008  0.32045034  0.06853086  1
  Zn  Zn151  1  0.06413448  0.31991528  0.56596918  1
  Zn  Zn152  1  0.07211518  0.80403061  0.06181384  1
  Zn  Zn153  1  0.06751015  0.81475358  0.56572203  1
  Zn  Zn154  1  0.57294047  0.32175286  0.06066549  1
  Zn  Zn155  1  0.55657651  0.31319275  0.56604501  1
  Zn  Zn156  1  0.57954162  0.80152912  0.07520920  1
  Zn  Zn157  1  0.56293101  0.81105243  0.56612490  1
  O  O158  1  0.10569697  0.11503226  0.12541187  1
  O  O159  1  0.11924980  0.10556143  0.63962038  1
  O  O160  1  0.13279049  0.60945994  0.13182999  1
  O  O161  1  0.13239788  0.61248296  0.63389775  1
  O  O162  1  0.66262173  0.11531130  0.11520436  1
  O  O163  1  0.61602221  0.12674463  0.62048182  1
  O  O164  1  0.62375180  0.62253748  0.11729146  1
  O  O165  1  0.62712207  0.61430762  0.61153877  1
  O  O166  1  0.38186382  0.38003540  0.38288472  1
  O  O167  1  0.38313527  0.38098205  0.88173735  1
  O  O168  1  0.38373826  0.88842430  0.38455545  1
  O  O169  1  0.36779998  0.87307907  0.85312789  1
  O  O170  1  0.87779769  0.37552834  0.37156904  1
  O  O171  1  0.88397120  0.38642244  0.88178413  1
  O  O172  1  0.86949613  0.88280958  0.37764434  1
  O  O173  1  0.86493679  0.88682289  0.87013399  1
  O  O174  1  0.27602835  0.00227501  0.36653783  1
  O  O175  1  0.25443780  0.00029240  0.86357794  1
  O  O176  1  0.25409746  0.50632668  0.36638073  1
  O  O177  1  0.26009510  0.50197474  0.86889122  1
  O  O178  1  0.75534984  0.00377995  0.37536738  1
  O  O179  1  0.75570065  0.00536652  0.87272523  1
  O  O180  1  0.75378179  0.51902037  0.38275889  1
  O  O181  1  0.76565668  0.51256824  0.87586010  1
  O  O182  1  0.24725313  0.49305546  0.13647702  1
  O  O183  1  0.24335698  0.49928994  0.63690104  1
  O  O184  1  0.24821503  0.98657422  0.11990733  1
  O  O185  1  0.23846681  1.00286228  0.63389265  1
  O  O186  1  0.74596714  0.51615140  0.12389596  1
  O  O187  1  0.73613268  0.49626262  0.61901364  1
  O  O188  1  0.76329832  0.98183826  0.14838755  1
  O  O189  1  0.74599269  0.99153749  0.63147640  1
  O  O190  1  0.00656276  0.35744899  0.24412610  1
  O  O191  1  0.00745964  0.36689664  0.75702122  1
  O  O192  1  0.01571014  0.90775691  0.23480744  1
  O  O193  1  0.00324011  0.86697547  0.75360589  1
  O  O194  1  0.50671105  0.37177506  0.26004692  1
  O  O195  1  0.50882698  0.37525386  0.76531256  1
  O  O196  1  0.49330095  0.85752932  0.24728763  1
  O  O197  1  0.51096423  0.86405810  0.74114021  1
  O  O198  1  0.50522480  0.14546291  0.24307268  1
  O  O199  1  0.48490262  0.11677450  0.74131553  1
  O  O200  1  0.49238871  0.62952215  0.24612712  1
  O  O201  1  0.49647057  0.62492333  0.74739347  1
  O  O202  1  0.99388263  0.13323073  0.23598759  1
  O  O203  1  0.98697099  0.13336461  0.75117957  1
  O  O204  1  0.99255939  0.63159335  0.25672507  1
  O  O205  1  0.98646313  0.63196274  0.74397271  1
  O  O206  1  0.36444514  0.26450435  -0.00060282  1
  O  O207  1  0.36421565  0.25544510  0.50635933  1
  O  O208  1  0.35752405  0.73306920  -0.00112468  1
  O  O209  1  0.37606308  0.77052376  0.49630710  1
  O  O210  1  0.86702627  0.25502306  0.00371510  1
  O  O211  1  0.86781120  0.25184522  0.51260884  1
  O  O212  1  0.88827879  0.74345426  0.01817224  1
  O  O213  1  0.86322535  0.74419128  0.49530824  1
  O  O214  1  0.14228743  0.25463833  0.51308229  1
  O  O215  1  0.13610177  0.25460310  1.00581888  1
  O  O216  1  0.12406154  0.75990249  0.48316182  1
  O  O217  1  0.14479594  0.73983592  1.00123730  1
  O  O218  1  0.62882702  0.24376532  0.50010661  1
  O  O219  1  0.63347870  0.25312027  0.98924353  1
  O  O220  1  0.62190131  0.73921916  0.49313341  1
  O  O221  1  0.61918730  0.73840771  0.98910324  1
  O  O222  1  0.50613319  0.26447745  0.13538934  1
  O  O223  1  0.48526892  0.23726025  0.61815868  1
  O  O224  1  0.49854858  0.74180792  0.13151012  1
  O  O225  1  0.49016158  0.75000360  0.63524470  1
  O  O226  1  0.99223507  0.23816194  0.12545167  1
  O  O227  1  0.98897641  0.25001130  0.63573450  1
  O  O228  1  0.99086136  0.76682362  0.13558439  1
  O  O229  1  1.00878576  0.75305779  0.64326086  1
  O  O230  1  -0.00548993  0.23750608  0.35869606  1
  O  O231  1  -0.01029752  0.26166234  0.86239881  1
  O  O232  1  0.01320947  0.76242417  0.37278622  1
  O  O233  1  0.00203790  0.74157250  0.85087128  1
  O  O234  1  0.50549091  0.26249275  0.37603020  1
  O  O235  1  0.50822637  0.25566739  0.88894446  1
  O  O236  1  0.50724295  0.74824791  0.36705489  1
  O  O237  1  0.51537964  0.74095306  0.86379646  1
  O  O238  1  0.24890521  0.13166651  0.50031413  1
  O  O239  1  0.24536212  0.14265411  1.01160951  1
  O  O240  1  0.26014054  0.62396800  0.48541167  1
  O  O241  1  0.25060596  0.61549178  0.98236113  1
  O  O242  1  0.73962203  0.13141461  0.49752423  1
  O  O243  1  0.75836524  0.13422905  0.98468610  1
  O  O244  1  0.74296973  0.63633352  0.49297690  1
  O  O245  1  0.74161929  0.62422283  0.98909604  1
  O  O246  1  0.25700759  0.37126095  0.00724694  1
  O  O247  1  0.26199231  0.37228856  0.49455385  1
  O  O248  1  0.24946522  0.85792835  -0.01652563  1
  O  O249  1  0.25914268  0.89127781  0.49238363  1
  O  O250  1  0.75849095  0.35686356  -0.01149342  1
  O  O251  1  0.74506970  0.36134892  0.49639954  1
  O  O252  1  0.74708209  0.88497539  0.01373225  1
  O  O253  1  0.74529658  0.85874533  0.50681901  1
  O  O254  1  0.13429593  0.49185982  0.24438377  1
  O  O255  1  0.13269488  0.49488751  0.74284975  1
  O  O256  1  0.07507929  0.96514272  0.23515773  1
  O  O257  1  0.13113085  0.99506293  0.74848292  1
  O  O258  1  0.62246189  0.49553413  0.24161833  1
  O  O259  1  0.62782714  0.49085914  0.74117339  1
  O  O260  1  0.63747228  1.00156437  0.26258952  1
  O  O261  1  0.63005012  0.98895197  0.75273162  1
  O  O262  1  0.40044620  0.01003578  0.25828296  1
  O  O263  1  0.36220996  0.00523117  0.75498526  1
  O  O264  1  0.36849890  0.50697137  0.25574425  1
  O  O265  1  0.37258952  0.49799105  0.75498734  1
  O  O266  1  0.86286256  0.00380153  0.26942936  1
  O  O267  1  0.86959967  0.00631759  0.75991698  1
  O  O268  1  0.88041135  0.51984792  0.24936929  1
  O  O269  1  0.87795633  0.51438518  0.75969486  1
  O  O270  1  0.13043616  0.37813313  0.35956312  1
  O  O271  1  0.11443826  0.38284677  0.86278695  1
  O  O272  1  0.13372728  0.87645870  0.37318351  1
  O  O273  1  0.11916045  0.88296972  0.86110667  1
  O  O274  1  0.61599569  0.37551276  0.36936494  1
  O  O275  1  0.61891128  0.36836044  0.87132180  1
  O  O276  1  0.62199633  0.85950212  0.38185932  1
  O  O277  1  0.63227174  0.86062158  0.86238229  1
  O  O278  1  0.40038006  0.10702146  0.10104190  1
  O  O279  1  0.38006436  0.12955649  0.63308718  1
  O  O280  1  0.38125479  0.62158497  0.13590238  1
  O  O281  1  0.37110953  0.62349549  0.63815803  1
  O  O282  1  0.87813965  0.13471550  0.12472760  1
  O  O283  1  0.87034378  0.13253168  0.63916224  1
  O  O284  1  0.87210572  0.64269075  0.14211876  1
  O  O285  1  0.86469773  0.61627810  0.63413410  1
  O  O286  1  0.24713450  0.26761142  0.11807859  1
  O  O287  1  0.26159867  0.24149254  0.61601748  1
  O  O288  1  0.25308892  0.76067553  0.11333925  1
  O  O289  1  0.27384907  0.76087759  0.67730012  1
  O  O290  1  0.75976524  0.24521907  0.11596015  1
  O  O291  1  0.75699402  0.24559257  0.61895773  1
  O  O292  1  0.76450204  0.76230939  0.12932550  1
  O  O293  1  0.74658709  0.75309873  0.61073235  1
  O  O294  1  0.25237288  0.24178527  0.38904432  1
  O  O295  1  0.24974704  0.25567883  0.89281474  1
  O  O296  1  0.24222560  0.74003679  0.37218163  1
  O  O297  1  0.25310261  0.72828204  0.87771042  1
  O  O298  1  0.74379977  0.24134066  0.38600747  1
  O  O299  1  0.74242694  0.24078805  0.88004697  1
  O  O300  1  0.74248165  0.74263037  0.38713038  1
  O  O301  1  0.73646309  0.73658638  0.86399693  1
  O  O302  1  0.00133102  0.12851500  0.00610665  1
  O  O303  1  -0.00286732  0.10716922  0.50158703  1
  O  O304  1  -0.07548781  0.58497223  -0.03134444  1
  O  O305  1  -0.00468002  0.60743640  0.50046372  1
  O  O306  1  0.46582165  0.12830105  0.04770753  1
  O  O307  1  0.50743918  0.11964493  0.50765611  1
  O  O308  1  0.51203463  0.61806578  0.00339710  1
  O  O309  1  0.50619482  0.61330413  0.49026094  1
  O  O310  1  0.49310909  0.38228424  0.49153794  1
  O  O311  1  0.49471073  0.38006031  0.99351678  1
  O  O312  1  0.50609272  0.89116838  0.50178588  1
  O  O313  1  0.53600727  0.93691987  1.03007222  1
  O  O314  1  1.00207144  0.39516804  0.51087511  1
  O  O315  1  0.99070244  0.36606800  0.98851798  1
  O  O316  1  0.99815886  0.89343740  0.50847979  1
  O  O317  1  1.00293186  0.88733450  1.00553427  1
  O  O318  1  0.49533560  0.49283373  0.38257416  1
  O  O319  1  0.49696512  0.48844818  0.88157117  1
  O  O320  1  0.49822008  1.00152223  0.38542439  1
  O  O321  1  0.48269321  0.98851389  0.86260548  1
  O  O322  1  1.00398362  0.50186547  0.38310692  1
  O  O323  1  0.99254571  0.48840443  0.86527982  1
  O  O324  1  0.97961449  1.00056149  0.38642994  1
  O  O325  1  0.98518895  1.00106292  0.88277650  1
  O  O326  1  -0.01775965  0.01513671  0.10515045  1
  O  O327  1  -0.00380714  0.00699917  0.61757175  1
  O  O328  1  0.01315073  0.49807796  0.12937667  1
  O  O329  1  0.01360181  0.50610280  0.62986431  1
  O  O330  1  0.51476949  -0.02491841  0.10264723  1
  O  O331  1  0.50033625  0.01171263  0.61786829  1
  O  O332  1  0.50870943  0.50688669  0.11888943  1
  O  O333  1  0.50904051  0.49392470  0.61297056  1
  O  O334  1  0.24661991  0.38084150  0.24601026  1
  O  O335  1  0.24260000  0.38362442  0.75927582  1
  O  O336  1  0.25325578  0.87358520  0.24186059  1
  O  O337  1  0.23336945  0.89155412  0.75222652  1
  O  O338  1  0.73589054  0.36985995  0.25748614  1
  O  O339  1  0.73794523  0.37843247  0.76075622  1
  O  O340  1  0.74634576  0.88374567  0.26277113  1
  O  O341  1  0.73950624  0.87584336  0.74181825  1
  O  O342  1  0.26864194  0.13995232  0.23776720  1
  O  O343  1  0.26348768  0.11318166  0.74844846  1
  O  O344  1  0.25842327  0.61715982  0.25614428  1
  O  O345  1  0.26276118  0.60938810  0.76490360  1
  O  O346  1  0.74780428  0.11864734  0.26557625  1
  O  O347  1  0.75404687  0.11750259  0.75876686  1
  O  O348  1  0.75358961  0.63306045  0.26559771  1
  O  O349  1  0.75413251  0.61862439  0.75165593  1
  O  O350  1  0.38298506  0.11533927  0.37456545  1
  O  O351  1  0.38185244  0.12530985  0.86306587  1
  O  O352  1  0.36720177  0.62081031  0.36660128  1
  O  O353  1  0.38134725  0.60528252  0.86764073  1
  O  O354  1  0.85947675  0.12115501  0.37899056  1
  O  O355  1  0.86425270  0.11972981  0.86393497  1
  O  O356  1  0.86564336  0.63245835  0.36528456  1
  O  O357  1  0.86184656  0.63022488  0.85204883  1
  O  O358  1  0.13365249  0.38533732  0.13708323  1
  O  O359  1  0.12401613  0.38924609  0.64111231  1
  O  O360  1  0.14593024  0.87411386  0.11542367  1
  O  O361  1  0.11459074  0.89477603  0.64267260  1
  O  O362  1  0.62853793  0.39045431  0.13337150  1
  O  O363  1  0.61635225  0.37891329  0.63856674  1
  O  O364  1  0.64640735  0.86539933  0.13609077  1
  O  O365  1  0.63437211  0.87465413  0.63442672  1
  O  O366  1  0.11076878  0.25328556  0.24235022  1
  O  O367  1  0.11459422  0.25832076  0.73923402  1
  O  O368  1  0.12527348  0.74779143  0.26939993  1
  O  O369  1  0.11806765  0.76582429  0.74879990  1
  O  O370  1  0.61500359  0.26252612  0.25704929  1
  O  O371  1  0.62817156  0.25688035  0.76461297  1
  O  O372  1  0.61481069  0.73781219  0.26110197  1
  O  O373  1  0.61748700  0.75096490  0.75179055  1
  O  O374  1  0.39404546  0.25694190  0.25143963  1
  O  O375  1  0.36597681  0.23642623  0.74452028  1
  O  O376  1  0.38293107  0.73852590  0.25390579  1
  O  O377  1  0.39441607  0.72883223  0.76634344  1
  O  O378  1  0.88449172  0.24754242  0.24054959  1
  O  O379  1  0.87857856  0.24445706  0.74741431  1
  O  O380  1  0.88592012  0.74350214  0.24741076  1
  O  O381  1  0.88113494  0.74011238  0.74359514  1
  O  O382  1  0.38118843  0.49246456  0.49854417  1
  O  O383  1  0.38178285  0.49155731  0.99241239  1
  O  O384  1  0.38342969  0.99706970  0.49073597  1
  O  O385  1  0.36480289  0.98786412  0.97180903  1
  O  O386  1  0.88647661  0.49369017  0.49089745  1
  O  O387  1  0.85405570  0.47372073  1.00337977  1
  O  O388  1  0.87581703  0.99902493  0.49324929  1
  O  O389  1  0.88123146  1.00056812  0.98500132  1
  O  O390  1  0.10641623  0.00674497  -0.00209532  1
  O  O391  1  0.11407771  -0.00446241  0.51746300  1
  O  O392  1  0.12880047  0.49305602  0.01683035  1
  O  O393  1  0.11774445  0.49862723  0.51507889  1
  O  O394  1  0.59156295  -0.01070563  -0.00649945  1
  O  O395  1  0.62013109  0.01208179  0.50214931  1
  O  O396  1  0.62600183  0.50608288  0.00755180  1
  O  O397  1  0.61754045  0.50470271  0.50463903  1
  O  O398  1  0.36679244  0.38662760  0.11621729  1
  O  O399  1  0.38288169  0.36280878  0.61634721  1
  O  O400  1  0.35841265  0.87302045  0.11825799  1
  O  O401  1  0.37484062  0.88429228  0.60458193  1
  O  O402  1  0.88473744  0.36008413  0.11652672  1
  O  O403  1  0.87412050  0.36611179  0.63509956  1
  O  O404  1  0.86400625  0.86417431  0.13071955  1
  O  O405  1  0.85923925  0.87679508  0.63344350  1
  O  O406  1  0.13662943  0.07747314  0.37081603  1
  O  O407  1  0.12335064  0.13562810  0.86348782  1
  O  O408  1  0.14194689  0.61974043  0.37804674  1
  O  O409  1  0.13553491  0.61423526  0.86963506  1
  O  O410  1  0.62986800  0.13261593  0.38717370  1
  O  O411  1  0.63159920  0.13074420  0.87008462  1
  O  O412  1  0.63558273  0.63017240  0.38433414  1
  O  O413  1  0.63192740  0.62514054  0.88016754  1
