# generated using pymatgen
data_V79Zn79O256
_symmetry_space_group_name_H-M   'P 1'
_cell_length_a   16.88830050
_cell_length_b   16.88088828
_cell_length_c   16.89798869
_cell_angle_alpha   90.16094875
_cell_angle_beta   89.94926234
_cell_angle_gamma   90.08997858
_symmetry_Int_Tables_number   1
_chemical_formula_structural   V79Zn79O256
_chemical_formula_sum   'V79 Zn79 O256'
_cell_volume   4817.41256471
_cell_formula_units_Z   1
loop_
 _symmetry_equiv_pos_site_id
 _symmetry_equiv_pos_as_xyz
  1  'x, y, z'
loop_
 _atom_site_type_symbol
 _atom_site_label
 _atom_site_symmetry_multiplicity
 _atom_site_fract_x
 _atom_site_fract_y
 _atom_site_fract_z
 _atom_site_occupancy
  V  V0  1  0.87968701  0.62928887  0.74867607  1
  V  V1  1  0.12746211  0.11907359  -0.00124260  1
  V  V2  1  0.73875246  -0.00093884  0.74846122  1
  V  V3  1  0.24893175  0.25610733  0.00576701  1
  V  V4  1  0.00216442  0.25500720  0.75340101  1
  V  V5  1  0.12162211  0.75606589  0.37409847  1
  V  V6  1  0.25012780  0.74573367  0.50217368  1
  V  V7  1  0.37308092  0.87602067  0.50080402  1
  V  V8  1  0.76223231  0.87524219  0.11576984  1
  V  V9  1  0.50112059  0.11821146  0.62901163  1
  V  V10  1  0.74566689  0.24619777  0.50149914  1
  V  V11  1  0.24563557  0.50835045  0.75117437  1
  V  V12  1  0.63042360  0.12746516  -0.00338637  1
  V  V13  1  0.00595601  0.62010751  0.62421928  1
  V  V14  1  0.87341043  0.49760015  0.37230101  1
  V  V15  1  0.50245790  0.11980242  0.12381647  1
  V  V16  1  0.88221202  0.50016627  0.87819329  1
  V  V17  1  0.60912320  0.37513069  0.75577337  1
  V  V18  1  0.61631968  0.25687396  0.87537019  1
  V  V19  1  0.87407328  0.24895659  0.12860055  1
  V  V20  1  0.50104834  0.62631528  0.62323355  1
  V  V21  1  0.23969503  0.00936672  0.76349046  1
  V  V22  1  0.00374994  0.12173291  0.61378136  1
  V  V23  1  0.12456151  0.38053985  0.25125850  1
  V  V24  1  -0.00427221  -0.00960133  0.00432297  1
  V  V25  1  0.24776254  0.24765779  0.49663629  1
  V  V26  1  0.24342462  0.87690813  0.63454082  1
  V  V27  1  0.25536906  0.61797805  0.36811136  1
  V  V28  1  0.36743175  0.25159002  0.12670764  1
  V  V29  1  0.00987114  0.87243142  0.85200804  1
  V  V30  1  0.50276276  0.25575668  0.25699147  1
  V  V31  1  0.88369399  0.37872550  -0.00106039  1
  V  V32  1  0.26460397  0.49723847  0.24518387  1
  V  V33  1  0.00671205  0.49630648  0.49964550  1
  V  V34  1  0.60892167  0.62818371  0.00036620  1
  V  V35  1  0.63407275  0.38088677  0.25479962  1
  V  V36  1  0.76066720  0.00211059  0.25249142  1
  V  V37  1  0.63071030  -0.00056378  0.12535606  1
  V  V38  1  -0.00190728  0.25251959  0.25248511  1
  V  V39  1  0.38209927  0.25408483  0.62758984  1
  V  V40  1  0.73672845  0.87790939  0.62523727  1
  V  V41  1  0.74991323  0.37373624  0.62728143  1
  V  V42  1  0.88103357  0.75993966  0.11718198  1
  V  V43  1  0.27501301  0.62550836  0.87862017  1
  V  V44  1  0.74725944  0.49967816  0.75053304  1
  V  V45  1  0.00584097  0.61978093  0.11494617  1
  V  V46  1  0.62905590  0.74541086  0.37276232  1
  V  V47  1  0.62710905  0.76490995  0.87487887  1
  V  V48  1  0.23982815  0.88772185  0.14126118  1
  V  V49  1  0.23461176  0.37892664  0.62853160  1
  V  V50  1  0.37460527  0.11144015  0.25115876  1
  V  V51  1  0.74696698  0.74362803  0.49791697  1
  V  V52  1  0.75360930  0.25126147  -0.00553629  1
  V  V53  1  0.38151734  0.38161124  0.48652140  1
  V  V54  1  0.50972901  0.76596167  0.75388611  1
  V  V55  1  0.00073405  0.12687639  0.12716808  1
  V  V56  1  0.88096529  0.75137640  0.62656912  1
  V  V57  1  0.38647870  0.74213642  0.13931698  1
  V  V58  1  0.12253772  0.25241427  0.37512225  1
  V  V59  1  0.62511004  0.87021061  0.24702361  1
  V  V60  1  0.87438811  0.12227277  0.75504138  1
  V  V61  1  0.38751036  0.00337417  0.87749944  1
  V  V62  1  0.88757459  0.00078449  0.37951878  1
  V  V63  1  0.12580857  0.49889437  0.11379615  1
  V  V64  1  0.88020110  0.37338756  0.49512751  1
  V  V65  1  0.24608209  0.11518834  0.37239268  1
  V  V66  1  0.74927984  0.63133942  0.88200228  1
  V  V67  1  0.87074806  0.61916658  0.25062521  1
  V  V68  1  0.37358717  0.74506656  0.63682190  1
  V  V69  1  0.87622625  0.24746078  0.62621621  1
  V  V70  1  0.12288483  0.73652401  0.86930175  1
  V  V71  1  0.62271354  0.50507791  0.61963018  1
  V  V72  1  0.13398270  0.25102038  0.87181007  1
  V  V73  1  0.49856813  0.86842941  0.37051852  1
  V  V74  1  0.74664180  0.12147000  0.37520038  1
  V  V75  1  0.00342965  0.75183260  0.25858112  1
  V  V76  1  0.12233135  0.00413509  0.61163317  1
  V  V77  1  0.87660853  -0.00714812  0.87215624  1
  V  V78  1  0.88777593  0.87753161  0.49643871  1
  Zn  Zn79  1  0.37285984  -0.00715231  0.37292528  1
  Zn  Zn80  1  0.75536147  0.38573116  0.13037574  1
  Zn  Zn81  1  0.74385950  0.61641984  0.37169131  1
  Zn  Zn82  1  0.50762280  -0.00707561  -0.00794502  1
  Zn  Zn83  1  0.12730572  0.61680120  0.50274058  1
  Zn  Zn84  1  0.62655935  0.10892930  0.50910709  1
  Zn  Zn85  1  0.24642433  0.75069270  0.01042180  1
  Zn  Zn86  1  0.00961441  0.38024434  0.87420229  1
  Zn  Zn87  1  0.50243663  0.49352007  -0.02708514  1
  Zn  Zn88  1  0.63798057  0.50705279  0.12304836  1
  Zn  Zn89  1  0.61455529  0.24953363  0.38187991  1
  Zn  Zn90  1  0.51026976  -0.00589705  0.50322084  1
  Zn  Zn91  1  0.37125740  0.13334022  0.75563602  1
  Zn  Zn92  1  0.38346598  0.39117463  -0.02670045  1
  Zn  Zn93  1  0.50478133  0.49819707  0.47856640  1
  Zn  Zn94  1  0.18425099  0.17950394  0.19035689  1
  Zn  Zn95  1  0.18856370  0.18800044  0.68536624  1
  Zn  Zn96  1  0.19262012  0.68805323  0.18667611  1
  Zn  Zn97  1  0.18487826  0.68992220  0.69563478  1
  Zn  Zn98  1  0.69139237  0.18901256  0.18831078  1
  Zn  Zn99  1  0.68532107  0.18609257  0.69214261  1
  Zn  Zn100  1  0.69329576  0.69097116  0.18140886  1
  Zn  Zn101  1  0.68845377  0.68885009  0.68958524  1
  Zn  Zn102  1  0.31182638  0.31091097  0.30646759  1
  Zn  Zn103  1  0.33462776  0.35084920  0.79407046  1
  Zn  Zn104  1  0.30851341  0.81023014  0.30835866  1
  Zn  Zn105  1  0.31219890  0.81680190  0.81840200  1
  Zn  Zn106  1  0.81302410  0.30906108  0.31605153  1
  Zn  Zn107  1  0.81196151  0.31258865  0.81472931  1
  Zn  Zn108  1  0.81668647  0.81308805  0.30942591  1
  Zn  Zn109  1  0.81274017  0.81648847  0.81165320  1
  Zn  Zn110  1  0.19368270  0.43376482  0.43428158  1
  Zn  Zn111  1  0.19386531  0.43780604  0.93274584  1
  Zn  Zn112  1  0.18346465  0.93389810  0.43881916  1
  Zn  Zn113  1  0.18770757  0.93045113  0.94564657  1
  Zn  Zn114  1  0.68804376  0.43185179  0.43555583  1
  Zn  Zn115  1  0.69149615  0.44089498  0.94126023  1
  Zn  Zn116  1  0.68944322  0.93275309  0.43882965  1
  Zn  Zn117  1  0.69422906  0.94298061  0.93790456  1
  Zn  Zn118  1  0.31172393  0.06025329  0.06191402  1
  Zn  Zn119  1  0.31083456  0.06408353  0.56353180  1
  Zn  Zn120  1  0.31685766  0.57689863  0.05613788  1
  Zn  Zn121  1  0.31463406  0.56116656  0.56410842  1
  Zn  Zn122  1  0.81691439  0.06402270  0.06116016  1
  Zn  Zn123  1  0.81335959  0.06079984  0.56506453  1
  Zn  Zn124  1  0.81495769  0.56518762  0.06478326  1
  Zn  Zn125  1  0.81413425  0.56016896  0.56086467  1
  Zn  Zn126  1  0.42824525  0.45177989  0.12563397  1
  Zn  Zn127  1  0.43240720  0.44650184  0.68819355  1
  Zn  Zn128  1  0.43795170  0.92790045  0.18090134  1
  Zn  Zn129  1  0.42913012  0.93970944  0.69307860  1
  Zn  Zn130  1  0.94134224  0.43628036  0.18777031  1
  Zn  Zn131  1  0.93788377  0.43845082  0.68583291  1
  Zn  Zn132  1  0.96716614  0.94725193  0.20449151  1
  Zn  Zn133  1  0.93692342  0.93813088  0.68246444  1
  Zn  Zn134  1  0.06775947  0.06326203  0.31012663  1
  Zn  Zn135  1  0.06174606  0.06448676  0.81113609  1
  Zn  Zn136  1  0.06106387  0.56661411  0.31609642  1
  Zn  Zn137  1  0.06689762  0.55695296  0.80429777  1
  Zn  Zn138  1  0.56301755  0.05695654  0.31429733  1
  Zn  Zn139  1  0.55945353  0.07549702  0.81129945  1
  Zn  Zn140  1  0.55936680  0.55752109  0.30286880  1
  Zn  Zn141  1  0.53183230  0.58471221  0.82082378  1
  Zn  Zn142  1  0.43326299  0.18218412  0.44271251  1
  Zn  Zn143  1  0.41044142  0.21418286  0.91225980  1
  Zn  Zn144  1  0.46015341  0.65840876  0.41208556  1
  Zn  Zn145  1  0.37653828  0.86842806  1.00137601  1
  Zn  Zn146  1  0.93464333  0.18538598  0.43325948  1
  Zn  Zn147  1  0.94106998  0.18666115  0.93766094  1
  Zn  Zn148  1  0.93341194  0.68196535  0.44060223  1
  Zn  Zn149  1  0.94113515  0.69098439  0.93428096  1
  Zn  Zn150  1  0.06531759  0.31384299  0.06353609  1
  Zn  Zn151  1  0.06046024  0.30636831  0.56040878  1
  Zn  Zn152  1  0.07134445  0.80686915  0.06000583  1
  Zn  Zn153  1  0.06598619  0.81108778  0.56602765  1
  Zn  Zn154  1  0.56227973  0.31429760  0.06936896  1
  Zn  Zn155  1  0.56125984  0.31857001  0.56462437  1
  Zn  Zn156  1  0.55662328  0.81027667  0.05736757  1
  Zn  Zn157  1  0.55868718  0.80683320  0.55671352  1
  O  O158  1  0.11203415  0.13087988  0.11249275  1
  O  O159  1  0.11867736  0.11425933  0.62586412  1
  O  O160  1  0.11295022  0.61611243  0.13165456  1
  O  O161  1  0.10990462  0.63238658  0.62606081  1
  O  O162  1  0.62210463  0.12021834  0.12158590  1
  O  O163  1  0.60636590  0.13439754  0.62654799  1
  O  O164  1  0.63699317  0.63503357  0.10175044  1
  O  O165  1  0.62145259  0.61313893  0.63100423  1
  O  O166  1  0.36800822  0.37050488  0.38759612  1
  O  O167  1  0.37361715  0.32128555  0.89008916  1
  O  O168  1  0.38041657  0.86991998  0.38293990  1
  O  O169  1  0.36589785  0.89776580  0.87808938  1
  O  O170  1  0.87145310  0.37930226  0.38729153  1
  O  O171  1  0.87516167  0.38428535  0.88157933  1
  O  O172  1  0.87258911  0.88373451  0.38844174  1
  O  O173  1  0.89066835  0.88269524  0.86747971  1
  O  O174  1  0.24586953  0.01244756  0.38014831  1
  O  O175  1  0.24201468  0.00200701  0.86476853  1
  O  O176  1  0.25212339  0.50911815  0.36436594  1
  O  O177  1  0.24761233  0.51423197  0.86693258  1
  O  O178  1  0.75575209  0.00334510  0.36895762  1
  O  O179  1  0.76292202  -0.01073708  0.85743267  1
  O  O180  1  0.76576050  0.50139177  0.38628365  1
  O  O181  1  0.75893357  0.50917134  0.86631984  1
  O  O182  1  0.23152500  0.51285587  0.14037364  1
  O  O183  1  0.25329713  0.48855073  0.63484282  1
  O  O184  1  0.25113095  0.98929349  0.12398821  1
  O  O185  1  0.23877119  0.99596011  0.62838632  1
  O  O186  1  0.75189050  0.49966771  0.12778918  1
  O  O187  1  0.74468561  0.49598068  0.63084826  1
  O  O188  1  0.75434749  0.99673532  0.13455619  1
  O  O189  1  0.75266677  0.98726673  0.63343568  1
  O  O190  1  0.01014361  0.36278690  0.24803779  1
  O  O191  1  -0.00535798  0.35920521  0.74798527  1
  O  O192  1  -0.00648294  0.84948407  0.25867315  1
  O  O193  1  0.00402433  0.87572344  0.75282710  1
  O  O194  1  0.50933639  0.35639258  0.24924988  1
  O  O195  1  0.51149212  0.37302851  0.74141554  1
  O  O196  1  0.51573223  0.88043333  0.25687778  1
  O  O197  1  0.50311360  0.86525445  0.73853557  1
  O  O198  1  0.49584476  0.12694637  0.24331338  1
  O  O199  1  0.49186122  0.12840230  0.73431835  1
  O  O200  1  0.50622261  0.58707420  0.19974798  1
  O  O201  1  0.50137758  0.64827948  0.73468543  1
  O  O202  1  1.00671686  0.14127906  0.23827997  1
  O  O203  1  0.99198624  0.13303901  0.74169561  1
  O  O204  1  0.99098731  0.62994634  0.24286547  1
  O  O205  1  0.98637914  0.61573130  0.73962479  1
  O  O206  1  0.36492682  0.23546713  0.02053475  1
  O  O207  1  0.36544942  0.25909066  0.50415913  1
  O  O208  1  0.36349000  0.75293378  0.02147427  1
  O  O209  1  0.36016778  0.75859378  0.51226565  1
  O  O210  1  0.87107748  0.25589658  0.00532223  1
  O  O211  1  0.86812281  0.25482132  0.50491893  1
  O  O212  1  0.88906349  0.75404173  0.01847780  1
  O  O213  1  0.86870980  0.75993934  0.50436758  1
  O  O214  1  0.13428858  0.25403364  0.48731087  1
  O  O215  1  0.12908434  0.24230827  0.99609437  1
  O  O216  1  0.13390785  0.74675885  0.49436569  1
  O  O217  1  0.13330031  0.75856488  0.97720365  1
  O  O218  1  0.63891537  0.25418420  0.50123010  1
  O  O219  1  0.63319262  0.24927192  0.99530412  1
  O  O220  1  0.63611966  0.75556289  0.48669383  1
  O  O221  1  0.61975331  0.74274572  0.98257902  1
  O  O222  1  0.49054915  0.23730321  0.13554947  1
  O  O223  1  0.48585513  0.24548885  0.61695072  1
  O  O224  1  0.48851698  0.75174417  0.12583952  1
  O  O225  1  0.49214880  0.74822566  0.63022635  1
  O  O226  1  0.99408671  0.24626241  0.13068159  1
  O  O227  1  0.99701658  0.24156313  0.63299223  1
  O  O228  1  0.99942019  0.74135533  0.13753890  1
  O  O229  1  0.98699375  0.73999694  0.61723848  1
  O  O230  1  0.01016660  0.23913989  0.36566108  1
  O  O231  1  0.00603005  0.25252748  0.86716621  1
  O  O232  1  0.01108711  0.73634120  0.37051095  1
  O  O233  1  0.00807152  0.76482507  0.87666492  1
  O  O234  1  0.49631327  0.23839103  0.36073549  1
  O  O235  1  0.51872529  0.25036764  0.88198361  1
  O  O236  1  0.51250018  0.75927302  0.37866506  1
  O  O237  1  0.51540593  0.75455525  0.85785210  1
  O  O238  1  0.25796752  0.13601491  0.48446614  1
  O  O239  1  0.23127459  0.12940228  1.00630968  1
  O  O240  1  0.24744029  0.62994950  0.49606948  1
  O  O241  1  0.25033691  0.62861320  0.98109614  1
  O  O242  1  0.74861016  0.13171519  0.49863393  1
  O  O243  1  0.73999203  0.13572252  1.00955984  1
  O  O244  1  0.75799367  0.63959917  0.49806249  1
  O  O245  1  0.75748371  0.62778620  0.98296242  1
  O  O246  1  0.25071026  0.35808031  0.00093186  1
  O  O247  1  0.25905222  0.36840951  0.50655440  1
  O  O248  1  0.25706982  0.87295782  0.01074102  1
  O  O249  1  0.25285967  0.86525530  0.50790472  1
  O  O250  1  0.76210561  0.36681530  0.00364207  1
  O  O251  1  0.75904774  0.36502966  0.50708347  1
  O  O252  1  0.75741386  0.88594796  0.01657846  1
  O  O253  1  0.75923559  0.86608113  0.51210639  1
  O  O254  1  0.12279810  0.48994265  0.25011115  1
  O  O255  1  0.14424994  0.49151455  0.75322243  1
  O  O256  1  0.07198474  0.98559817  0.23374799  1
  O  O257  1  0.13576860  1.00530187  0.74277276  1
  O  O258  1  0.63121915  0.48365459  0.25558434  1
  O  O259  1  0.63798435  0.49119730  0.74271881  1
  O  O260  1  0.63886371  0.99115346  0.24545558  1
  O  O261  1  0.64091447  1.00852928  0.75708108  1
  O  O262  1  0.38274325  0.00849433  0.25219688  1
  O  O263  1  0.36062015  0.00341048  0.76127334  1
  O  O264  1  0.36068606  0.49139918  0.22862307  1
  O  O265  1  0.34779868  0.46548034  0.76053833  1
  O  O266  1  0.87170051  -0.00980681  0.26832748  1
  O  O267  1  0.87344799  0.00563604  0.75420260  1
  O  O268  1  0.88438526  0.50507292  0.26084254  1
  O  O269  1  0.86531154  0.50683165  0.75421768  1
  O  O270  1  0.12996818  0.36242654  0.36536366  1
  O  O271  1  0.12495685  0.35728371  0.88250409  1
  O  O272  1  0.12439335  0.85589585  0.38076619  1
  O  O273  1  0.11036256  0.87954876  0.87326721  1
  O  O274  1  0.62747673  0.36607625  0.36308093  1
  O  O275  1  0.63238875  0.36532144  0.87144812  1
  O  O276  1  0.62057843  0.86696283  0.36586551  1
  O  O277  1  0.63541624  0.86379231  0.88004848  1
  O  O278  1  0.38378526  0.12463035  0.13412854  1
  O  O279  1  0.37961179  0.13964813  0.62021550  1
  O  O280  1  0.36415167  0.64121339  0.13351296  1
  O  O281  1  0.37967476  0.63743478  0.62441310  1
  O  O282  1  0.88525557  0.13974276  0.11913006  1
  O  O283  1  0.88333836  0.12702662  0.63359160  1
  O  O284  1  0.88744248  0.63479103  0.13096206  1
  O  O285  1  0.87940667  0.63181741  0.63034006  1
  O  O286  1  0.25937250  0.23865998  0.12342967  1
  O  O287  1  0.25267108  0.25553357  0.61244108  1
  O  O288  1  0.25452616  0.76079555  0.13012602  1
  O  O289  1  0.25214120  0.75579187  0.62349298  1
  O  O290  1  0.76148126  0.25201548  0.11825806  1
  O  O291  1  0.75580536  0.25160761  0.62005537  1
  O  O292  1  0.77314757  0.76067050  0.13036084  1
  O  O293  1  0.75863357  0.75828908  0.61998483  1
  O  O294  1  0.24275799  0.24340001  0.37836388  1
  O  O295  1  0.23323599  0.24055612  0.88621348  1
  O  O296  1  0.23715309  0.74286685  0.38140291  1
  O  O297  1  0.24425476  0.73483507  0.86583553  1
  O  O298  1  0.75499564  0.23644518  0.38630677  1
  O  O299  1  0.74752786  0.25001008  0.88932623  1
  O  O300  1  0.74578984  0.75353647  0.38246667  1
  O  O301  1  0.73855410  0.74318349  0.86148344  1
  O  O302  1  0.00695198  0.12162649  0.00841285  1
  O  O303  1  -0.00629872  0.13026398  0.51483648  1
  O  O304  1  -0.00141048  0.62988836  0.01622809  1
  O  O305  1  -0.00053428  0.61437816  0.50872851  1
  O  O306  1  0.51590434  0.12290583  0.01449626  1
  O  O307  1  0.50145761  0.12039920  0.51072419  1
  O  O308  1  0.51148586  0.62148376  -0.00142862  1
  O  O309  1  0.49920446  0.62971495  0.52069523  1
  O  O310  1  0.48713337  0.37629559  0.49793076  1
  O  O311  1  0.49104419  0.39229435  1.03329326  1
  O  O312  1  0.48773944  0.87182593  0.49251482  1
  O  O313  1  0.49081104  0.88337536  1.00528422  1
  O  O314  1  0.98768695  0.37965499  0.50744525  1
  O  O315  1  0.98763030  0.36943240  0.99637983  1
  O  O316  1  0.98666052  0.87070550  0.50387105  1
  O  O317  1  1.00268468  0.89055501  1.00374488  1
  O  O318  1  0.48397857  0.54922566  0.38113121  1
  O  O319  1  0.50387365  0.48935627  0.86183616  1
  O  O320  1  0.49809052  0.98195224  0.37836523  1
  O  O321  1  0.49173611  1.00235445  0.86950982  1
  O  O322  1  0.98591143  0.50584867  0.38816287  1
  O  O323  1  0.98656273  0.49718395  0.86360834  1
  O  O324  1  0.98533928  1.01242529  0.38110661  1
  O  O325  1  0.99605049  0.98916903  0.87934270  1
  O  O326  1  -0.01862965  0.01182564  0.10750521  1
  O  O327  1  0.01431013  0.00646640  0.63033529  1
  O  O328  1  0.00906549  0.51120781  0.12632378  1
  O  O329  1  -0.00697586  0.50879179  0.61409567  1
  O  O330  1  0.51243770  0.00768789  0.12901663  1
  O  O331  1  0.48660696  0.01455723  0.62386614  1
  O  O332  1  0.51817389  0.52634420  0.14959262  1
  O  O333  1  0.50777158  0.51007520  0.63163472  1
  O  O334  1  0.24092350  0.38901130  0.25327126  1
  O  O335  1  0.23827857  0.36343755  0.72931693  1
  O  O336  1  0.24851134  0.88091319  0.24406910  1
  O  O337  1  0.25357366  0.88906299  0.73914721  1
  O  O338  1  0.73757519  0.36042030  0.24897244  1
  O  O339  1  0.75029244  0.38429712  0.74551760  1
  O  O340  1  0.74800961  0.88503922  0.24355273  1
  O  O341  1  0.75477044  0.88495315  0.73503183  1
  O  O342  1  0.25965758  0.12813211  0.26292301  1
  O  O343  1  0.25326101  0.11255615  0.74304887  1
  O  O344  1  0.24407862  0.61255691  0.26138550  1
  O  O345  1  0.25381695  0.61298445  0.75301209  1
  O  O346  1  0.74883305  0.11290187  0.25946786  1
  O  O347  1  0.76202806  0.10931137  0.73876788  1
  O  O348  1  0.76703585  0.63037155  0.24855659  1
  O  O349  1  0.75905409  0.61679405  0.75492553  1
  O  O350  1  0.36413002  0.11975017  0.36861330  1
  O  O351  1  0.37616392  0.11457776  0.87065432  1
  O  O352  1  0.35080428  0.64264949  0.37863266  1
  O  O353  1  0.37049359  0.62705530  0.87217429  1
  O  O354  1  0.86132669  0.10869007  0.38596447  1
  O  O355  1  0.88404889  0.11366935  0.86235837  1
  O  O356  1  0.87162286  0.61681515  0.36718734  1
  O  O357  1  0.87251130  0.62282022  0.86677798  1
  O  O358  1  0.11922027  0.38988326  0.13434875  1
  O  O359  1  0.13633847  0.37413814  0.61240202  1
  O  O360  1  0.13901057  0.87027358  0.12335662  1
  O  O361  1  0.13246701  0.88797915  0.62093192  1
  O  O362  1  0.62855651  0.37617545  0.14229320  1
  O  O363  1  0.63151880  0.37998665  0.63684352  1
  O  O364  1  0.63904282  0.87905839  0.13013171  1
  O  O365  1  0.63887642  0.86654545  0.62098274  1
  O  O366  1  0.12116964  0.25880810  0.25386395  1
  O  O367  1  0.11777230  0.23789282  0.76466170  1
  O  O368  1  0.11507258  0.74020456  0.26406793  1
  O  O369  1  0.12720559  0.75519647  0.76786118  1
  O  O370  1  0.61281727  0.24812567  0.25130805  1
  O  O371  1  0.63555193  0.25850904  0.76783722  1
  O  O372  1  0.63947619  0.76412133  0.25500367  1
  O  O373  1  0.61984022  0.75341416  0.75657087  1
  O  O374  1  0.38262717  0.23632253  0.24439079  1
  O  O375  1  0.36664009  0.25292247  0.72932330  1
  O  O376  1  0.37944786  0.75596312  0.24237880  1
  O  O377  1  0.38420241  0.76155910  0.74107187  1
  O  O378  1  0.88499016  0.25768210  0.24073060  1
  O  O379  1  0.87924814  0.24117563  0.74692204  1
  O  O380  1  0.88776506  0.73921815  0.24932663  1
  O  O381  1  0.86828984  0.73978231  0.73929909  1
  O  O382  1  0.37644781  0.48466440  0.50479521  1
  O  O383  1  0.38262947  0.49304243  1.02375425  1
  O  O384  1  0.36880901  0.98349632  0.49920375  1
  O  O385  1  0.37956809  1.00967660  0.98448050  1
  O  O386  1  0.88199527  0.49023533  0.49594007  1
  O  O387  1  0.87136675  0.49283337  0.98785951  1
  O  O388  1  0.87014854  0.98632694  0.49419682  1
  O  O389  1  0.88618220  1.00926501  0.98372270  1
  O  O390  1  0.10922920  0.01244727  -0.00663341  1
  O  O391  1  0.12648307  0.00207303  0.51212121  1
  O  O392  1  0.13239848  0.49367770  0.01538930  1
  O  O393  1  0.11127473  0.49546151  0.49033220  1
  O  O394  1  0.63016322  0.01103864  0.00526282  1
  O  O395  1  0.62532389  -0.00515872  0.50464244  1
  O  O396  1  0.62543674  0.51532940  -0.00080112  1
  O  O397  1  0.62049222  0.48566736  0.51527214  1
  O  O398  1  0.37168687  0.34942838  0.13800503  1
  O  O399  1  0.36756038  0.36348986  0.61507062  1
  O  O400  1  0.36234584  0.86656534  0.12637018  1
  O  O401  1  0.36341238  0.86841820  0.61875437  1
  O  O402  1  0.87875389  0.36652966  0.11698665  1
  O  O403  1  0.86885949  0.36795479  0.61794350  1
  O  O404  1  0.87942487  0.86478024  0.13689473  1
  O  O405  1  0.87123665  0.86813109  0.61512229  1
  O  O406  1  0.13888537  0.13408848  0.36561512  1
  O  O407  1  0.11197051  0.13619252  0.89164202  1
  O  O408  1  0.13605965  0.63167456  0.38156235  1
  O  O409  1  0.11443294  0.63539672  0.87292780  1
  O  O410  1  0.63676753  0.12534428  0.38002154  1
  O  O411  1  0.62475738  0.13884863  0.88656866  1
  O  O412  1  0.62897017  0.64180417  0.35599053  1
  O  O413  1  0.63247907  0.63375898  0.88271503  1
