# generated using pymatgen
data_V79Zn79O256
_symmetry_space_group_name_H-M   'P 1'
_cell_length_a   16.84539762
_cell_length_b   16.83544538
_cell_length_c   16.84585172
_cell_angle_alpha   89.99362230
_cell_angle_beta   89.93991707
_cell_angle_gamma   90.02049817
_symmetry_Int_Tables_number   1
_chemical_formula_structural   V79Zn79O256
_chemical_formula_sum   'V79 Zn79 O256'
_cell_volume   4777.47673507
_cell_formula_units_Z   1
loop_
 _symmetry_equiv_pos_site_id
 _symmetry_equiv_pos_as_xyz
  1  'x, y, z'
loop_
 _atom_site_type_symbol
 _atom_site_label
 _atom_site_symmetry_multiplicity
 _atom_site_fract_x
 _atom_site_fract_y
 _atom_site_fract_z
 _atom_site_occupancy
  V  V0  1  0.62710707  0.49976246  0.62628205  1
  V  V1  1  0.87892562  0.49488726  0.87823376  1
  V  V2  1  0.61714943  0.00623266  0.62077651  1
  V  V3  1  0.49916932  0.49672197  0.50056763  1
  V  V4  1  0.00434874  0.63012522  0.61539989  1
  V  V5  1  0.23926871  0.49483885  0.75364906  1
  V  V6  1  0.74436054  0.00422357  0.24462107  1
  V  V7  1  0.88084738  0.63487868  0.75727128  1
  V  V8  1  0.11995019  0.49956495  0.61162765  1
  V  V9  1  0.63000259  0.61525359  0.01727671  1
  V  V10  1  0.75580672  0.74203693  -0.00433849  1
  V  V11  1  0.00306027  0.00581986  -0.01325385  1
  V  V12  1  0.37559520  0.61683320  0.75152418  1
  V  V13  1  0.87842059  0.36764644  0.00420447  1
  V  V14  1  0.38018708  0.87335652  -0.00696124  1
  V  V15  1  0.24534730  0.63094837  0.39418052  1
  V  V16  1  0.23499690  0.24483344  -0.02676907  1
  V  V17  1  0.62822142  0.12605952  -0.01200990  1
  V  V18  1  0.25032792  0.37484477  0.62320674  1
  V  V19  1  0.50156310  0.37244337  0.37735802  1
  V  V20  1  0.49792841  0.74794884  0.76016364  1
  V  V21  1  0.37947223  0.74851704  0.12974579  1
  V  V22  1  0.37672648  -0.00150675  0.38310165  1
  V  V23  1  0.25046466  0.86739860  0.61903313  1
  V  V24  1  0.01215841  0.49236045  0.00125500  1
  V  V25  1  0.37222213  0.00730708  0.87547276  1
  V  V26  1  0.24438444  0.12840204  0.38064400  1
  V  V27  1  0.63008310  0.73727202  0.87630963  1
  V  V28  1  0.62174935  0.86803046  0.75745613  1
  V  V29  1  0.50251782  0.12517012  0.12284094  1
  V  V30  1  0.88145224  0.62515076  0.26461702  1
  V  V31  1  0.12100333  0.01075458  0.11970848  1
  V  V32  1  0.74904176  0.86711855  0.61707842  1
  V  V33  1  0.12589015  0.75156478  0.39141353  1
  V  V34  1  0.51448774  0.24763165  0.75465262  1
  V  V35  1  0.24920503  0.62296314  0.87574133  1
  V  V36  1  -0.00440292  0.25171036  0.24230678  1
  V  V37  1  0.00276414  0.88014234  0.38705193  1
  V  V38  1  0.37638158  0.74786480  0.61788347  1
  V  V39  1  0.24722179  0.75116677  0.00007950  1
  V  V40  1  0.50902249  0.24969348  0.25451005  1
  V  V41  1  0.87423268  0.75803451  0.61533464  1
  V  V42  1  0.38419150  0.25424330  0.61829161  1
  V  V43  1  -0.00550549  0.39111649  0.37688493  1
  V  V44  1  0.75092460  0.86435697  0.13034318  1
  V  V45  1  0.11656912  0.75758986  0.86657550  1
  V  V46  1  0.12620617  0.38101379  0.24074275  1
  V  V47  1  0.12778815  0.00746071  0.61707225  1
  V  V48  1  0.24079770  -0.00030041  0.24843319  1
  V  V49  1  0.62387677  0.38644164  0.24462165  1
  V  V50  1  0.37109385  0.49717837  0.38296391  1
  V  V51  1  0.74892503  0.24603213  -0.01317381  1
  V  V52  1  0.76019607  0.50341319  0.26180696  1
  V  V53  1  0.75426523  0.36946627  0.62105817  1
  V  V54  1  0.61545574  0.12715603  0.48617691  1
  V  V55  1  0.87589783  0.12776127  0.24396091  1
  V  V56  1  0.75146732  0.37467139  0.12510110  1
  V  V57  1  0.36664743  0.26518978  0.11649280  1
  V  V58  1  0.10118773  0.25609880  0.85334028  1
  V  V59  1  0.37671162  0.63099282  0.25306213  1
  V  V60  1  0.50144041  -0.00385802  -0.00557463  1
  V  V61  1  0.87203495  0.38971045  0.49283649  1
  V  V62  1  0.25007730  -0.00052558  0.75189147  1
  V  V63  1  0.64123199  0.75413093  0.37184086  1
  V  V64  1  0.75319261  0.50303107  0.75376932  1
  V  V65  1  0.88068002  0.86780653  -0.00351962  1
  V  V66  1  0.86201155  0.00905322  0.87818635  1
  V  V67  1  0.86947911  -0.00077732  0.37550411  1
  V  V68  1  0.50441310  0.38002465  0.88669467  1
  V  V69  1  0.37233344  0.12762080  0.24773038  1
  V  V70  1  0.24328997  0.87796766  0.12635961  1
  V  V71  1  0.74677727  0.00448796  0.75848150  1
  V  V72  1  0.00149460  0.62252806  0.12462900  1
  V  V73  1  0.63905010  0.62669192  0.48813122  1
  V  V74  1  0.00404302  0.76288135  0.24105115  1
  V  V75  1  0.12001982  0.25254598  0.37806654  1
  V  V76  1  0.74915094  0.24276106  0.47765597  1
  V  V77  1  0.37841821  0.12631562  0.74455934  1
  V  V78  1  0.24264094  0.50207952  0.24385064  1
  Zn  Zn79  1  0.25343557  0.25821902  0.49874314  1
  Zn  Zn80  1  0.37139278  0.48029198  0.90345576  1
  Zn  Zn81  1  -0.00055369  0.13448901  0.11539946  1
  Zn  Zn82  1  0.38543672  0.87788486  0.50265385  1
  Zn  Zn83  1  -0.05594170  0.15153698  0.63781278  1
  Zn  Zn84  1  0.10279123  0.87944352  0.75411064  1
  Zn  Zn85  1  0.48553473  0.53200442  0.06375865  1
  Zn  Zn86  1  0.61707079  -0.01159178  0.12881721  1
  Zn  Zn87  1  0.50332510  0.62484806  0.62455479  1
  Zn  Zn88  1  0.51176017  0.76199254  0.25053283  1
  Zn  Zn89  1  0.10594699  0.13517376  0.50873177  1
  Zn  Zn90  1  0.50921024  0.87581723  0.37687068  1
  Zn  Zn91  1  0.12640812  0.62156804  0.00657972  1
  Zn  Zn92  1  -0.01741493  0.01022474  0.50896500  1
  Zn  Zn93  1  0.63554776  0.36267641  0.75578382  1
  Zn  Zn94  1  0.18465089  0.19200331  0.18721912  1
  Zn  Zn95  1  0.19358365  0.19078287  0.69561857  1
  Zn  Zn96  1  0.18377716  0.68847998  0.19498135  1
  Zn  Zn97  1  0.18670164  0.68536890  0.68791479  1
  Zn  Zn98  1  0.69045751  0.18966014  0.18229085  1
  Zn  Zn99  1  0.73204262  0.16860936  0.66712918  1
  Zn  Zn100  1  0.69693838  0.68580834  0.19222625  1
  Zn  Zn101  1  0.68974080  0.68286544  0.68603417  1
  Zn  Zn102  1  0.31323167  0.31454241  0.30808916  1
  Zn  Zn103  1  0.31762749  0.31345927  0.81065469  1
  Zn  Zn104  1  0.30683176  0.81542301  0.31431317  1
  Zn  Zn105  1  0.31097983  0.81240364  0.80998455  1
  Zn  Zn106  1  0.81183467  0.31317697  0.31091108  1
  Zn  Zn107  1  0.82194444  0.31539972  0.81174387  1
  Zn  Zn108  1  0.81871294  0.81202065  0.31409290  1
  Zn  Zn109  1  0.81427943  0.81798260  0.81276971  1
  Zn  Zn110  1  0.18567325  0.43808263  0.43675910  1
  Zn  Zn111  1  0.19071339  0.41960394  0.93588861  1
  Zn  Zn112  1  0.19037158  0.93417631  0.43747464  1
  Zn  Zn113  1  0.18715843  0.93935040  0.93583231  1
  Zn  Zn114  1  0.68489067  0.43795347  0.43356517  1
  Zn  Zn115  1  0.68786613  0.43414672  0.93541878  1
  Zn  Zn116  1  0.68729106  0.93886397  0.43701778  1
  Zn  Zn117  1  0.68273807  0.92752012  0.94307236  1
  Zn  Zn118  1  0.31088595  0.06858416  0.05915253  1
  Zn  Zn119  1  0.31038254  0.06813060  0.56617133  1
  Zn  Zn120  1  0.30830380  0.56280902  0.06631416  1
  Zn  Zn121  1  0.31239022  0.56082388  0.56727149  1
  Zn  Zn122  1  0.81291382  0.06220169  0.06415539  1
  Zn  Zn123  1  0.79786944  0.05495283  0.55609457  1
  Zn  Zn124  1  0.81897574  0.55969407  0.07225396  1
  Zn  Zn125  1  0.81584636  0.56671153  0.56460266  1
  Zn  Zn126  1  0.43158107  0.43968466  0.19640697  1
  Zn  Zn127  1  0.43975628  0.43126443  0.69299173  1
  Zn  Zn128  1  0.43339819  0.93457062  0.19000588  1
  Zn  Zn129  1  0.43916656  0.93314042  0.68887405  1
  Zn  Zn130  1  0.93866628  0.43939450  0.18406982  1
  Zn  Zn131  1  0.92877264  0.44792164  0.67424981  1
  Zn  Zn132  1  0.93402505  0.93994963  0.18132344  1
  Zn  Zn133  1  0.96076569  0.97859430  0.71650641  1
  Zn  Zn134  1  0.05919280  0.06468116  0.31082943  1
  Zn  Zn135  1  0.06794831  0.09833351  0.79110789  1
  Zn  Zn136  1  0.06508951  0.57105037  0.31698608  1
  Zn  Zn137  1  0.05996249  0.56572663  0.81336750  1
  Zn  Zn138  1  0.56045401  0.05883393  0.31024400  1
  Zn  Zn139  1  0.56103212  0.06133875  0.80821337  1
  Zn  Zn140  1  0.55972666  0.56210334  0.29534238  1
  Zn  Zn141  1  0.56410275  0.55916933  0.81761639  1
  Zn  Zn142  1  0.43868754  0.18284147  0.43840840  1
  Zn  Zn143  1  0.43795269  0.19125391  0.93479781  1
  Zn  Zn144  1  0.44872495  0.68477042  0.43238154  1
  Zn  Zn145  1  0.43703480  0.67023060  0.94587343  1
  Zn  Zn146  1  0.93205924  0.18798860  0.43764961  1
  Zn  Zn147  1  0.93677184  0.18800056  0.92924618  1
  Zn  Zn148  1  0.93885722  0.69179489  0.43871711  1
  Zn  Zn149  1  0.93901854  0.68105212  0.93846510  1
  Zn  Zn150  1  0.07274357  0.31252381  0.05581804  1
  Zn  Zn151  1  0.06006113  0.32170026  0.56434186  1
  Zn  Zn152  1  0.06272723  0.81612877  0.05990014  1
  Zn  Zn153  1  0.05467441  0.82210191  0.57533743  1
  Zn  Zn154  1  0.56509562  0.31028760  0.06513872  1
  Zn  Zn155  1  0.56875518  0.30951528  0.56331202  1
  Zn  Zn156  1  0.56624791  0.80632364  0.06256940  1
  Zn  Zn157  1  0.55969944  0.81128282  0.55849381  1
  O  O158  1  0.12292091  0.11554721  0.12466209  1
  O  O159  1  0.13647243  0.11179667  0.62457912  1
  O  O160  1  0.11118488  0.63075968  0.12488490  1
  O  O161  1  0.11275233  0.61853879  0.62999816  1
  O  O162  1  0.61230384  0.12321060  0.11951905  1
  O  O163  1  0.63421044  0.10812011  0.62526724  1
  O  O164  1  0.63575553  0.62567474  0.11706297  1
  O  O165  1  0.62651691  0.61380954  0.61488820  1
  O  O166  1  0.38396395  0.38747069  0.36854128  1
  O  O167  1  0.39410460  0.37247373  0.87075544  1
  O  O168  1  0.36106424  0.89309662  0.37971344  1
  O  O169  1  0.37273683  0.88068123  0.88719073  1
  O  O170  1  0.88611954  0.37645316  0.37793144  1
  O  O171  1  0.87645727  0.38446728  0.88848372  1
  O  O172  1  0.89080430  0.88743340  0.36704399  1
  O  O173  1  0.86911423  0.88400945  0.89120352  1
  O  O174  1  0.25108317  0.00979334  0.36639136  1
  O  O175  1  0.26163236  -0.00577849  0.86617146  1
  O  O176  1  0.25488548  0.51016070  0.37752207  1
  O  O177  1  0.25348629  0.50525659  0.87265495  1
  O  O178  1  0.76232155  -0.01254990  0.35844610  1
  O  O179  1  0.75126369  -0.00858480  0.87185757  1
  O  O180  1  0.75759479  0.49299926  0.36132107  1
  O  O181  1  0.76209403  0.49317184  0.86250983  1
  O  O182  1  0.24919094  0.50580273  0.14445222  1
  O  O183  1  0.23796837  0.49795649  0.63203245  1
  O  O184  1  0.24362530  0.99839878  0.12757145  1
  O  O185  1  0.24825083  0.98963886  0.63014646  1
  O  O186  1  0.75824595  0.48459635  0.13690275  1
  O  O187  1  0.74712940  0.49180899  0.63104001  1
  O  O188  1  0.74787485  0.99167426  0.13395417  1
  O  O189  1  0.74118805  0.98391312  0.64090532  1
  O  O190  1  0.00347174  0.37293594  0.26036704  1
  O  O191  1  -0.04179393  0.30479324  0.70781082  1
  O  O192  1  -0.00473960  0.86578122  0.25114917  1
  O  O193  1  -0.00687316  0.87542432  0.73397357  1
  O  O194  1  0.50616154  0.36730253  0.25773076  1
  O  O195  1  0.50811370  0.36056637  0.75372031  1
  O  O196  1  0.49620163  0.87618611  0.26012955  1
  O  O197  1  0.51006996  0.86074694  0.74781564  1
  O  O198  1  0.49321926  0.12990495  0.24404360  1
  O  O199  1  0.49201005  0.13550613  0.75211427  1
  O  O200  1  0.47892442  0.63759195  0.26320277  1
  O  O201  1  0.49116985  0.62760087  0.74994861  1
  O  O202  1  0.99498287  0.13538074  0.24612159  1
  O  O203  1  0.98103367  0.08937560  0.72676838  1
  O  O204  1  0.99508056  0.62993441  0.24597786  1
  O  O205  1  0.98578203  0.62133377  0.74189423  1
  O  O206  1  0.38012491  0.24873408  0.01549505  1
  O  O207  1  0.37603830  0.24580960  0.51418423  1
  O  O208  1  0.36720228  0.75306734  0.00701298  1
  O  O209  1  0.38440990  0.74337573  0.51591611  1
  O  O210  1  0.86411685  0.25661748  -0.00347254  1
  O  O211  1  0.85539972  0.25986433  0.48766722  1
  O  O212  1  0.87297920  0.76000369  -0.00717563  1
  O  O213  1  0.87434112  0.74903044  0.51574012  1
  O  O214  1  0.12342112  0.25371157  0.49088041  1
  O  O215  1  0.12893375  0.24616463  0.98483580  1
  O  O216  1  0.11517473  0.75907334  0.49026982  1
  O  O217  1  0.13625238  0.75292299  0.99213141  1
  O  O218  1  0.63424397  0.23771780  0.50275278  1
  O  O219  1  0.63910667  0.24213485  1.00343711  1
  O  O220  1  0.62399346  0.73279909  0.49351688  1
  O  O221  1  0.63652395  0.74128503  0.99478042  1
  O  O222  1  0.49173681  0.24252340  0.13382892  1
  O  O223  1  0.48968153  0.25820652  0.63401439  1
  O  O224  1  0.48353857  0.75666398  0.12872872  1
  O  O225  1  0.49398282  0.74540658  0.63827696  1
  O  O226  1  1.00809923  0.25360100  0.13802079  1
  O  O227  1  0.98945337  0.26342031  0.63972181  1
  O  O228  1  1.00455969  0.74876894  0.13652276  1
  O  O229  1  0.98880285  0.74057069  0.62668729  1
  O  O230  1  0.00682154  0.25573382  0.36604320  1
  O  O231  1  -0.00123676  0.25709647  0.86847986  1
  O  O232  1  0.00549875  0.76392402  0.37155622  1
  O  O233  1  0.01856122  0.74205856  0.88171696  1
  O  O234  1  0.48919147  0.25977698  0.36583055  1
  O  O235  1  0.50070553  0.25719137  0.86166456  1
  O  O236  1  0.51606211  0.75294936  0.37299179  1
  O  O237  1  0.50682516  0.73929847  0.86623083  1
  O  O238  1  0.24818216  0.13245753  0.48664262  1
  O  O239  1  0.25826989  0.14714997  1.00205904  1
  O  O240  1  0.25194473  0.62712687  0.49395084  1
  O  O241  1  0.24676700  0.63423066  0.99410879  1
  O  O242  1  0.74149897  0.13795646  0.49119055  1
  O  O243  1  0.74472779  0.13777620  1.00799389  1
  O  O244  1  0.73860953  0.61724925  0.49856959  1
  O  O245  1  0.75156287  0.63578321  1.00906307  1
  O  O246  1  0.25373849  0.34640804  -0.00236151  1
  O  O247  1  0.24758658  0.37729987  0.51555240  1
  O  O248  1  0.25862975  0.86925584  0.00537331  1
  O  O249  1  0.25802257  0.87696868  0.51542352  1
  O  O250  1  0.75551686  0.36533833  0.00470949  1
  O  O251  1  0.75588424  0.37046086  0.49873560  1
  O  O252  1  0.75848963  0.86374124  0.00811332  1
  O  O253  1  0.74631353  0.87941805  0.51877401  1
  O  O254  1  0.13529791  0.49761414  0.25929953  1
  O  O255  1  0.13572372  0.50631062  0.74730091  1
  O  O256  1  0.13382448  1.00608163  0.24016484  1
  O  O257  1  0.13671887  0.99945178  0.73890948  1
  O  O258  1  0.64580126  0.49665507  0.25361684  1
  O  O259  1  0.63689980  0.50469755  0.74082560  1
  O  O260  1  0.64024489  1.00117611  0.24996493  1
  O  O261  1  0.62835945  0.98758660  0.74632880  1
  O  O262  1  0.36181014  0.01215260  0.25480379  1
  O  O263  1  0.37521527  0.00486046  0.75617693  1
  O  O264  1  0.35919920  0.51015711  0.26380436  1
  O  O265  1  0.36615471  0.50939552  0.74539786  1
  O  O266  1  0.86822435  0.00643634  0.25431139  1
  O  O267  1  0.85439024  -0.01203096  0.76759175  1
  O  O268  1  0.87189509  0.50871322  0.24992848  1
  O  O269  1  0.87353731  0.50160253  0.75791543  1
  O  O270  1  0.11232988  0.37059282  0.37174708  1
  O  O271  1  0.12602200  0.35728615  0.86815975  1
  O  O272  1  0.11339180  0.86973541  0.37515651  1
  O  O273  1  0.12892710  0.86302223  0.87205977  1
  O  O274  1  0.61161469  0.38169743  0.36121220  1
  O  O275  1  0.61391292  0.37757930  0.86891904  1
  O  O276  1  0.63072549  0.85940836  0.37986636  1
  O  O277  1  0.62618181  0.85800935  0.86710515  1
  O  O278  1  0.38387450  0.12903126  0.13385207  1
  O  O279  1  0.37326723  0.13890949  0.63246106  1
  O  O280  1  0.36250745  0.63853974  0.13981227  1
  O  O281  1  0.37448844  0.63095890  0.63649445  1
  O  O282  1  0.88050452  0.11895424  0.13849407  1
  O  O283  1  0.83442188  0.12666169  0.63228106  1
  O  O284  1  0.89317550  0.62411461  0.13587692  1
  O  O285  1  0.88448947  0.63157267  0.63332623  1
  O  O286  1  0.26619326  0.24907757  0.13280264  1
  O  O287  1  0.25995765  0.25879742  0.62609346  1
  O  O288  1  0.25081152  0.75844179  0.11888341  1
  O  O289  1  0.25839546  0.76055161  0.63353244  1
  O  O290  1  0.75012029  0.26576164  0.11987284  1
  O  O291  1  0.74302012  0.26754483  0.61283285  1
  O  O292  1  0.75499483  0.75950217  0.11968348  1
  O  O293  1  0.75900538  0.75665344  0.62924803  1
  O  O294  1  0.23977099  0.24700261  0.37293739  1
  O  O295  1  0.24837937  0.24502487  0.87050129  1
  O  O296  1  0.23341847  0.74888790  0.37444978  1
  O  O297  1  0.24563748  0.74411500  0.88287639  1
  O  O298  1  0.73823321  0.25643418  0.37862886  1
  O  O299  1  0.75327070  0.25410438  0.88665060  1
  O  O300  1  0.74309623  0.75055108  0.37423150  1
  O  O301  1  0.74437733  0.75220883  0.88546203  1
  O  O302  1  -0.01308053  0.10905653  0.00122996  1
  O  O303  1  -0.01112175  0.12864937  0.52013665  1
  O  O304  1  0.00242185  0.61250054  0.00656634  1
  O  O305  1  -0.00504555  0.62450767  0.51617481  1
  O  O306  1  0.50581937  0.11848690  0.00553131  1
  O  O307  1  0.51562039  0.12933937  0.50315948  1
  O  O308  1  0.52439972  0.62900952  0.00638244  1
  O  O309  1  0.51039881  0.60915086  0.50227723  1
  O  O310  1  0.51089638  0.38533823  0.49055485  1
  O  O311  1  0.50857588  0.37324540  0.98831935  1
  O  O312  1  0.49824441  0.87863618  0.49263881  1
  O  O313  1  0.49134995  0.88373336  1.00986840  1
  O  O314  1  0.98472338  0.37187221  0.48768683  1
  O  O315  1  0.99447103  0.38594290  1.00736215  1
  O  O316  1  0.99746361  0.88121152  0.48897263  1
  O  O317  1  0.98606748  0.88526032  1.00518527  1
  O  O318  1  0.49115933  0.49436322  0.37919559  1
  O  O319  1  0.49566145  0.48564606  0.87048370  1
  O  O320  1  0.47828748  1.00306033  0.36835526  1
  O  O321  1  0.49120883  1.00051340  0.88696952  1
  O  O322  1  1.00516255  0.48950112  0.37485625  1
  O  O323  1  0.99156175  0.50591600  0.88874684  1
  O  O324  1  0.99530186  0.99207407  0.37660399  1
  O  O325  1  0.98338814  0.99882450  0.88559071  1
  O  O326  1  0.00875900  0.00006801  0.11490702  1
  O  O327  1  0.02567322  -0.01660568  0.61442335  1
  O  O328  1  0.00070403  0.50560198  0.11020153  1
  O  O329  1  0.01213299  0.50886101  0.62985194  1
  O  O330  1  0.49598341  0.00873120  0.11657266  1
  O  O331  1  0.51771131  -0.00550987  0.62993726  1
  O  O332  1  0.51107530  0.51030879  0.16760658  1
  O  O333  1  0.50925262  0.49592522  0.61911115  1
  O  O334  1  0.24094634  0.39298399  0.26161147  1
  O  O335  1  0.25736808  0.38683032  0.73875243  1
  O  O336  1  0.25506259  0.88889340  0.23790729  1
  O  O337  1  0.25543428  0.88648322  0.73909845  1
  O  O338  1  0.74568344  0.38279270  0.24589339  1
  O  O339  1  0.75383041  0.38160663  0.73961024  1
  O  O340  1  0.76244799  0.88202261  0.23532579  1
  O  O341  1  0.73659069  0.87601921  0.74597077  1
  O  O342  1  0.25383732  0.12162348  0.25822626  1
  O  O343  1  0.26495499  0.10992802  0.74395962  1
  O  O344  1  0.25014582  0.61731501  0.26488516  1
  O  O345  1  0.25562827  0.61680617  0.75734744  1
  O  O346  1  0.75670561  0.11200686  0.24262129  1
  O  O347  1  0.73471177  0.10300828  0.76230565  1
  O  O348  1  0.76970412  0.61413641  0.24723941  1
  O  O349  1  0.76755993  0.61187951  0.73922540  1
  O  O350  1  0.36539336  0.12095333  0.36663551  1
  O  O351  1  0.37997412  0.11407228  0.86577490  1
  O  O352  1  0.36432520  0.62083273  0.37324702  1
  O  O353  1  0.36168104  0.63026337  0.86496091  1
  O  O354  1  0.88258449  0.10788894  0.36118264  1
  O  O355  1  0.86643601  0.10845556  0.87945864  1
  O  O356  1  0.88766246  0.62135785  0.36447263  1
  O  O357  1  0.87720142  0.61638252  0.86274662  1
  O  O358  1  0.12267995  0.37482403  0.14152253  1
  O  O359  1  0.12918294  0.39193539  0.62614044  1
  O  O360  1  0.13728547  0.88829050  0.11604555  1
  O  O361  1  0.14174312  0.87977586  0.62776098  1
  O  O362  1  0.63188382  0.37421583  0.13735008  1
  O  O363  1  0.63474567  0.38687787  0.62497562  1
  O  O364  1  0.64377315  0.87344823  0.11849412  1
  O  O365  1  0.63341823  0.87488120  0.63339178  1
  O  O366  1  0.11833224  0.26004891  0.25936872  1
  O  O367  1  0.11488554  0.24855556  0.74964547  1
  O  O368  1  0.10799768  0.74866215  0.26298158  1
  O  O369  1  0.13031588  0.75256685  0.76302595  1
  O  O370  1  0.61347463  0.25671386  0.24605563  1
  O  O371  1  0.61407513  0.24187377  0.73995431  1
  O  O372  1  0.62821699  0.73737964  0.26610277  1
  O  O373  1  0.62001297  0.74762249  0.75644283  1
  O  O374  1  0.38259243  0.24205882  0.24403503  1
  O  O375  1  0.38276067  0.24157757  0.74075133  1
  O  O376  1  0.36399527  0.74566339  0.24364276  1
  O  O377  1  0.38106233  0.74149769  0.74516498  1
  O  O378  1  0.88401985  0.24101721  0.25842319  1
  O  O379  1  0.89537946  0.25996754  0.73589428  1
  O  O380  1  0.89071300  0.73718993  0.25719215  1
  O  O381  1  0.86977044  0.73746420  0.74756414  1
  O  O382  1  0.38474633  0.50499220  0.49352975  1
  O  O383  1  0.39278868  0.53624460  0.99899795  1
  O  O384  1  0.36744287  1.00827264  0.48536968  1
  O  O385  1  0.37968657  0.99456453  0.99436020  1
  O  O386  1  0.86748770  0.48936933  0.49315450  1
  O  O387  1  0.88077341  0.49249634  0.99396930  1
  O  O388  1  0.86641739  1.00151735  0.48033610  1
  O  O389  1  0.87567735  0.99192844  0.99235157  1
  O  O390  1  0.10970157  -0.00297888  0.00020494  1
  O  O391  1  0.13479721  0.00613897  0.51024608  1
  O  O392  1  0.11471819  0.49571270  -0.00829025  1
  O  O393  1  0.12460597  0.50390105  0.51240348  1
  O  O394  1  0.61685402  0.00407001  0.00380840  1
  O  O395  1  0.63673430  0.01252454  0.51131660  1
  O  O396  1  0.63906160  0.51563744  -0.00022511  1
  O  O397  1  0.62109771  0.50593775  0.50554047  1
  O  O398  1  0.37842920  0.36414530  0.13220153  1
  O  O399  1  0.36806210  0.36281630  0.62864325  1
  O  O400  1  0.36269765  0.87008990  0.11505028  1
  O  O401  1  0.36779476  0.86673631  0.62557881  1
  O  O402  1  0.87039527  0.37658441  0.11268663  1
  O  O403  1  0.86750805  0.38200841  0.60454831  1
  O  O404  1  0.86254206  0.88251632  0.10813768  1
  O  O405  1  0.86131888  0.86245135  0.63043643  1
  O  O406  1  0.12795257  0.13512722  0.37674752  1
  O  O407  1  0.12123962  0.14799157  0.87118365  1
  O  O408  1  0.12796745  0.64184424  0.38093603  1
  O  O409  1  0.13747723  0.63403623  0.87617406  1
  O  O410  1  0.62143065  0.11727540  0.38624533  1
  O  O411  1  0.62075402  0.11929940  0.88884766  1
  O  O412  1  0.62357749  0.62516006  0.38419350  1
  O  O413  1  0.63016581  0.63274429  0.88153945  1
