# generated using pymatgen
data_V79Zn79O256
_symmetry_space_group_name_H-M   'P 1'
_cell_length_a   16.96123455
_cell_length_b   16.95813131
_cell_length_c   16.93563005
_cell_angle_alpha   90.02213542
_cell_angle_beta   90.22725033
_cell_angle_gamma   90.00621509
_symmetry_Int_Tables_number   1
_chemical_formula_structural   V79Zn79O256
_chemical_formula_sum   'V79 Zn79 O256'
_cell_volume   4871.17083627
_cell_formula_units_Z   1
loop_
 _symmetry_equiv_pos_site_id
 _symmetry_equiv_pos_as_xyz
  1  'x, y, z'
loop_
 _atom_site_type_symbol
 _atom_site_label
 _atom_site_symmetry_multiplicity
 _atom_site_fract_x
 _atom_site_fract_y
 _atom_site_fract_z
 _atom_site_occupancy
  V  V0  1  0.11604831  0.26990900  0.86451706  1
  V  V1  1  0.11788861  0.62168498  0.49857704  1
  V  V2  1  0.74742539  0.26130808  0.50230298  1
  V  V3  1  0.24240045  0.87718563  0.62652314  1
  V  V4  1  0.37299714  0.74712388  0.13378328  1
  V  V5  1  0.02345810  0.37076092  0.34321661  1
  V  V6  1  0.23975166  0.00672606  0.75217410  1
  V  V7  1  0.59017881  0.50410071  0.61033767  1
  V  V8  1  0.75863463  -0.00366054  0.74823195  1
  V  V9  1  0.37045949  0.12786663  0.75923725  1
  V  V10  1  0.02686238  0.75619291  0.75460709  1
  V  V11  1  0.49690500  0.62066761  0.13002290  1
  V  V12  1  0.38193614  0.63512450  0.74826100  1
  V  V13  1  0.24942500  0.24934816  -0.01190654  1
  V  V14  1  0.00421282  0.75077999  0.25230719  1
  V  V15  1  -0.00958201  0.13471182  0.62031820  1
  V  V16  1  0.91418759  0.44590427  0.81557149  1
  V  V17  1  0.38658652  0.75278462  0.63205871  1
  V  V18  1  0.75115680  0.49971387  0.25627449  1
  V  V19  1  -0.00088021  0.87702777  0.38258945  1
  V  V20  1  0.75622455  0.89084461  0.12034382  1
  V  V21  1  0.38342508  0.37903145  -0.00217960  1
  V  V22  1  0.37135959  0.61113377  0.25936986  1
  V  V23  1  0.74776104  0.12742727  0.87589911  1
  V  V24  1  0.37300038  0.25046402  0.12543288  1
  V  V25  1  0.85922596  0.86119518  0.49972110  1
  V  V26  1  0.50467385  0.11347738  0.12433475  1
  V  V27  1  0.49334283  0.38576086  0.37862738  1
  V  V28  1  0.11683376  0.49883706  0.62486707  1
  V  V29  1  0.13284983  0.14587067  0.48921235  1
  V  V30  1  0.87238264  0.64558709  0.74615531  1
  V  V31  1  0.12663341  0.49584764  0.13156416  1
  V  V32  1  0.49992129  -0.00426512  0.50323185  1
  V  V33  1  0.61491423  0.86915535  0.75847529  1
  V  V34  1  0.24664627  0.74965271  0.50026469  1
  V  V35  1  0.49820634  0.24923263  0.24847672  1
  V  V36  1  0.87859626  0.00329466  0.38313953  1
  V  V37  1  0.74759018  0.49603186  0.75129360  1
  V  V38  1  0.54360982  0.17059205  0.67878881  1
  V  V39  1  0.75111480  0.36806908  0.11964503  1
  V  V40  1  0.24529721  0.49586118  0.74985507  1
  V  V41  1  0.75059440  0.12398100  0.37456801  1
  V  V42  1  0.61454798  0.75400580  0.87870873  1
  V  V43  1  0.62423418  -0.00953960  0.62892697  1
  V  V44  1  0.88323703  0.13188744  0.25306710  1
  V  V45  1  0.61873525  0.62513234  0.00068436  1
  V  V46  1  0.50381691  0.86665733  0.36616070  1
  V  V47  1  -0.00774072  0.63356604  0.62114937  1
  V  V48  1  0.12284289  0.12622287  -0.00740352  1
  V  V49  1  0.37770586  0.39450252  0.49798602  1
  V  V50  1  0.73423643  0.64322637  0.37361806  1
  V  V51  1  0.12521552  0.62557531  -0.00311178  1
  V  V52  1  0.24673118  0.37709009  0.12872592  1
  V  V53  1  0.89493129  0.00534796  0.86567754  1
  V  V54  1  0.24418556  0.62528723  0.87419425  1
  V  V55  1  0.37286136  0.00236762  0.37795408  1
  V  V56  1  0.88147231  0.75329925  0.12078226  1
  V  V57  1  0.75549894  0.75246771  -0.00044870  1
  V  V58  1  0.00111226  0.62012992  0.12333498  1
  V  V59  1  0.36616890  0.23738014  0.61251434  1
  V  V60  1  0.88440478  0.25129484  0.12673120  1
  V  V61  1  0.76085542  0.62367797  0.87957740  1
  V  V62  1  0.88511829  0.38007013  0.00341631  1
  V  V63  1  0.24598056  0.37417496  0.61896222  1
  V  V64  1  0.62104194  0.12553511  0.49740712  1
  V  V65  1  0.11833340  0.00238506  0.12816081  1
  V  V66  1  0.62294436  0.25162907  0.37641463  1
  V  V67  1  0.11535388  0.00299751  0.60920651  1
  V  V68  1  0.25349324  0.75246685  0.00369138  1
  V  V69  1  0.87346601  0.25694866  0.63127744  1
  V  V70  1  0.38656364  0.50258398  0.87868629  1
  V  V71  1  0.36777022  -0.02030471  0.88065934  1
  V  V72  1  0.89810073  0.88103981  -0.01170216  1
  V  V73  1  0.87967992  0.38530553  0.49100330  1
  V  V74  1  0.87464741  0.62092414  0.25449993  1
  V  V75  1  0.62343591  0.37435585  0.24739533  1
  V  V76  1  0.37155997  0.12363914  0.25700310  1
  V  V77  1  0.25221136  -0.00035293  0.25553497  1
  V  V78  1  0.62312584  0.50023879  0.11873353  1
  Zn  Zn79  1  0.06947200  0.91703550  0.81312104  1
  Zn  Zn80  1  0.25411202  0.88144720  0.12574338  1
  Zn  Zn81  1  0.63396965  0.11221974  0.00630674  1
  Zn  Zn82  1  0.00124631  0.49950951  -0.01522708  1
  Zn  Zn83  1  0.76271017  0.83213063  0.63626474  1
  Zn  Zn84  1  0.62818168  0.87267686  0.25397278  1
  Zn  Zn85  1  0.24547733  0.48861003  0.26681775  1
  Zn  Zn86  1  0.00176163  0.12852727  0.12822316  1
  Zn  Zn87  1  0.12806625  0.74906497  0.37422897  1
  Zn  Zn88  1  0.51450414  -0.03914677  -0.01256391  1
  Zn  Zn89  1  0.37616900  0.87383461  0.50161514  1
  Zn  Zn90  1  0.12744245  0.87496103  0.25262717  1
  Zn  Zn91  1  0.25183479  0.61379429  0.38224606  1
  Zn  Zn92  1  0.74674308  0.00654048  0.24198712  1
  Zn  Zn93  1  0.53506983  0.39079395  -0.14789127  1
  Zn  Zn94  1  0.19519151  0.18369595  0.18206751  1
  Zn  Zn95  1  0.18467680  0.18867158  0.68247777  1
  Zn  Zn96  1  0.18917740  0.67864985  0.19041071  1
  Zn  Zn97  1  0.19075292  0.68310838  0.68252682  1
  Zn  Zn98  1  0.68797258  0.18837761  0.18660834  1
  Zn  Zn99  1  0.71111263  0.18135867  0.69356855  1
  Zn  Zn100  1  0.68464081  0.69288769  0.19749428  1
  Zn  Zn101  1  0.67883085  0.67300259  0.69209830  1
  Zn  Zn102  1  0.31150656  0.31497218  0.31458332  1
  Zn  Zn103  1  0.35223158  0.32763117  0.79427523  1
  Zn  Zn104  1  0.31842441  0.81317211  0.31176284  1
  Zn  Zn105  1  0.24355884  0.83056495  0.83082887  1
  Zn  Zn106  1  0.81700027  0.31294972  0.31515132  1
  Zn  Zn107  1  0.81933586  0.30414591  0.81844350  1
  Zn  Zn108  1  0.81738017  0.81521540  0.30772380  1
  Zn  Zn109  1  0.81088425  0.81813831  0.81695517  1
  Zn  Zn110  1  0.18258587  0.43484563  0.44011236  1
  Zn  Zn111  1  0.19148685  0.43840935  0.94061783  1
  Zn  Zn112  1  0.18655946  0.93705609  0.43699570  1
  Zn  Zn113  1  0.19344271  0.94709272  0.94812623  1
  Zn  Zn114  1  0.67563243  0.44528154  0.44173294  1
  Zn  Zn115  1  0.69936530  0.44384379  0.93057365  1
  Zn  Zn116  1  0.68397587  0.93781586  0.43287272  1
  Zn  Zn117  1  0.70151765  0.94014906  0.93855666  1
  Zn  Zn118  1  0.30927226  0.06566612  0.06546669  1
  Zn  Zn119  1  0.30529231  0.06354756  0.55826888  1
  Zn  Zn120  1  0.31205763  0.55966203  0.06241328  1
  Zn  Zn121  1  0.30964919  0.56619759  0.56632288  1
  Zn  Zn122  1  0.82965031  0.06768930  0.05077955  1
  Zn  Zn123  1  0.80952922  0.05954661  0.55972903  1
  Zn  Zn124  1  0.81141656  0.55916026  0.06640771  1
  Zn  Zn125  1  0.79158028  0.57191264  0.55980843  1
  Zn  Zn126  1  0.43748402  0.43637207  0.18386730  1
  Zn  Zn127  1  0.42718767  0.44372274  0.68622484  1
  Zn  Zn128  1  0.46288332  0.91246626  0.15909930  1
  Zn  Zn129  1  0.43435767  0.93829871  0.69194937  1
  Zn  Zn130  1  0.94071150  0.43611256  0.19463822  1
  Zn  Zn131  1  0.90456896  0.46787317  0.64143847  1
  Zn  Zn132  1  0.93354869  0.94163656  0.19513356  1
  Zn  Zn133  1  0.93787794  0.93161721  0.67693491  1
  Zn  Zn134  1  0.06305738  0.06276939  0.31704015  1
  Zn  Zn135  1  0.06330338  0.09326101  0.80339197  1
  Zn  Zn136  1  0.05886773  0.55344489  0.31971404  1
  Zn  Zn137  1  0.05992235  0.56678985  0.80532986  1
  Zn  Zn138  1  0.56244913  0.05132962  0.30627339  1
  Zn  Zn139  1  0.57418460  0.03673375  0.84393582  1
  Zn  Zn140  1  0.56205805  0.56396612  0.30885062  1
  Zn  Zn141  1  0.57324451  0.57030351  0.79538115  1
  Zn  Zn142  1  0.44101760  0.18851061  0.43669861  1
  Zn  Zn143  1  0.43420664  0.17696223  0.94868006  1
  Zn  Zn144  1  0.43093944  0.69020345  0.43856330  1
  Zn  Zn145  1  0.43309073  0.68903873  0.94004712  1
  Zn  Zn146  1  0.94751573  0.19865345  0.44065141  1
  Zn  Zn147  1  0.94065953  0.19348509  0.94116657  1
  Zn  Zn148  1  0.93229998  0.68646184  0.43650424  1
  Zn  Zn149  1  0.94643490  0.69359028  0.93248243  1
  Zn  Zn150  1  0.06397046  0.31031504  0.06274030  1
  Zn  Zn151  1  0.05781789  0.31740015  0.55673784  1
  Zn  Zn152  1  0.07272707  0.81264074  0.06373571  1
  Zn  Zn153  1  0.05888447  0.81256345  0.56263547  1
  Zn  Zn154  1  0.59165735  0.33064415  0.01925160  1
  Zn  Zn155  1  0.55560992  0.33300399  0.68674108  1
  Zn  Zn156  1  0.57643641  0.80349708  0.09029448  1
  Zn  Zn157  1  0.59564890  0.77765293  0.58729332  1
  O  O158  1  0.12226225  0.11725733  0.12580625  1
  O  O159  1  0.11840287  0.11800724  0.61503727  1
  O  O160  1  0.11835640  0.61714590  0.11706062  1
  O  O161  1  0.11638761  0.61969817  0.61779100  1
  O  O162  1  0.61045137  0.13330470  0.12102039  1
  O  O163  1  0.61678668  0.11666827  0.62157901  1
  O  O164  1  0.61801929  0.61909625  0.12110180  1
  O  O165  1  0.60579281  0.58756597  0.67660625  1
  O  O166  1  0.37620295  0.36791418  0.39010599  1
  O  O167  1  0.37008283  0.38960337  0.88521255  1
  O  O168  1  0.38139132  0.88698449  0.37990165  1
  O  O169  1  0.35101600  0.88317035  0.86757242  1
  O  O170  1  0.85607593  0.38747009  0.39201840  1
  O  O171  1  0.87880450  0.37519257  0.89424855  1
  O  O172  1  0.87800985  0.88281865  0.38081389  1
  O  O173  1  0.88246853  0.88226345  0.88251119  1
  O  O174  1  0.26025343  -0.00496680  0.36899737  1
  O  O175  1  0.25196029  0.00482975  0.85524349  1
  O  O176  1  0.24665078  0.50102916  0.37818228  1
  O  O177  1  0.25689479  0.50839023  0.86792836  1
  O  O178  1  0.75826967  0.01352222  0.37748541  1
  O  O179  1  0.77022982  0.00256191  0.86472218  1
  O  O180  1  0.73671067  0.50874345  0.35784055  1
  O  O181  1  0.76853236  0.51842967  0.87921084  1
  O  O182  1  0.24070125  0.49187545  0.12164960  1
  O  O183  1  0.24067005  0.49623757  0.63154769  1
  O  O184  1  0.24401033  1.00008133  0.13803378  1
  O  O185  1  0.23913580  0.99566385  0.62867339  1
  O  O186  1  0.74040216  0.49410817  0.13444084  1
  O  O187  1  0.74696821  0.51015448  0.65042933  1
  O  O188  1  0.77864765  0.99180837  0.12115751  1
  O  O189  1  0.73591546  1.00732745  0.63337482  1
  O  O190  1  0.01767330  0.36846170  0.23991695  1
  O  O191  1  -0.03408284  0.39208298  0.75538223  1
  O  O192  1  -0.00174546  0.86417901  0.25750303  1
  O  O193  1  0.00578033  0.85995582  0.73724263  1
  O  O194  1  0.50158047  0.36551343  0.25370173  1
  O  O195  1  0.47394798  0.36589689  0.76003481  1
  O  O196  1  0.49567358  0.88135156  0.26490917  1
  O  O197  1  0.51653720  0.88068591  0.75264185  1
  O  O198  1  0.49357525  0.13508301  0.25185364  1
  O  O199  1  0.48692689  0.11572797  0.74448929  1
  O  O200  1  0.48618556  0.61857677  0.23939101  1
  O  O201  1  0.47911050  0.63221994  0.76103338  1
  O  O202  1  0.98581884  0.12256476  0.25249648  1
  O  O203  1  1.00060997  0.13004047  0.72113399  1
  O  O204  1  0.99381949  0.63096166  0.24294704  1
  O  O205  1  0.99258444  0.64232806  0.74268999  1
  O  O206  1  0.36646916  0.25438375  0.00444221  1
  O  O207  1  0.37510477  0.24528663  0.51157664  1
  O  O208  1  0.35979649  0.73605662  0.01485585  1
  O  O209  1  0.36432849  0.74732686  0.51691375  1
  O  O210  1  0.87945785  0.26480464  0.01249074  1
  O  O211  1  0.86320803  0.26473495  0.50148623  1
  O  O212  1  0.87581520  0.75782790  0.00279230  1
  O  O213  1  0.86795324  0.76189874  0.49280278  1
  O  O214  1  0.12743102  0.24578294  0.50457058  1
  O  O215  1  0.13010184  0.24357057  0.99238166  1
  O  O216  1  0.13200262  0.74233210  0.50109500  1
  O  O217  1  0.13901028  0.73402636  1.01086482  1
  O  O218  1  0.63070202  0.23517068  0.49475588  1
  O  O219  1  0.58473738  0.22037665  0.97922237  1
  O  O220  1  0.58135880  0.69824433  0.49759252  1
  O  O221  1  0.63851523  0.74323202  1.00017772  1
  O  O222  1  0.49103134  0.23955116  0.14014771  1
  O  O223  1  0.48584557  0.24086738  0.62990350  1
  O  O224  1  0.47852853  0.73064419  0.11950151  1
  O  O225  1  0.48473277  0.75956505  0.62503915  1
  O  O226  1  0.98898025  0.24956578  0.12699959  1
  O  O227  1  0.98527986  0.24503522  0.61752358  1
  O  O228  1  0.99857355  0.74144912  0.13028705  1
  O  O229  1  1.00792548  0.74094390  0.63730678  1
  O  O230  1  -0.02215971  0.28097281  0.37059043  1
  O  O231  1  0.01743965  0.24698402  0.87602021  1
  O  O232  1  -0.00253806  0.75646467  0.36403102  1
  O  O233  1  0.00308039  0.74979494  0.85270568  1
  O  O234  1  0.50351221  0.25787096  0.36649892  1
  O  O235  1  0.53335512  0.22477511  0.91344917  1
  O  O236  1  0.48472490  0.76943692  0.37799782  1
  O  O237  1  0.51587684  0.74958200  0.88985208  1
  O  O238  1  0.23266199  0.12677588  0.50158913  1
  O  O239  1  0.23641828  0.14053988  1.01212688  1
  O  O240  1  0.23842685  0.63454664  0.50407376  1
  O  O241  1  0.24221580  0.62545822  0.99289286  1
  O  O242  1  0.74025572  0.12870733  0.49094015  1
  O  O243  1  0.74995240  0.11150351  0.98282717  1
  O  O244  1  0.75328238  0.62768312  0.47168996  1
  O  O245  1  0.75038587  0.63607849  0.99848799  1
  O  O246  1  0.25896780  0.36820782  0.00905024  1
  O  O247  1  0.26132725  0.37862570  0.51181598  1
  O  O248  1  0.24598843  0.85445412  0.00775639  1
  O  O249  1  0.25140045  0.86856543  0.50961780  1
  O  O250  1  0.76532405  0.38464753  0.01422444  1
  O  O251  1  0.74057107  0.36258291  0.49765618  1
  O  O252  1  0.77363413  0.86964865  0.00164900  1
  O  O253  1  0.75838684  0.87552534  0.49335227  1
  O  O254  1  0.12913447  0.51125859  0.23389927  1
  O  O255  1  0.13651850  0.50792219  0.74031095  1
  O  O256  1  0.13459854  1.00368386  0.24352370  1
  O  O257  1  0.13366891  1.01090936  0.74169171  1
  O  O258  1  0.63065341  0.49271782  0.23690880  1
  O  O259  1  0.65233904  0.48281622  0.78610490  1
  O  O260  1  0.63711024  0.98723255  0.25502186  1
  O  O261  1  0.63411817  0.98716345  0.74975608  1
  O  O262  1  0.36789559  0.00761746  0.26115356  1
  O  O263  1  0.36461438  0.00897632  0.75447039  1
  O  O264  1  0.37108613  0.50833080  0.24528995  1
  O  O265  1  0.36330677  0.51635252  0.75537249  1
  O  O266  1  0.86813115  0.01196618  0.26224411  1
  O  O267  1  0.87241642  -0.01388567  0.75792063  1
  O  O268  1  0.86307915  0.51116944  0.23692114  1
  O  O269  1  0.87427329  0.52294414  0.74803861  1
  O  O270  1  0.11991331  0.36754424  0.37603563  1
  O  O271  1  0.12397062  0.37016768  0.87655142  1
  O  O272  1  0.11333974  0.87173288  0.37414859  1
  O  O273  1  0.14818863  0.87565951  0.87583071  1
  O  O274  1  0.61505226  0.37040600  0.36923168  1
  O  O275  1  0.62163858  0.36809763  0.91471117  1
  O  O276  1  0.60889500  0.87338430  0.37671607  1
  O  O277  1  0.63491518  0.86833757  0.86593945  1
  O  O278  1  0.38129271  0.13019285  0.13791793  1
  O  O279  1  0.36896741  0.13432899  0.62876531  1
  O  O280  1  0.37908428  0.62242255  0.13367833  1
  O  O281  1  0.36869205  0.63797636  0.63770100  1
  O  O282  1  0.87800336  0.13422311  0.13198146  1
  O  O283  1  0.88524198  0.13250403  0.60867416  1
  O  O284  1  0.88340609  0.63496504  0.12759711  1
  O  O285  1  0.88377356  0.62218467  0.62947752  1
  O  O286  1  0.25456483  0.25923946  0.11863214  1
  O  O287  1  0.26093942  0.25970865  0.62956266  1
  O  O288  1  0.25706628  0.73912478  0.11724034  1
  O  O289  1  0.25009461  0.76063912  0.61873716  1
  O  O290  1  0.75615449  0.26205201  0.12745478  1
  O  O291  1  0.76270971  0.23699143  0.61154364  1
  O  O292  1  0.76726914  0.75931653  0.11320109  1
  O  O293  1  0.70302663  0.74163080  0.60832849  1
  O  O294  1  0.21786404  0.24298212  0.33901474  1
  O  O295  1  0.23929772  0.25692344  0.88776908  1
  O  O296  1  0.25256507  0.74895317  0.39014102  1
  O  O297  1  0.25505917  0.73522981  0.89297699  1
  O  O298  1  0.74362365  0.24196497  0.38248901  1
  O  O299  1  0.76609001  0.22595350  0.87178291  1
  O  O300  1  0.74759143  0.74226262  0.35636162  1
  O  O301  1  0.74593905  0.74742504  0.88742542  1
  O  O302  1  0.01890173  0.13076317  0.00722971  1
  O  O303  1  0.01333906  0.13239188  0.51045543  1
  O  O304  1  0.00699502  0.62661287  0.00671218  1
  O  O305  1  0.00634715  0.63537248  0.50838244  1
  O  O306  1  0.48328795  0.10155464  0.02418085  1
  O  O307  1  0.51271634  0.11330723  0.49259337  1
  O  O308  1  0.51367242  0.62713133  0.00715354  1
  O  O309  1  0.52277318  0.64871030  0.50249719  1
  O  O310  1  0.48122291  0.37586685  0.49018501  1
  O  O311  1  0.48193223  0.36991061  1.00626379  1
  O  O312  1  0.49798281  0.89003710  0.49046966  1
  O  O313  1  0.49874554  0.87838367  1.05557933  1
  O  O314  1  0.98050186  0.38088526  0.49994769  1
  O  O315  1  0.98926571  0.38107355  1.01017409  1
  O  O316  1  0.98664802  0.86628979  0.48760725  1
  O  O317  1  0.99608778  0.86374434  0.99622349  1
  O  O318  1  0.50218839  0.48419528  0.36453519  1
  O  O319  1  0.48852555  0.50547155  0.86334629  1
  O  O320  1  0.49042097  0.99466218  0.38215827  1
  O  O321  1  0.47322539  0.99177242  0.87988869  1
  O  O322  1  0.99502843  0.47090609  0.35991214  1
  O  O323  1  0.98498433  0.50433329  0.86765200  1
  O  O324  1  0.98963723  0.98678751  0.36695965  1
  O  O325  1  0.99768395  1.00285541  0.85175196  1
  O  O326  1  0.01550493  0.00123721  0.13430822  1
  O  O327  1  0.01172664  0.00724585  0.62408473  1
  O  O328  1  0.00627475  0.51283682  0.12685120  1
  O  O329  1  0.01005100  0.51676274  0.63426746  1
  O  O330  1  0.49995341  0.01962400  0.15524205  1
  O  O331  1  0.51151658  -0.00617917  0.61838317  1
  O  O332  1  0.51359247  0.50506350  0.12588713  1
  O  O333  1  0.48868678  0.50216748  0.61268030  1
  O  O334  1  0.25747246  0.37618194  0.23314196  1
  O  O335  1  0.26753143  0.38939195  0.73431992  1
  O  O336  1  0.24794063  0.88529001  0.25055579  1
  O  O337  1  0.24872323  0.89427133  0.73495482  1
  O  O338  1  0.74381856  0.38124114  0.24237523  1
  O  O339  1  0.79364653  0.40424953  0.77037830  1
  O  O340  1  0.76104763  0.87596535  0.22648816  1
  O  O341  1  0.74568253  0.88159797  0.74490239  1
  O  O342  1  0.26366705  0.11447864  0.24664313  1
  O  O343  1  0.26060965  0.11375363  0.73890316  1
  O  O344  1  0.26134195  0.61745380  0.25534441  1
  O  O345  1  0.25398382  0.61905570  0.75846170  1
  O  O346  1  0.75675756  0.12878323  0.26174387  1
  O  O347  1  0.76178292  0.10598620  0.75882242  1
  O  O348  1  0.75631763  0.62008390  0.24922346  1
  O  O349  1  0.75658159  0.61791334  0.76238822  1
  O  O350  1  0.38115359  0.11651097  0.36756521  1
  O  O351  1  0.37546038  0.12579724  0.86040538  1
  O  O352  1  0.37820434  0.62429097  0.36229414  1
  O  O353  1  0.36519343  0.62190194  0.86873204  1
  O  O354  1  0.86995945  0.12345563  0.37309375  1
  O  O355  1  0.88004033  0.10709341  0.88197001  1
  O  O356  1  0.86830113  0.63021448  0.35694947  1
  O  O357  1  0.86742578  0.64224310  0.86406744  1
  O  O358  1  0.13516236  0.38505460  0.11406621  1
  O  O359  1  0.13297239  0.38688682  0.61667012  1
  O  O360  1  0.12946104  0.89038201  0.12818851  1
  O  O361  1  0.12901124  0.89176959  0.61682035  1
  O  O362  1  0.63230779  0.38002887  0.12101360  1
  O  O363  1  0.61782559  0.40983878  0.63996349  1
  O  O364  1  0.66037827  0.89383079  0.09820571  1
  O  O365  1  0.62805125  0.88072450  0.63967697  1
  O  O366  1  0.16330974  0.24187051  0.28519959  1
  O  O367  1  0.13441014  0.24282501  0.76821168  1
  O  O368  1  0.11521910  0.74862576  0.24954619  1
  O  O369  1  0.12731158  0.74880824  0.75328431  1
  O  O370  1  0.61718770  0.25558422  0.25544815  1
  O  O371  1  0.60977916  0.23332039  0.72835573  1
  O  O372  1  0.61511752  0.77645439  0.19755009  1
  O  O373  1  0.62823198  0.76151106  0.76284954  1
  O  O374  1  0.37960129  0.24317572  0.24920277  1
  O  O375  1  0.37031882  0.23159911  0.73926197  1
  O  O376  1  0.36528361  0.73096991  0.23940843  1
  O  O377  1  0.36576503  0.74204515  0.73951262  1
  O  O378  1  0.86682663  0.24176662  0.24060004  1
  O  O379  1  0.86578788  0.24807217  0.72978527  1
  O  O380  1  0.88565744  0.74359949  0.23719587  1
  O  O381  1  0.86137922  0.74644487  0.73898789  1
  O  O382  1  0.37182164  0.49323788  0.50245282  1
  O  O383  1  0.37123283  0.49432159  0.98931870  1
  O  O384  1  0.38198422  1.00329366  0.49547415  1
  O  O385  1  0.34534946  0.99853412  0.97965905  1
  O  O386  1  0.85928167  0.48139314  0.52836310  1
  O  O387  1  0.88149722  0.48674026  1.01217523  1
  O  O388  1  0.87212418  0.99284607  0.48736775  1
  O  O389  1  0.89032601  0.98828629  0.98413663  1
  O  O390  1  0.13625651  0.01575850  0.01810826  1
  O  O391  1  0.12582078  0.00743182  0.50816596  1
  O  O392  1  0.12061289  0.51007266  0.00740229  1
  O  O393  1  0.12680868  0.51272137  0.51293569  1
  O  O394  1  0.61344177  0.00846266  -0.04088126  1
  O  O395  1  0.62130308  0.00633458  0.50933670  1
  O  O396  1  0.64047590  0.51662016  0.01015804  1
  O  O397  1  0.62773382  0.51499434  0.51542809  1
  O  O398  1  0.36760600  0.37055299  0.11761869  1
  O  O399  1  0.36983559  0.36510509  0.61111966  1
  O  O400  1  0.36661944  0.84980725  0.13880976  1
  O  O401  1  0.36489315  0.86570220  0.62669010  1
  O  O402  1  0.87013818  0.36885250  0.12366653  1
  O  O403  1  0.87216103  0.35882897  0.61553473  1
  O  O404  1  0.88254443  0.86852524  0.11107403  1
  O  O405  1  0.86659758  0.87791296  0.60559431  1
  O  O406  1  0.11562688  0.12651636  0.39069976  1
  O  O407  1  0.12783251  0.12270412  0.89151676  1
  O  O408  1  0.12061253  0.62720005  0.38717610  1
  O  O409  1  0.13299798  0.61649335  0.88361724  1
  O  O410  1  0.63163340  0.12823400  0.37961924  1
  O  O411  1  0.64805152  0.12399871  0.85872082  1
  O  O412  1  0.63465078  0.63297365  0.35704600  1
  O  O413  1  0.63748154  0.63467790  0.88312767  1
