# generated using pymatgen
data_V79Zn79O256
_symmetry_space_group_name_H-M   'P 1'
_cell_length_a   16.93946975
_cell_length_b   16.94306962
_cell_length_c   16.97585443
_cell_angle_alpha   90.30508362
_cell_angle_beta   90.24380847
_cell_angle_gamma   89.91298184
_symmetry_Int_Tables_number   1
_chemical_formula_structural   V79Zn79O256
_chemical_formula_sum   'V79 Zn79 O256'
_cell_volume   4872.06389126
_cell_formula_units_Z   1
loop_
 _symmetry_equiv_pos_site_id
 _symmetry_equiv_pos_as_xyz
  1  'x, y, z'
loop_
 _atom_site_type_symbol
 _atom_site_label
 _atom_site_symmetry_multiplicity
 _atom_site_fract_x
 _atom_site_fract_y
 _atom_site_fract_z
 _atom_site_occupancy
  V  V0  1  0.00134538  0.00270263  0.01182513  1
  V  V1  1  -0.00424873  0.37144318  0.87090625  1
  V  V2  1  0.12424374  -0.00945645  0.63212872  1
  V  V3  1  0.87724042  -0.00091429  0.87221422  1
  V  V4  1  0.51879295  0.12695174  0.12188868  1
  V  V5  1  0.62615558  0.87302639  0.74596830  1
  V  V6  1  0.74664399  -0.00600802  0.74592710  1
  V  V7  1  0.74493057  0.38811430  0.62381035  1
  V  V8  1  0.26155410  0.87352555  0.62648333  1
  V  V9  1  0.25092790  0.37209843  0.62923115  1
  V  V10  1  0.13154976  0.12343243  0.49175360  1
  V  V11  1  0.75272074  0.73265953  -0.00166012  1
  V  V12  1  0.62820537  0.37526768  0.23537586  1
  V  V13  1  0.37508607  0.12062968  0.74869824  1
  V  V14  1  0.74553131  0.25620973  0.00172708  1
  V  V15  1  0.75529897  0.62181950  0.84765308  1
  V  V16  1  0.00306852  0.13318238  0.63192711  1
  V  V17  1  0.37223394  0.24868687  0.62823402  1
  V  V18  1  0.37847867  0.62103369  0.73438084  1
  V  V19  1  0.00025999  0.87257588  0.37900406  1
  V  V20  1  0.37596961  0.87328108  0.47893908  1
  V  V21  1  0.87763133  0.74543819  0.12563342  1
  V  V22  1  0.74554052  0.12399102  0.87681344  1
  V  V23  1  0.86305672  0.24566693  0.62712283  1
  V  V24  1  0.52275603  0.00706412  0.00098039  1
  V  V25  1  0.87882477  0.87233358  -0.00201452  1
  V  V26  1  0.25248434  0.25076489  0.00148692  1
  V  V27  1  0.75276949  0.87817012  0.12151914  1
  V  V28  1  0.12373271  0.50142911  0.61809287  1
  V  V29  1  0.13096002  0.87912445  0.24726923  1
  V  V30  1  0.62533438  0.74287825  0.87862343  1
  V  V31  1  -0.00151118  0.62313981  0.12699859  1
  V  V32  1  0.85939421  0.86917370  0.50952398  1
  V  V33  1  0.24798964  0.24395299  0.48249482  1
  V  V34  1  0.00013327  -0.00084401  0.50485495  1
  V  V35  1  0.25316188  0.38104818  0.12779383  1
  V  V36  1  0.12937666  0.50004620  0.13060867  1
  V  V37  1  0.87754749  0.49738173  0.38140980  1
  V  V38  1  0.24875409  0.12255777  0.87784413  1
  V  V39  1  0.00713643  0.87320313  0.86704605  1
  V  V40  1  0.24423624  0.73204952  0.50919502  1
  V  V41  1  0.12412605  0.62403346  -0.00132487  1
  V  V42  1  0.26320074  0.61713200  0.87780921  1
  V  V43  1  0.87707634  0.37250929  0.50224571  1
  V  V44  1  0.73958858  0.12499683  0.39228849  1
  V  V45  1  0.37698193  0.37972224  0.49251750  1
  V  V46  1  0.12352500  0.73636424  0.38495302  1
  V  V47  1  0.12483713  0.37239110  0.75306262  1
  V  V48  1  0.61864029  0.87935985  0.23909543  1
  V  V49  1  0.50145324  0.25339811  0.75370996  1
  V  V50  1  0.57125751  0.56343362  0.06005204  1
  V  V51  1  0.64225669  0.75108104  0.37870468  1
  V  V52  1  0.51500618  0.71817541  0.25181909  1
  V  V53  1  0.62351157  0.24898678  0.87221052  1
  V  V54  1  0.00069433  0.36635766  0.37798600  1
  V  V55  1  0.37867189  -0.00198246  0.88658636  1
  V  V56  1  0.11800461  0.24683940  0.87144775  1
  V  V57  1  0.63059347  0.26147072  0.39341398  1
  V  V58  1  0.86851158  0.00139427  0.37926181  1
  V  V59  1  0.24476456  -0.01146726  0.75756749  1
  V  V60  1  0.86970061  0.37725248  0.00566787  1
  V  V61  1  0.38563384  0.38830062  -0.00792817  1
  V  V62  1  0.75042513  0.00174000  0.24555064  1
  V  V63  1  0.49815710  0.87422938  0.88677269  1
  V  V64  1  0.26225724  0.75577597  0.00368390  1
  V  V65  1  0.48850841  0.75050890  0.74643531  1
  V  V66  1  0.37843350  0.25085821  0.13231538  1
  V  V67  1  0.51024869  0.11437694  0.62136043  1
  V  V68  1  0.62948271  0.38648352  0.75025943  1
  V  V69  1  0.87069977  0.50130144  0.85727565  1
  V  V70  1  -0.00046008  0.73594208  0.74682967  1
  V  V71  1  0.87171947  0.62229664  0.25424896  1
  V  V72  1  0.39705799  0.74375580  0.13088585  1
  V  V73  1  0.11847113  0.12572962  0.01715709  1
  V  V74  1  0.86115508  0.74440335  0.62884278  1
  V  V75  1  0.12451602  0.75111943  0.87091330  1
  V  V76  1  0.75313131  0.49044527  0.23305275  1
  V  V77  1  0.37090343  0.11241842  0.25554351  1
  V  V78  1  0.12576125  0.36973697  0.26198878  1
  Zn  Zn79  1  0.67905606  0.93285134  0.57978961  1
  Zn  Zn80  1  0.88067231  0.12366157  0.23679449  1
  Zn  Zn81  1  -0.00080499  0.74761308  0.25611950  1
  Zn  Zn82  1  0.88529023  0.23910583  0.12277747  1
  Zn  Zn83  1  0.50181557  0.00754007  0.48481501  1
  Zn  Zn84  1  0.75098972  0.62402923  0.40272867  1
  Zn  Zn85  1  -0.00908083  0.50126326  -0.00169083  1
  Zn  Zn86  1  0.26413469  0.48981455  0.75830045  1
  Zn  Zn87  1  -0.00281045  0.61492453  0.61618038  1
  Zn  Zn88  1  0.88124040  0.13447898  0.75663261  1
  Zn  Zn89  1  0.26470940  0.88772664  0.14185126  1
  Zn  Zn90  1  0.30845422  0.58378397  0.29007168  1
  Zn  Zn91  1  0.59747408  0.56891999  0.53564877  1
  Zn  Zn92  1  0.01402429  0.23447099  0.24199439  1
  Zn  Zn93  1  0.50242808  0.25949784  0.25967288  1
  Zn  Zn94  1  0.19629879  0.19145742  0.19475758  1
  Zn  Zn95  1  0.18738297  0.17985600  0.68793919  1
  Zn  Zn96  1  0.18243498  0.69785051  0.18879629  1
  Zn  Zn97  1  0.19129781  0.68512669  0.69166608  1
  Zn  Zn98  1  0.72261487  0.20903976  0.20818356  1
  Zn  Zn99  1  0.68917252  0.18322055  0.69086615  1
  Zn  Zn100  1  0.69315438  0.68297366  0.18589932  1
  Zn  Zn101  1  0.67447747  0.68231518  0.67762697  1
  Zn  Zn102  1  0.30733632  0.42421019  0.31942933  1
  Zn  Zn103  1  0.31240657  0.30749754  0.81644060  1
  Zn  Zn104  1  0.30378893  0.78008934  0.30501949  1
  Zn  Zn105  1  0.31070564  0.81157644  0.82293847  1
  Zn  Zn106  1  0.81192597  0.31024152  0.31673077  1
  Zn  Zn107  1  0.81037836  0.31365136  0.81015786  1
  Zn  Zn108  1  0.81259078  0.81470926  0.31302814  1
  Zn  Zn109  1  0.81511923  0.81032501  0.81016463  1
  Zn  Zn110  1  0.24113590  0.52370209  0.46833736  1
  Zn  Zn111  1  0.18726496  0.43720457  0.94057424  1
  Zn  Zn112  1  0.18538947  0.93216017  0.43998823  1
  Zn  Zn113  1  0.20825636  0.95501788  0.97796381  1
  Zn  Zn114  1  0.69168596  0.45303706  0.44251277  1
  Zn  Zn115  1  0.56417161  0.43680961  0.92958234  1
  Zn  Zn116  1  0.63971186  0.95505784  0.40631104  1
  Zn  Zn117  1  0.69151500  0.92904720  0.93274500  1
  Zn  Zn118  1  0.31617326  0.06404506  0.07366456  1
  Zn  Zn119  1  0.31686925  0.05960191  0.42824286  1
  Zn  Zn120  1  0.31833776  0.56457797  0.06836994  1
  Zn  Zn121  1  0.42047163  0.55882188  0.55955737  1
  Zn  Zn122  1  0.80890257  0.06500601  0.05745310  1
  Zn  Zn123  1  0.81285437  0.06280879  0.56496466  1
  Zn  Zn124  1  0.74682614  0.51038732  0.01482444  1
  Zn  Zn125  1  0.80989939  0.56180448  0.56579369  1
  Zn  Zn126  1  0.45597825  0.46239972  0.20011529  1
  Zn  Zn127  1  0.45410261  0.44370988  0.67799791  1
  Zn  Zn128  1  0.43796740  0.93864016  0.17465887  1
  Zn  Zn129  1  0.43868853  0.93548080  0.69333711  1
  Zn  Zn130  1  0.94396088  0.43531769  0.18927988  1
  Zn  Zn131  1  0.94249491  0.42903403  0.68421146  1
  Zn  Zn132  1  0.93737316  0.93536436  0.19295825  1
  Zn  Zn133  1  0.93795606  0.93344062  0.68910027  1
  Zn  Zn134  1  0.06256655  0.05913558  0.30884761  1
  Zn  Zn135  1  0.06229428  0.06208095  0.81653383  1
  Zn  Zn136  1  0.06321817  0.55253582  0.31802751  1
  Zn  Zn137  1  0.06208583  0.55709943  0.81171178  1
  Zn  Zn138  1  0.55569596  0.07395969  0.30688110  1
  Zn  Zn139  1  0.56316530  0.06127167  0.80948667  1
  Zn  Zn140  1  0.58029495  0.54990966  0.34008380  1
  Zn  Zn141  1  0.56044140  0.56654531  0.81034118  1
  Zn  Zn142  1  0.44523977  0.19606314  0.43722042  1
  Zn  Zn143  1  0.44034086  0.18587698  0.94039880  1
  Zn  Zn144  1  0.44334622  0.73710829  0.43609714  1
  Zn  Zn145  1  0.44279977  0.68174474  0.94188249  1
  Zn  Zn146  1  0.93774121  0.18669959  0.43903697  1
  Zn  Zn147  1  0.93526663  0.18674020  0.94343048  1
  Zn  Zn148  1  0.93815204  0.68397252  0.44695263  1
  Zn  Zn149  1  0.93565083  0.68305630  0.93373607  1
  Zn  Zn150  1  0.05965586  0.31447447  0.06237888  1
  Zn  Zn151  1  0.06514490  0.31158012  0.55867314  1
  Zn  Zn152  1  0.06357279  0.81242597  0.05898530  1
  Zn  Zn153  1  0.05811498  0.80792295  0.56603668  1
  Zn  Zn154  1  0.56350652  0.31282014  0.06335247  1
  Zn  Zn155  1  0.55915422  0.31413730  0.56822682  1
  Zn  Zn156  1  0.56778454  0.80871845  0.05999257  1
  Zn  Zn157  1  0.56544596  0.77234029  0.56813021  1
  O  O158  1  0.12969472  0.13306537  0.11455334  1
  O  O159  1  0.11986444  0.11266319  0.62051962  1
  O  O160  1  0.11865016  0.62200454  0.12148821  1
  O  O161  1  0.13145486  0.60165673  0.64079757  1
  O  O162  1  0.61465285  0.13305586  0.13333832  1
  O  O163  1  0.60912954  0.12764182  0.63199351  1
  O  O164  1  0.63282976  0.62046458  0.11578016  1
  O  O165  1  0.60115008  0.66409248  0.59789310  1
  O  O166  1  0.37199092  0.36721427  0.39355452  1
  O  O167  1  0.36436960  0.36988128  0.89481878  1
  O  O168  1  0.36510244  0.84785922  0.38196066  1
  O  O169  1  0.38813274  0.88486190  0.87303371  1
  O  O170  1  0.87900498  0.37695243  0.38442026  1
  O  O171  1  0.88088739  0.37800448  0.87575573  1
  O  O172  1  0.87776460  0.88092235  0.38991764  1
  O  O173  1  0.88424962  0.87955962  0.87937677  1
  O  O174  1  0.24334678  -0.00278172  0.37500901  1
  O  O175  1  0.25842179  0.00188366  0.87620384  1
  O  O176  1  0.24542060  0.51356451  0.35858146  1
  O  O177  1  0.24296253  0.51432303  0.87452197  1
  O  O178  1  0.75056467  0.00498181  0.36762698  1
  O  O179  1  0.75877891  0.00507007  0.87142048  1
  O  O180  1  0.77020197  0.49920301  0.36157490  1
  O  O181  1  0.75513689  0.52035865  0.87219435  1
  O  O182  1  0.24014669  0.49388436  0.11823072  1
  O  O183  1  0.23953606  0.47828219  0.63933353  1
  O  O184  1  0.24707427  0.97974974  0.08414904  1
  O  O185  1  0.24144674  0.98375511  0.64101873  1
  O  O186  1  0.75636441  0.49925525  0.13482861  1
  O  O187  1  0.75750473  0.48452023  0.63791152  1
  O  O188  1  0.76148236  0.98580439  0.12853872  1
  O  O189  1  0.75414493  0.99963813  0.64125277  1
  O  O190  1  0.01263881  0.37159487  0.25652673  1
  O  O191  1  0.00961985  0.37187460  0.76318386  1
  O  O192  1  -0.00002546  0.87165510  0.26669781  1
  O  O193  1  -0.00034053  0.86645233  0.76289817  1
  O  O194  1  0.52391164  0.38072074  0.25074267  1
  O  O195  1  0.51530872  0.36114344  0.73593458  1
  O  O196  1  0.51979772  0.87940702  0.23346496  1
  O  O197  1  0.50463731  0.86786168  0.76568334  1
  O  O198  1  0.49234138  0.13332942  0.23390791  1
  O  O199  1  0.49304254  0.13088703  0.74508082  1
  O  O200  1  0.52089849  0.61986189  0.25686571  1
  O  O201  1  0.48885372  0.64006091  0.75410520  1
  O  O202  1  0.98748018  0.13049702  0.27269455  1
  O  O203  1  0.99686475  0.11526231  0.73760209  1
  O  O204  1  0.99088358  0.62203110  0.24193375  1
  O  O205  1  1.00084195  0.63235965  0.74686459  1
  O  O206  1  0.36326122  0.24836819  0.00521603  1
  O  O207  1  0.36494793  0.25047196  0.51049263  1
  O  O208  1  0.36814243  0.74470378  0.00897767  1
  O  O209  1  0.34529720  0.75579946  0.50339463  1
  O  O210  1  0.86457508  0.26123955  -0.00317995  1
  O  O211  1  0.87792471  0.26009490  0.51371175  1
  O  O212  1  0.87157942  0.75145082  0.00626649  1
  O  O213  1  0.87406180  0.76245254  0.51113542  1
  O  O214  1  0.14089510  0.23825358  0.50949586  1
  O  O215  1  0.13075511  0.24167410  0.99410958  1
  O  O216  1  0.12822731  0.75322300  0.49465122  1
  O  O217  1  0.13050944  0.73797892  0.99325510  1
  O  O218  1  0.62568650  0.25910812  0.49265149  1
  O  O219  1  0.63636080  0.26350173  0.98331613  1
  O  O220  1  0.62642185  0.77571867  0.47309678  1
  O  O221  1  0.64024655  0.75600903  0.98659685  1
  O  O222  1  0.49401337  0.23961090  0.11861811  1
  O  O223  1  0.48988121  0.23841801  0.63524120  1
  O  O224  1  0.50223633  0.74228913  0.12776274  1
  O  O225  1  0.48311595  0.76458410  0.65009198  1
  O  O226  1  0.99550264  0.26014669  0.13244998  1
  O  O227  1  0.99650346  0.23746768  0.62032282  1
  O  O228  1  0.99247480  0.74017692  0.12434595  1
  O  O229  1  0.99715519  0.74515662  0.63646767  1
  O  O230  1  -0.01023142  0.26310419  0.36961802  1
  O  O231  1  0.00888399  0.25631500  0.88234200  1
  O  O232  1  0.00339199  0.75935324  0.38320943  1
  O  O233  1  0.00388568  0.75292235  0.86819727  1
  O  O234  1  0.52503820  0.24638152  0.37282975  1
  O  O235  1  0.50872289  0.24148487  0.86388517  1
  O  O236  1  0.52232659  0.75073301  0.35204213  1
  O  O237  1  0.50762074  0.75716735  0.87838723  1
  O  O238  1  0.24801896  0.13459605  0.49558530  1
  O  O239  1  0.23832917  0.13302679  0.99775561  1
  O  O240  1  0.24667437  0.63412724  0.51397750  1
  O  O241  1  0.24448213  0.63170477  0.99147167  1
  O  O242  1  0.74165616  0.11249213  0.49100466  1
  O  O243  1  0.75538465  0.13927886  0.98370612  1
  O  O244  1  0.72003848  0.57170095  0.49999406  1
  O  O245  1  0.75555209  0.63318258  0.99660016  1
  O  O246  1  0.25075803  0.36595315  0.00809695  1
  O  O247  1  0.25919988  0.35420219  0.51817287  1
  O  O248  1  0.25293353  0.85092418  -0.02451330  1
  O  O249  1  0.25791631  0.87719058  0.51648298  1
  O  O250  1  0.76292772  0.36423080  -0.00848894  1
  O  O251  1  0.75774501  0.38056013  0.51710781  1
  O  O252  1  0.75997707  0.86541923  0.00418461  1
  O  O253  1  0.76184019  0.88205370  0.50748454  1
  O  O254  1  0.11872567  0.48887709  0.23660606  1
  O  O255  1  0.12976329  0.48100093  0.75279524  1
  O  O256  1  0.11896735  0.97870433  0.25634997  1
  O  O257  1  0.13651791  1.00333129  0.74793333  1
  O  O258  1  0.64537505  0.48837171  0.25782526  1
  O  O259  1  0.62233254  0.48467993  0.75065068  1
  O  O260  1  0.63898304  0.98548669  0.24536089  1
  O  O261  1  0.63428573  0.98668818  0.75747494  1
  O  O262  1  0.38037131  0.01351472  0.24044406  1
  O  O263  1  0.36728188  0.00451453  0.76292870  1
  O  O264  1  0.36436558  0.49328660  0.24787201  1
  O  O265  1  0.38072989  0.51634705  0.74188216  1
  O  O266  1  0.86755720  -0.00532417  0.26553210  1
  O  O267  1  0.86758606  -0.00640295  0.76217896  1
  O  O268  1  0.87087034  0.50343243  0.25306455  1
  O  O269  1  0.87765106  0.48949502  0.75871817  1
  O  O270  1  0.11806446  0.37912901  0.36196461  1
  O  O271  1  0.11777700  0.36685777  0.87384131  1
  O  O272  1  0.11286455  0.86664863  0.37335203  1
  O  O273  1  0.11465678  0.85859200  0.88577112  1
  O  O274  1  0.64919084  0.36016332  0.37242293  1
  O  O275  1  0.62469064  0.36317594  0.85689238  1
  O  O276  1  0.64455057  0.86020434  0.34197389  1
  O  O277  1  0.61845548  0.86319181  0.86753896  1
  O  O278  1  0.38033935  0.13522919  0.13304759  1
  O  O279  1  0.37871002  0.13279912  0.64324608  1
  O  O280  1  0.36812852  0.64629825  0.12632519  1
  O  O281  1  0.37021080  0.63396793  0.63757147  1
  O  O282  1  0.87480285  0.12440331  0.12199326  1
  O  O283  1  0.88188001  0.13560673  0.62335925  1
  O  O284  1  0.88490076  0.63308835  0.13350258  1
  O  O285  1  0.87530953  0.64066682  0.61641887  1
  O  O286  1  0.25721693  0.25909787  0.11750254  1
  O  O287  1  0.26078145  0.25214312  0.63530512  1
  O  O288  1  0.24404024  0.76013868  0.10504325  1
  O  O289  1  0.23328938  0.76592539  0.62038934  1
  O  O290  1  0.74068615  0.24611425  0.09931801  1
  O  O291  1  0.76099795  0.24721344  0.62402011  1
  O  O292  1  0.76236276  0.75412234  0.11674100  1
  O  O293  1  0.76310051  0.75077122  0.63507179  1
  O  O294  1  0.24976053  0.25553625  0.38856432  1
  O  O295  1  0.24047594  0.24323917  0.88544916  1
  O  O296  1  0.22984659  0.74926169  0.39751208  1
  O  O297  1  0.24329238  0.73424151  0.88104888  1
  O  O298  1  0.74697133  0.23202721  0.37988879  1
  O  O299  1  0.74358991  0.24235437  0.87524962  1
  O  O300  1  0.74932941  0.74435712  0.37323202  1
  O  O301  1  0.74930814  0.73855876  0.87789803  1
  O  O302  1  0.01124794  0.12034939  -0.00021660  1
  O  O303  1  0.00532675  0.11467110  0.50966047  1
  O  O304  1  0.00663995  0.62432336  0.00820305  1
  O  O305  1  0.00398517  0.61976325  0.50520723  1
  O  O306  1  0.50503223  0.12166301  0.01055113  1
  O  O307  1  0.48884208  0.12421820  0.51945571  1
  O  O308  1  0.51721807  0.62209777  -0.00241994  1
  O  O309  1  0.47358663  0.62632720  0.47672858  1
  O  O310  1  0.47466907  0.36888900  0.51512052  1
  O  O311  1  0.48976026  0.37102891  0.99654215  1
  O  O312  1  0.47102659  0.83834083  0.50163065  1
  O  O313  1  0.51000736  0.88556304  0.99230750  1
  O  O314  1  0.99145613  0.36973569  0.49192975  1
  O  O315  1  0.98785534  0.37694476  0.98750837  1
  O  O316  1  0.99591566  0.88427932  0.49635216  1
  O  O317  1  0.99734085  0.88117577  0.99053615  1
  O  O318  1  0.44482109  0.58648107  0.40391790  1
  O  O319  1  0.49695872  0.50166421  0.87054478  1
  O  O320  1  0.53214464  0.99199621  0.37496159  1
  O  O321  1  0.49776586  0.99487652  0.88145424  1
  O  O322  1  0.98570791  0.48361726  0.36690680  1
  O  O323  1  0.98991978  0.49161792  0.87818064  1
  O  O324  1  0.98842166  0.99205351  0.38841011  1
  O  O325  1  0.99384754  0.99215267  0.88016207  1
  O  O326  1  -0.00743605  -0.00904833  0.10985318  1
  O  O327  1  0.00346752  0.00435336  0.62032577  1
  O  O328  1  0.00792737  0.50924489  0.11973086  1
  O  O329  1  0.01785122  0.49378061  0.63073407  1
  O  O330  1  0.50059238  0.01569950  0.11247576  1
  O  O331  1  0.49449152  0.01368998  0.63371332  1
  O  O332  1  0.50959972  0.50689379  0.11570277  1
  O  O333  1  0.51036876  0.51230361  0.60927038  1
  O  O334  1  0.23560371  0.37540354  0.23576262  1
  O  O335  1  0.24307058  0.37030396  0.74955791  1
  O  O336  1  0.23514216  0.86279682  0.25185160  1
  O  O337  1  0.25577141  0.87978662  0.74577870  1
  O  O338  1  0.75095893  0.38589616  0.24712831  1
  O  O339  1  0.73709081  0.36676653  0.73888728  1
  O  O340  1  0.75462068  0.88105332  0.23581312  1
  O  O341  1  0.73948103  0.88209877  0.76132692  1
  O  O342  1  0.27184472  0.13000586  0.24796646  1
  O  O343  1  0.25680527  0.11270918  0.75827505  1
  O  O344  1  0.26756000  0.68063484  0.25713194  1
  O  O345  1  0.26571183  0.62697141  0.76366816  1
  O  O346  1  0.75179189  0.10733060  0.25811721  1
  O  O347  1  0.75616316  0.11365813  0.76008095  1
  O  O348  1  0.76475089  0.61341393  0.24685279  1
  O  O349  1  0.74860458  0.62847924  0.74934186  1
  O  O350  1  0.38799093  0.12603908  0.36149881  1
  O  O351  1  0.37138207  0.11914674  0.86715746  1
  O  O352  1  0.39182182  0.63749518  0.37025822  1
  O  O353  1  0.36335582  0.62235758  0.88123970  1
  O  O354  1  0.86154006  0.10973674  0.38772856  1
  O  O355  1  0.87070184  0.11513857  0.87426163  1
  O  O356  1  0.87558960  0.61755158  0.36918199  1
  O  O357  1  0.86464401  0.61914626  0.86910579  1
  O  O358  1  0.13339200  0.38482533  0.12293101  1
  O  O359  1  0.13017811  0.37213536  0.63638079  1
  O  O360  1  0.11681596  0.86142254  0.14675106  1
  O  O361  1  0.12519297  0.88784008  0.62264380  1
  O  O362  1  0.63103574  0.37143349  0.13596011  1
  O  O363  1  0.63801035  0.37063409  0.63262815  1
  O  O364  1  0.64281094  0.86519200  0.12980757  1
  O  O365  1  0.62093619  0.85671083  0.64335914  1
  O  O366  1  0.12851087  0.26622171  0.24719783  1
  O  O367  1  0.13204072  0.25544034  0.76380018  1
  O  O368  1  0.11598603  0.75814455  0.27015600  1
  O  O369  1  0.11756151  0.74187984  0.76381698  1
  O  O370  1  0.63388950  0.26669951  0.25514375  1
  O  O371  1  0.61819632  0.25187515  0.75549344  1
  O  O372  1  0.62157935  0.75550488  0.24217657  1
  O  O373  1  0.60971210  0.75329719  0.76098047  1
  O  O374  1  0.38413030  0.25184038  0.23438733  1
  O  O375  1  0.38245279  0.24182841  0.75019413  1
  O  O376  1  0.40991350  0.74626830  0.24121780  1
  O  O377  1  0.38389419  0.74024344  0.76758846  1
  O  O378  1  0.83893560  0.23918289  0.23305703  1
  O  O379  1  0.87454794  0.25143638  0.73285702  1
  O  O380  1  0.87667172  0.74153139  0.24241168  1
  O  O381  1  0.88522103  0.75649944  0.73632057  1
  O  O382  1  0.35059925  0.48145896  0.50804769  1
  O  O383  1  0.37092145  0.48624636  1.00457196  1
  O  O384  1  0.38704577  0.97792297  0.48436687  1
  O  O385  1  0.38787355  1.01135150  0.98708388  1
  O  O386  1  0.87357692  0.48488069  0.49366068  1
  O  O387  1  0.86436792  0.48501538  0.98309805  1
  O  O388  1  0.88103909  0.98916654  0.49996774  1
  O  O389  1  0.88141191  0.99434651  0.98724345  1
  O  O390  1  0.11407958  0.01861708  -0.00615354  1
  O  O391  1  0.11608135  0.00370195  0.51174615  1
  O  O392  1  0.12352974  0.51234681  0.00783436  1
  O  O393  1  0.14119794  0.49282050  0.52077232  1
  O  O394  1  0.62227574  0.00125306  -0.00860948  1
  O  O395  1  0.61141297  -0.01789051  0.50970540  1
  O  O396  1  0.63287629  0.49635202  0.00246679  1
  O  O397  1  0.58728189  0.50069897  0.44216590  1
  O  O398  1  0.36637817  0.36638388  0.10947833  1
  O  O399  1  0.36836685  0.36205136  0.63317016  1
  O  O400  1  0.37517817  0.85086062  0.13244986  1
  O  O401  1  0.36213470  0.87682294  0.62664127  1
  O  O402  1  0.88011144  0.38250734  0.10532307  1
  O  O403  1  0.86695971  0.36401225  0.62247516  1
  O  O404  1  0.87337958  0.86238767  0.12011319  1
  O  O405  1  0.88077274  0.86612825  0.61463362  1
  O  O406  1  0.11705428  0.11712540  0.39420700  1
  O  O407  1  0.12895794  0.13319420  0.88047416  1
  O  O408  1  0.11212272  0.63801174  0.37437256  1
  O  O409  1  0.12796124  0.62993828  0.88350914  1
  O  O410  1  0.63800741  0.13459740  0.36898514  1
  O  O411  1  0.63515393  0.13474585  0.86642413  1
  O  O412  1  0.63779129  0.64673079  0.36882990  1
  O  O413  1  0.64096672  0.63571259  0.86349493  1
