# generated using pymatgen
data_V79Zn79O256
_symmetry_space_group_name_H-M   'P 1'
_cell_length_a   16.97027254
_cell_length_b   16.94249675
_cell_length_c   16.96154301
_cell_angle_alpha   90.09727066
_cell_angle_beta   90.04694758
_cell_angle_gamma   90.04734154
_symmetry_Int_Tables_number   1
_chemical_formula_structural   V79Zn79O256
_chemical_formula_sum   'V79 Zn79 O256'
_cell_volume   4876.75194179
_cell_formula_units_Z   1
loop_
 _symmetry_equiv_pos_site_id
 _symmetry_equiv_pos_as_xyz
  1  'x, y, z'
loop_
 _atom_site_type_symbol
 _atom_site_label
 _atom_site_symmetry_multiplicity
 _atom_site_fract_x
 _atom_site_fract_y
 _atom_site_fract_z
 _atom_site_occupancy
  V  V0  1  0.62321930  0.50379093  0.62490196  1
  V  V1  1  0.61160792  0.62665890  -0.00426590  1
  V  V2  1  0.76056413  0.36931599  0.12067216  1
  V  V3  1  0.87034558  0.75068956  0.12222374  1
  V  V4  1  0.75194679  0.62829574  0.37545842  1
  V  V5  1  0.12048946  0.24907622  0.37305938  1
  V  V6  1  0.12608202  0.25962937  0.87341413  1
  V  V7  1  0.12420204  0.49389997  0.12861426  1
  V  V8  1  0.75254712  0.12506601  0.88236403  1
  V  V9  1  0.11736802  0.00687352  0.12028929  1
  V  V10  1  0.89815384  0.24705211  0.61848590  1
  V  V11  1  0.13432806  0.86837165  0.74381469  1
  V  V12  1  0.94977963  0.18933462  0.19301694  1
  V  V13  1  0.00018738  0.86605595  0.87354689  1
  V  V14  1  0.25094107  0.50748208  0.25575169  1
  V  V15  1  0.38861497  -0.00158132  0.38073852  1
  V  V16  1  0.25122494  0.12382488  0.37403515  1
  V  V17  1  0.87919466  0.11937059  0.74534391  1
  V  V18  1  0.00123223  0.37626757  0.86120155  1
  V  V19  1  0.87115935  0.86757495  0.00001449  1
  V  V20  1  0.62740129  0.63579004  0.49730634  1
  V  V21  1  0.37151058  0.50979641  0.37512678  1
  V  V22  1  0.62475012  0.25153230  0.88763791  1
  V  V23  1  0.87940134  0.49961032  0.38316713  1
  V  V24  1  0.24969091  0.61475560  0.88117028  1
  V  V25  1  0.87132648  0.87853734  0.49805394  1
  V  V26  1  0.25689290  0.37028221  0.12419795  1
  V  V27  1  0.00035090  0.62210628  0.12834293  1
  V  V28  1  0.36831908  0.10894804  0.74623082  1
  V  V29  1  0.73865306  0.35374833  0.61999723  1
  V  V30  1  0.25611356  0.25365734  0.00184635  1
  V  V31  1  0.13601757  0.63898748  0.46696835  1
  V  V32  1  0.14144026  -0.00742913  0.62515718  1
  V  V33  1  0.50163576  0.37752168  0.37725076  1
  V  V34  1  0.62344874  -0.00208406  0.61763109  1
  V  V35  1  0.37495068  0.75124819  0.13065977  1
  V  V36  1  0.34085333  0.62861834  0.71583011  1
  V  V37  1  0.12612110  0.87427019  0.24503324  1
  V  V38  1  0.49378443  0.25107792  0.24434521  1
  V  V39  1  0.74834136  0.62848382  0.88808613  1
  V  V40  1  0.00590214  0.74862431  0.25461923  1
  V  V41  1  0.87290569  0.74901205  0.62570606  1
  V  V42  1  -0.00119595  0.74613371  0.75082267  1
  V  V43  1  0.24934520  0.25646304  0.50158544  1
  V  V44  1  0.24102268  0.11413461  0.86917254  1
  V  V45  1  0.51284627  0.87172054  0.37675063  1
  V  V46  1  0.74338219  0.49704607  0.75183045  1
  V  V47  1  0.37032555  0.25287631  0.63012369  1
  V  V48  1  0.87585462  0.00903531  0.36715599  1
  V  V49  1  0.00331171  0.00551152  -0.00487775  1
  V  V50  1  0.74971754  -0.00449516  0.23612311  1
  V  V51  1  0.51182333  0.65179849  0.63581459  1
  V  V52  1  0.75286752  0.89160404  0.64446236  1
  V  V53  1  0.24643654  0.00124419  0.24621294  1
  V  V54  1  0.62943418  0.75401075  0.35864987  1
  V  V55  1  0.12486988  0.12535079  0.50784881  1
  V  V56  1  0.37408630  0.13215212  0.24252083  1
  V  V57  1  0.24805014  0.75776749  0.00857669  1
  V  V58  1  0.37219372  0.37966343  0.50582191  1
  V  V59  1  0.62596776  0.37103728  0.25039479  1
  V  V60  1  -0.00415545  0.49139604  0.00065964  1
  V  V61  1  0.12157615  0.37443774  0.25590823  1
  V  V62  1  0.87193422  0.48848761  0.88097757  1
  V  V63  1  0.00471086  0.87391135  0.37460697  1
  V  V64  1  0.50005295  0.50613325  0.50120854  1
  V  V65  1  0.49246409  0.37285992  0.89079586  1
  V  V66  1  0.87572600  0.62222480  0.74773261  1
  V  V67  1  0.74998720  0.50132007  0.25021200  1
  V  V68  1  0.87739140  0.62623829  0.25202914  1
  V  V69  1  -0.00020605  0.37544513  0.38140922  1
  V  V70  1  0.00387917  0.00247839  0.50653813  1
  V  V71  1  0.12363324  0.62643789  0.00056845  1
  V  V72  1  0.74391464  0.12898607  0.37930926  1
  V  V73  1  0.62781399  0.24876175  0.38577038  1
  V  V74  1  0.47418079  0.89668364  0.89359110  1
  V  V75  1  0.37959299  0.49897403  0.91342423  1
  V  V76  1  0.61217829  0.50849911  0.12102676  1
  V  V77  1  0.17693432  0.49975463  0.66056072  1
  V  V78  1  0.50285652  0.12295485  0.61082725  1
  Zn  Zn79  1  0.74903471  0.75907025  0.50108892  1
  Zn  Zn80  1  0.80589323  0.28350312  -0.02266993  1
  Zn  Zn81  1  0.59125984  0.91234127  0.18575454  1
  Zn  Zn82  1  0.43604308  0.19587395  0.06910883  1
  Zn  Zn83  1  0.70494764  0.80416628  0.06026811  1
  Zn  Zn84  1  0.46405290  0.00884613  0.05637513  1
  Zn  Zn85  1  0.02402546  0.54328623  0.55088595  1
  Zn  Zn86  1  0.58671635  0.80311156  0.82372850  1
  Zn  Zn87  1  0.86808512  -0.01005235  0.86272481  1
  Zn  Zn88  1  0.32121263  0.78671273  0.60754002  1
  Zn  Zn89  1  0.01586740  0.24342354  0.74156481  1
  Zn  Zn90  1  0.60789379  0.37077154  0.74984868  1
  Zn  Zn91  1  0.87143369  0.37289966  0.50121483  1
  Zn  Zn92  1  0.40149337  0.62322452  0.24123635  1
  Zn  Zn93  1  0.49665175  0.24643736  0.75625938  1
  Zn  Zn94  1  0.13607048  0.21277629  0.15839077  1
  Zn  Zn95  1  0.18825434  0.19086975  0.68830590  1
  Zn  Zn96  1  0.18929337  0.68816693  0.18874861  1
  Zn  Zn97  1  0.15944554  0.69149414  0.64022149  1
  Zn  Zn98  1  0.78611781  0.18390655  0.19090471  1
  Zn  Zn99  1  0.66662764  0.15774783  0.71580511  1
  Zn  Zn100  1  0.56534556  0.71212448  0.17323469  1
  Zn  Zn101  1  0.68597453  0.69517464  0.69163563  1
  Zn  Zn102  1  0.30966800  0.31856804  0.31551860  1
  Zn  Zn103  1  0.30421831  0.32152408  0.81312836  1
  Zn  Zn104  1  0.33292479  0.83038933  0.28207762  1
  Zn  Zn105  1  0.30992571  0.79229102  0.82213027  1
  Zn  Zn106  1  0.81500366  0.31287852  0.31299799  1
  Zn  Zn107  1  0.80788153  0.30250644  0.79483657  1
  Zn  Zn108  1  0.81398233  0.81499021  0.30741367  1
  Zn  Zn109  1  0.78769402  0.80140231  0.80824797  1
  Zn  Zn110  1  0.18529661  0.44581397  0.44935212  1
  Zn  Zn111  1  0.18465482  0.43568905  0.93921039  1
  Zn  Zn112  1  0.19362994  0.93269949  0.43563597  1
  Zn  Zn113  1  0.18032794  0.93188268  0.92968001  1
  Zn  Zn114  1  0.68822829  0.43848270  0.44086150  1
  Zn  Zn115  1  0.68187577  0.43704554  0.94052920  1
  Zn  Zn116  1  0.68658994  0.94656813  0.43737910  1
  Zn  Zn117  1  0.68655336  0.94211626  0.92658527  1
  Zn  Zn118  1  0.28939242  0.07082485  0.06166932  1
  Zn  Zn119  1  0.31580776  0.06086232  0.56029116  1
  Zn  Zn120  1  0.31003356  0.56544207  0.07146012  1
  Zn  Zn121  1  0.31466415  0.58855126  0.55194975  1
  Zn  Zn122  1  0.82945270  0.06688492  0.05655552  1
  Zn  Zn123  1  0.81402442  0.06923911  0.55754436  1
  Zn  Zn124  1  0.81296140  0.55932617  0.06816054  1
  Zn  Zn125  1  0.80949602  0.56073407  0.56342883  1
  Zn  Zn126  1  0.43456942  0.43557126  0.18971008  1
  Zn  Zn127  1  0.39845695  0.43340927  0.72188623  1
  Zn  Zn128  1  0.43062592  0.93305933  0.20016394  1
  Zn  Zn129  1  0.41100613  0.90104728  0.73584277  1
  Zn  Zn130  1  0.93920348  0.43561813  0.19531897  1
  Zn  Zn131  1  0.91946736  0.43258048  0.69059908  1
  Zn  Zn132  1  0.93675448  0.93677402  0.18383511  1
  Zn  Zn133  1  0.94312093  0.93502847  0.68511617  1
  Zn  Zn134  1  0.06400849  0.05986076  0.31693025  1
  Zn  Zn135  1  0.06412423  0.05786242  0.80657753  1
  Zn  Zn136  1  0.06990356  0.56363339  0.32933141  1
  Zn  Zn137  1  0.06467044  0.55819028  0.80870561  1
  Zn  Zn138  1  0.56593280  0.06577021  0.29439638  1
  Zn  Zn139  1  0.54829322  0.01077769  0.77642740  1
  Zn  Zn140  1  0.56261052  0.56465387  0.31105807  1
  Zn  Zn141  1  0.55398598  0.55998629  0.81493185  1
  Zn  Zn142  1  0.43672996  0.19191814  0.43152588  1
  Zn  Zn143  1  0.43103407  0.08819770  0.92535178  1
  Zn  Zn144  1  0.44290060  0.69256614  0.43452898  1
  Zn  Zn145  1  0.42974249  0.69667724  0.93815932  1
  Zn  Zn146  1  0.94053176  0.18626068  0.43509895  1
  Zn  Zn147  1  0.94207664  0.18107004  0.92231591  1
  Zn  Zn148  1  0.93847688  0.68940810  0.44105639  1
  Zn  Zn149  1  0.93541733  0.68124278  0.93613682  1
  Zn  Zn150  1  0.01436017  0.28184257  0.03284693  1
  Zn  Zn151  1  0.05450672  0.36854799  0.58981073  1
  Zn  Zn152  1  0.05970541  0.81303455  0.06544013  1
  Zn  Zn153  1  0.05933683  0.80880777  0.55987260  1
  Zn  Zn154  1  0.57257963  0.31802173  0.06679806  1
  Zn  Zn155  1  0.55409751  0.31173816  0.56651469  1
  Zn  Zn156  1  0.54425490  0.81391931  0.01813823  1
  Zn  Zn157  1  0.48566542  0.85463911  0.57955127  1
  O  O158  1  0.12266304  0.10581538  0.12304261  1
  O  O159  1  0.13343924  0.11517480  0.61280169  1
  O  O160  1  0.11922653  0.61082763  0.12304234  1
  O  O161  1  0.12266700  0.58131022  0.62292324  1
  O  O162  1  0.63085578  0.09240460  0.04573063  1
  O  O163  1  0.60256708  0.13973584  0.61532739  1
  O  O164  1  0.62012837  0.61513674  0.11219748  1
  O  O165  1  0.62839511  0.62584629  0.61581175  1
  O  O166  1  0.38369902  0.38396433  0.38439216  1
  O  O167  1  0.38331050  0.38638923  0.88624719  1
  O  O168  1  0.38843451  0.89196112  0.36286912  1
  O  O169  1  0.37770777  0.88043554  0.85116429  1
  O  O170  1  0.88095272  0.38103677  0.37725932  1
  O  O171  1  0.87958019  0.38352949  0.86894398  1
  O  O172  1  0.88385370  0.88443354  0.38240135  1
  O  O173  1  0.88357341  0.87363190  0.88080010  1
  O  O174  1  0.25304288  0.00867270  0.36867602  1
  O  O175  1  0.23681302  0.01604152  0.87792149  1
  O  O176  1  0.26285935  0.48884917  0.36646322  1
  O  O177  1  0.26788662  0.50268268  0.89450469  1
  O  O178  1  0.75851635  0.00926209  0.36901626  1
  O  O179  1  0.75265396  0.01812079  0.88053781  1
  O  O180  1  0.75614502  0.50526135  0.36892310  1
  O  O181  1  0.75539344  0.49590987  0.86774174  1
  O  O182  1  0.24086749  0.49045762  0.13338517  1
  O  O183  1  0.27504778  0.53479654  0.64734557  1
  O  O184  1  0.23459536  1.00263860  0.13810143  1
  O  O185  1  0.24060083  0.99235237  0.61409530  1
  O  O186  1  0.74296181  0.49703763  0.13840128  1
  O  O187  1  0.73828059  0.50130643  0.63424381  1
  O  O188  1  0.76867840  1.01182729  0.13806145  1
  O  O189  1  0.75386492  0.99277444  0.61921659  1
  O  O190  1  0.01377548  0.37763578  0.26135548  1
  O  O191  1  -0.00564016  0.37451148  0.76026930  1
  O  O192  1  0.00580520  0.86917541  0.25629461  1
  O  O193  1  -0.00097217  0.86376085  0.75657935  1
  O  O194  1  0.50667102  0.37258297  0.25826826  1
  O  O195  1  0.48997755  0.37208370  0.76622204  1
  O  O196  1  0.51031946  0.88014077  0.27045259  1
  O  O197  1  0.51946299  0.89284345  0.77692298  1
  O  O198  1  0.48794322  0.14032388  0.25266557  1
  O  O199  1  0.47829814  0.12562374  0.73712734  1
  O  O200  1  0.51291442  0.63735916  0.24550528  1
  O  O201  1  0.52860142  0.64031539  0.73478216  1
  O  O202  1  1.00053267  0.12891122  0.25400491  1
  O  O203  1  0.98692378  0.12870665  0.75557427  1
  O  O204  1  0.99717416  0.63086289  0.25020734  1
  O  O205  1  0.98470869  0.62880674  0.75771644  1
  O  O206  1  0.35468337  0.25216373  0.00642830  1
  O  O207  1  0.36748336  0.25928888  0.50302783  1
  O  O208  1  0.35465876  0.74963308  0.01363111  1
  O  O209  1  0.35400656  0.75307855  0.49108473  1
  O  O210  1  0.90829647  0.25184541  0.00173569  1
  O  O211  1  0.88284899  0.24871357  0.51517508  1
  O  O212  1  0.88692374  0.75571463  0.00909730  1
  O  O213  1  0.87335295  0.76061872  0.50805903  1
  O  O214  1  0.13524549  0.24088819  0.49008329  1
  O  O215  1  0.11958100  0.24900453  0.97793496  1
  O  O216  1  0.13486053  0.73067215  0.53090106  1
  O  O217  1  0.12775373  0.73334385  1.01099616  1
  O  O218  1  0.61751734  0.25923839  0.48398563  1
  O  O219  1  0.62835702  0.25607434  0.98802329  1
  O  O220  1  0.63293747  0.73880119  0.48893353  1
  O  O221  1  0.63312768  0.72616742  1.00004394  1
  O  O222  1  0.50008899  0.26296028  0.13890419  1
  O  O223  1  0.48490572  0.24161223  0.62660800  1
  O  O224  1  0.47574977  0.75196850  0.10771075  1
  O  O225  1  0.51929666  0.74968962  0.61871308  1
  O  O226  1  1.02258386  0.24356187  0.13969503  1
  O  O227  1  0.99986571  0.26622348  0.62354016  1
  O  O228  1  0.99577210  0.74111482  0.13653712  1
  O  O229  1  0.97914576  0.75811189  0.63552136  1
  O  O230  1  0.01304594  0.25617535  0.37739234  1
  O  O231  1  0.01195765  0.25941423  0.86691650  1
  O  O232  1  -0.01106423  0.76316047  0.36363048  1
  O  O233  1  -0.00631796  0.75256447  0.86254075  1
  O  O234  1  0.50799393  0.25787068  0.36712965  1
  O  O235  1  0.51249923  0.26196846  0.87889291  1
  O  O236  1  0.51287376  0.76394646  0.37922995  1
  O  O237  1  0.49411025  0.77995247  0.89684962  1
  O  O238  1  0.24508544  0.13197133  0.49014311  1
  O  O239  1  0.24402602  0.14361414  0.97990075  1
  O  O240  1  0.23549925  0.62107353  0.48085127  1
  O  O241  1  0.23661430  0.62527600  1.00303285  1
  O  O242  1  0.75222735  0.12348792  0.47912769  1
  O  O243  1  0.77644540  0.13891199  0.98192239  1
  O  O244  1  0.74558370  0.62448896  0.48808081  1
  O  O245  1  0.74599900  0.60719623  0.98928861  1
  O  O246  1  0.24015718  0.36427389  0.01069551  1
  O  O247  1  0.26085270  0.36645144  0.48769917  1
  O  O248  1  0.23414443  0.85450753  -0.00957506  1
  O  O249  1  0.25859426  0.84695784  0.49232391  1
  O  O250  1  0.75076726  0.37960380  0.01575097  1
  O  O251  1  0.75033421  0.37834380  0.51738154  1
  O  O252  1  0.76614418  0.87742353  -0.00624242  1
  O  O253  1  0.76464341  0.87974590  0.49894088  1
  O  O254  1  0.12980839  0.49328924  0.24961667  1
  O  O255  1  0.13660892  0.49096270  0.75341089  1
  O  O256  1  0.12562027  0.99514380  0.24135329  1
  O  O257  1  0.12093316  0.98074898  0.73836214  1
  O  O258  1  0.63292644  0.49281913  0.24526224  1
  O  O259  1  0.63094233  0.49830612  0.74393340  1
  O  O260  1  0.64435919  0.99823404  0.24550877  1
  O  O261  1  0.64101181  1.03884281  0.71878767  1
  O  O262  1  0.36201750  0.01216583  0.25893053  1
  O  O263  1  0.36722516  0.01148654  0.73905109  1
  O  O264  1  0.36863015  0.50353248  0.25774868  1
  O  O265  1  0.39152805  0.54728469  0.75178922  1
  O  O266  1  0.87746302  -0.00373126  0.26285594  1
  O  O267  1  0.88226904  0.01479906  0.74266087  1
  O  O268  1  0.86650775  0.50551478  0.25941823  1
  O  O269  1  0.86296484  0.50476102  0.75790671  1
  O  O270  1  0.12012285  0.36874118  0.37287271  1
  O  O271  1  0.11618497  0.36903284  0.87383021  1
  O  O272  1  0.11083521  0.88207958  0.36711072  1
  O  O273  1  0.11183257  0.87280193  0.85493398  1
  O  O274  1  0.62317337  0.37259004  0.36861177  1
  O  O275  1  0.61542457  0.37093227  0.87323777  1
  O  O276  1  0.62260351  0.86889205  0.37994751  1
  O  O277  1  0.59949766  0.87911949  0.91798588  1
  O  O278  1  0.36060565  0.13255499  0.14085024  1
  O  O279  1  0.37282294  0.13245126  0.63056946  1
  O  O280  1  0.36899215  0.63915259  0.12858899  1
  O  O281  1  0.40682473  0.63331424  0.62020666  1
  O  O282  1  0.88525779  0.13639970  0.13239044  1
  O  O283  1  0.87264729  0.13938024  0.63097770  1
  O  O284  1  0.88326956  0.62717394  0.13237717  1
  O  O285  1  0.86179762  0.63408690  0.63681905  1
  O  O286  1  0.23036025  0.25530739  0.10838202  1
  O  O287  1  0.25621151  0.24584483  0.60928839  1
  O  O288  1  0.24864319  0.74937913  0.11446581  1
  O  O289  1  0.27243570  0.69430074  0.64359548  1
  O  O290  1  0.74806498  0.26834858  0.12853624  1
  O  O291  1  0.73289244  0.25710190  0.62753626  1
  O  O292  1  0.77173235  0.74110085  0.12848884  1
  O  O293  1  0.75991186  0.76988509  0.62430677  1
  O  O294  1  0.24499195  0.24276329  0.38262473  1
  O  O295  1  0.23940986  0.25962062  0.88446418  1
  O  O296  1  0.29670169  0.79320313  0.44454872  1
  O  O297  1  0.25402836  0.72479042  0.89668798  1
  O  O298  1  0.74341700  0.23835315  0.36511794  1
  O  O299  1  0.74631158  0.25637726  0.87953425  1
  O  O300  1  0.74939521  0.74257805  0.37577234  1
  O  O301  1  0.76708039  0.72570315  0.89272956  1
  O  O302  1  0.00429325  0.10334844  -0.01355925  1
  O  O303  1  0.01508416  0.11416899  0.49181505  1
  O  O304  1  0.00582063  0.61315745  0.00505492  1
  O  O305  1  0.01950144  0.63939067  0.49630878  1
  O  O306  1  0.49467740  0.11829390  0.01387586  1
  O  O307  1  0.48277685  0.12676879  0.51304924  1
  O  O308  1  0.51393101  0.62571704  -0.01734184  1
  O  O309  1  0.51276947  0.62581097  0.50571102  1
  O  O310  1  0.49313386  0.38507432  0.49568637  1
  O  O311  1  0.50544754  0.37338195  0.98986764  1
  O  O312  1  0.50131725  0.88993354  0.47673619  1
  O  O313  1  0.46484025  0.90085781  0.99622006  1
  O  O314  1  0.99948087  0.37267588  0.48254880  1
  O  O315  1  1.00548850  0.38937178  0.98774623  1
  O  O316  1  0.99323285  0.88009063  0.49285227  1
  O  O317  1  0.99738416  0.87400160  0.98791149  1
  O  O318  1  0.49547650  0.49612633  0.38120196  1
  O  O319  1  0.48583933  0.49135103  0.87876232  1
  O  O320  1  0.49137797  1.00576928  0.36799331  1
  O  O321  1  0.49271253  1.00262025  0.87607896  1
  O  O322  1  0.98535098  0.49135523  0.36502589  1
  O  O323  1  0.99157987  0.49466347  0.88019557  1
  O  O324  1  0.99464459  0.99295734  0.38426183  1
  O  O325  1  1.00397129  0.98633261  0.88326260  1
  O  O326  1  0.00779838  -0.00429016  0.11140078  1
  O  O327  1  0.01083511  -0.00654833  0.60983873  1
  O  O328  1  0.00503508  0.50076384  0.12101598  1
  O  O329  1  -0.01151009  0.46135274  0.61160978  1
  O  O330  1  0.51229832  -0.00668052  0.15340063  1
  O  O331  1  0.51581894  0.01145324  0.62496051  1
  O  O332  1  0.51502510  0.49183560  0.13157899  1
  O  O333  1  0.51869306  0.51381612  0.62062641  1
  O  O334  1  0.23942669  0.38228057  0.24615056  1
  O  O335  1  0.29132291  0.40024130  0.73879507  1
  O  O336  1  0.23451823  0.88960274  0.26620534  1
  O  O337  1  0.23143304  0.85162215  0.75427397  1
  O  O338  1  0.74352478  0.38337605  0.24697230  1
  O  O339  1  0.74809181  0.38393969  0.73382421  1
  O  O340  1  0.76077565  0.89394903  0.24841442  1
  O  O341  1  0.77166638  0.89510811  0.74166629  1
  O  O342  1  0.25321514  0.11838929  0.26331308  1
  O  O343  1  0.25598406  0.12719217  0.75616227  1
  O  O344  1  0.24138254  0.60674737  0.24865525  1
  O  O345  1  0.24707667  0.61851890  0.78023090  1
  O  O346  1  0.75780797  0.10806265  0.26542469  1
  O  O347  1  0.77081271  0.13897696  0.76579418  1
  O  O348  1  0.75772369  0.61510676  0.26469279  1
  O  O349  1  0.75604074  0.61312616  0.76364700  1
  O  O350  1  0.36778066  0.11921613  0.36734135  1
  O  O351  1  0.35673783  0.13120498  0.85356586  1
  O  O352  1  0.38444511  0.61120792  0.37677425  1
  O  O353  1  0.36346812  0.60822493  0.90082841  1
  O  O354  1  0.86840265  0.11648379  0.37989815  1
  O  O355  1  0.87187915  0.11839469  0.86030108  1
  O  O356  1  0.86973653  0.61968987  0.37320117  1
  O  O357  1  0.86564679  0.60903230  0.86952347  1
  O  O358  1  0.12938563  0.38632400  0.13834987  1
  O  O359  1  0.15552931  0.41954589  0.59796359  1
  O  O360  1  0.11767357  0.88461738  0.13908334  1
  O  O361  1  0.12170022  0.87793577  0.63442821  1
  O  O362  1  0.63738367  0.38780182  0.13448062  1
  O  O363  1  0.62868822  0.38351700  0.62559709  1
  O  O364  1  0.61011034  0.82708074  0.11677280  1
  O  O365  1  0.64305381  0.89308277  0.63191161  1
  O  O366  1  0.13626537  0.26124518  0.26491041  1
  O  O367  1  0.12972378  0.25486441  0.76091311  1
  O  O368  1  0.11390950  0.75944948  0.24209964  1
  O  O369  1  0.10617028  0.75502172  0.73001176  1
  O  O370  1  0.61485140  0.26578857  0.25845543  1
  O  O371  1  0.61885667  0.25142053  0.76602811  1
  O  O372  1  0.63700351  0.74911927  0.26115936  1
  O  O373  1  0.67710898  0.76787632  0.77334103  1
  O  O374  1  0.38300943  0.24606823  0.26154815  1
  O  O375  1  0.36806550  0.24686744  0.73592232  1
  O  O376  1  0.35823138  0.73183007  0.24039303  1
  O  O377  1  0.37412383  0.71037845  0.76552854  1
  O  O378  1  0.88305835  0.24855952  0.24590212  1
  O  O379  1  0.88508108  0.24293177  0.73351580  1
  O  O380  1  0.88651823  0.74597163  0.24354842  1
  O  O381  1  0.87546860  0.73975884  0.74554058  1
  O  O382  1  0.37913213  0.49756787  0.49453928  1
  O  O383  1  0.38202256  0.49447145  1.01139246  1
  O  O384  1  0.36990868  1.00333749  0.47870518  1
  O  O385  1  0.36727839  1.02383282  0.99999306  1
  O  O386  1  0.87036848  0.49853613  0.48799834  1
  O  O387  1  0.88477546  0.50431827  0.99189424  1
  O  O388  1  0.88606686  0.99567617  0.49425366  1
  O  O389  1  0.89313734  0.98673097  0.99859081  1
  O  O390  1  0.11577969  -0.01303666  0.01172097  1
  O  O391  1  0.12312325  0.00338950  0.50358874  1
  O  O392  1  0.11682383  0.50378530  0.01253554  1
  O  O393  1  0.11090717  0.52828488  0.46101187  1
  O  O394  1  0.63977409  0.02037756  0.03626521  1
  O  O395  1  0.63652577  0.01016562  0.51813422  1
  O  O396  1  0.62617523  0.50505495  0.01606844  1
  O  O397  1  0.62242065  0.51241734  0.50518423  1
  O  O398  1  0.35601690  0.37241809  0.13556032  1
  O  O399  1  0.38257668  0.36905926  0.60942236  1
  O  O400  1  0.36214654  0.85469196  0.15628767  1
  O  O401  1  0.38843231  0.86941567  0.63205963  1
  O  O402  1  0.85924898  0.38463541  0.13345448  1
  O  O403  1  0.85694652  0.35254610  0.62585783  1
  O  O404  1  0.88640873  0.86327817  0.11203734  1
  O  O405  1  0.86800104  0.87346303  0.61683481  1
  O  O406  1  0.13333725  0.12998031  0.38228808  1
  O  O407  1  0.13620215  0.13750656  0.86049531  1
  O  O408  1  0.12517100  0.65863104  0.36863369  1
  O  O409  1  0.13714382  0.60626233  0.89082327  1
  O  O410  1  0.63551803  0.13379418  0.36692492  1
  O  O411  1  0.64737553  0.14326255  0.87561799  1
  O  O412  1  0.63495679  0.63186910  0.37941432  1
  O  O413  1  0.63900486  0.61045680  0.88486604  1
