# generated using pymatgen
data_V79Zn79O256
_symmetry_space_group_name_H-M   'P 1'
_cell_length_a   16.93402645
_cell_length_b   16.91133185
_cell_length_c   16.93043028
_cell_angle_alpha   90.08677058
_cell_angle_beta   89.89504749
_cell_angle_gamma   90.08937764
_symmetry_Int_Tables_number   1
_chemical_formula_structural   V79Zn79O256
_chemical_formula_sum   'V79 Zn79 O256'
_cell_volume   4848.46526001
_cell_formula_units_Z   1
loop_
 _symmetry_equiv_pos_site_id
 _symmetry_equiv_pos_as_xyz
  1  'x, y, z'
loop_
 _atom_site_type_symbol
 _atom_site_label
 _atom_site_symmetry_multiplicity
 _atom_site_fract_x
 _atom_site_fract_y
 _atom_site_fract_z
 _atom_site_occupancy
  V  V0  1  0.12598436  0.62204533  -0.00226667  1
  V  V1  1  0.25589314  0.74712988  -0.00219537  1
  V  V2  1  0.11651761  0.00147616  0.61705042  1
  V  V3  1  0.49851815  0.49920248  0.00050235  1
  V  V4  1  0.25775488  0.87344131  0.12031573  1
  V  V5  1  0.24596061  0.74282345  0.49386421  1
  V  V6  1  0.00136924  0.75229002  0.25233895  1
  V  V7  1  0.37643685  0.75388804  0.12292492  1
  V  V8  1  -0.00169102  0.74936010  0.74814708  1
  V  V9  1  0.00930220  0.39329017  0.85575254  1
  V  V10  1  0.87499635  0.75833627  0.11831896  1
  V  V11  1  -0.00177337  0.62244138  0.11680187  1
  V  V12  1  0.87415619  0.40700822  -0.01271756  1
  V  V13  1  0.36954000  0.49883088  0.37738856  1
  V  V14  1  0.75011828  0.61805170  0.37303060  1
  V  V15  1  0.24014572  0.49451381  0.25115617  1
  V  V16  1  0.75095336  0.75452472  -0.00132288  1
  V  V17  1  0.01280396  0.24456046  0.75215682  1
  V  V18  1  0.51097654  0.86522116  0.37711455  1
  V  V19  1  0.49644080  0.36881288  0.87195134  1
  V  V20  1  0.74390767  0.74749297  0.49223925  1
  V  V21  1  0.50255453  0.62007669  0.12528788  1
  V  V22  1  0.25799431  0.86701227  0.62696852  1
  V  V23  1  0.37912516  0.13351215  0.24371035  1
  V  V24  1  -0.00832218  0.87583611  0.87784655  1
  V  V25  1  0.13022021  0.12314939  -0.01594324  1
  V  V26  1  0.24401857  0.36831766  0.12366235  1
  V  V27  1  0.50203440  0.62080344  0.62583567  1
  V  V28  1  0.87617807  0.74273540  0.62288972  1
  V  V29  1  0.87212012  0.61901053  0.24949470  1
  V  V30  1  0.65025735  0.24328590  0.87732171  1
  V  V31  1  0.74839862  0.24827919  0.49807389  1
  V  V32  1  0.61955721  0.25691461  0.36076412  1
  V  V33  1  0.12747622  0.87809894  0.75002828  1
  V  V34  1  0.23839814  0.37918147  0.62814186  1
  V  V35  1  0.11053838  0.24420760  0.35884535  1
  V  V36  1  0.62849162  0.74271719  0.87516887  1
  V  V37  1  0.38308991  0.23760635  0.63320150  1
  V  V38  1  0.76059284  0.00822627  0.76238642  1
  V  V39  1  0.25581342  0.01218640  0.75321653  1
  V  V40  1  -0.00530739  -0.00509415  -0.00560876  1
  V  V41  1  0.25861038  -0.00159515  0.25332589  1
  V  V42  1  0.50062490  0.00322092  0.50667764  1
  V  V43  1  0.37584664  0.36778690  0.50176763  1
  V  V44  1  0.23903532  0.23277206  0.49813872  1
  V  V45  1  0.74485875  0.38599414  0.62202839  1
  V  V46  1  0.37254485  0.00246748  0.37810433  1
  V  V47  1  0.49732723  0.74994436  0.74530358  1
  V  V48  1  0.50934596  0.74811495  0.25519200  1
  V  V49  1  0.13163446  -0.00186362  0.12456780  1
  V  V50  1  0.88012308  0.87891433  0.49204991  1
  V  V51  1  0.36844156  0.37070257  0.00012308  1
  V  V52  1  0.62195878  0.62448429  0.49471977  1
  V  V53  1  0.62888332  0.61984682  -0.00165473  1
  V  V54  1  0.73791938  0.87914983  0.13646344  1
  V  V55  1  0.37521639  0.86692299  0.50659805  1
  V  V56  1  0.73145995  0.49856563  0.23532692  1
  V  V57  1  0.50435426  0.49436563  0.50280565  1
  V  V58  1  0.64128325  0.12325994  0.00237657  1
  V  V59  1  0.36396340  0.50373568  0.87100008  1
  V  V60  1  0.75079871  0.11245263  0.36592941  1
  V  V61  1  0.86786197  0.62195837  0.75853801  1
  V  V62  1  0.00333854  0.13247460  0.13050510  1
  V  V63  1  0.37328116  0.62402706  0.75205899  1
  V  V64  1  0.62524722  0.87280141  0.75193231  1
  V  V65  1  0.74854650  0.50514692  0.76986814  1
  V  V66  1  0.36729964  0.62391324  0.25365953  1
  V  V67  1  0.01439563  0.50459604  0.49143304  1
  V  V68  1  0.75083192  0.87548676  0.62585169  1
  V  V69  1  0.37663193  0.01284271  0.87255186  1
  V  V70  1  0.62405890  0.37488913  0.75040090  1
  V  V71  1  0.49585022  0.87638797  0.88176295  1
  V  V72  1  0.24426847  0.24600416  -0.01386021  1
  V  V73  1  0.62457746  0.00647311  0.62734821  1
  V  V74  1  0.12041550  0.49330418  0.12277079  1
  V  V75  1  0.87834224  0.38361828  0.48654562  1
  V  V76  1  0.49815201  0.00919719  0.00666162  1
  V  V77  1  0.87346686  0.24585184  0.63603651  1
  V  V78  1  0.13200145  0.74727044  0.87442049  1
  Zn  Zn79  1  0.18545050  0.58108238  0.43413783  1
  Zn  Zn80  1  0.12081894  0.74507625  0.37886520  1
  Zn  Zn81  1  -0.02288474  0.28215233  0.23876535  1
  Zn  Zn82  1  0.13031211  0.87376029  0.25531891  1
  Zn  Zn83  1  0.23806441  0.50211509  0.74442288  1
  Zn  Zn84  1  0.51913322  0.15100677  0.14788571  1
  Zn  Zn85  1  0.44440909  0.19037017  0.80756131  1
  Zn  Zn86  1  0.67522723  0.03197257  0.18657246  1
  Zn  Zn87  1  0.08529287  0.11798709  0.50271567  1
  Zn  Zn88  1  0.49810104  0.36922671  0.35122166  1
  Zn  Zn89  1  0.01192087  0.61160649  0.62379847  1
  Zn  Zn90  1  0.76589467  0.35399580  0.12419514  1
  Zn  Zn91  1  0.62516305  0.12732668  0.50324434  1
  Zn  Zn92  1  -0.00326045  0.88973996  0.37451891  1
  Zn  Zn93  1  0.87279363  0.12155881  0.24631816  1
  Zn  Zn94  1  0.19510839  0.18139665  0.18352327  1
  Zn  Zn95  1  0.18681797  0.18627640  0.67905670  1
  Zn  Zn96  1  0.18535911  0.68308130  0.18742837  1
  Zn  Zn97  1  0.19195287  0.69053105  0.68644480  1
  Zn  Zn98  1  0.70097585  0.19796424  0.18396999  1
  Zn  Zn99  1  0.69255900  0.18988001  0.69107854  1
  Zn  Zn100  1  0.68868938  0.68624506  0.18264965  1
  Zn  Zn101  1  0.68506734  0.68276303  0.68188637  1
  Zn  Zn102  1  0.30120806  0.31156126  0.31690269  1
  Zn  Zn103  1  0.30416530  0.31657789  0.80772935  1
  Zn  Zn104  1  0.31984780  0.81539967  0.31438513  1
  Zn  Zn105  1  0.31785267  0.81617250  0.81306403  1
  Zn  Zn106  1  0.80371844  0.31381295  0.30743530  1
  Zn  Zn107  1  0.81659331  0.32806497  0.81631108  1
  Zn  Zn108  1  0.81137021  0.80804479  0.31067406  1
  Zn  Zn109  1  0.81104610  0.80921871  0.81289429  1
  Zn  Zn110  1  0.18463698  0.41499876  0.43741015  1
  Zn  Zn111  1  0.18221860  0.43623599  0.93395775  1
  Zn  Zn112  1  0.18452011  0.92909821  0.43572586  1
  Zn  Zn113  1  0.19079428  0.93514094  0.93503726  1
  Zn  Zn114  1  0.68869596  0.43638040  0.43158470  1
  Zn  Zn115  1  0.66117948  0.39761252  0.98974114  1
  Zn  Zn116  1  0.68838642  0.93526297  0.44101768  1
  Zn  Zn117  1  0.68615780  0.93566282  0.94274903  1
  Zn  Zn118  1  0.32034177  0.06603420  0.06111460  1
  Zn  Zn119  1  0.30845805  0.05501590  0.56465077  1
  Zn  Zn120  1  0.31045596  0.56195546  0.06416632  1
  Zn  Zn121  1  0.31951178  0.56290032  0.56891759  1
  Zn  Zn122  1  0.82491639  0.06528958  0.05206517  1
  Zn  Zn123  1  0.87411045  0.08539191  0.53120181  1
  Zn  Zn124  1  0.81450571  0.56150537  0.05865848  1
  Zn  Zn125  1  0.81182320  0.55957305  0.56226788  1
  Zn  Zn126  1  0.42687914  0.43493941  0.18540849  1
  Zn  Zn127  1  0.43474755  0.43345012  0.68607115  1
  Zn  Zn128  1  0.48607410  0.96204349  0.21359048  1
  Zn  Zn129  1  0.44289193  1.05687756  0.68696557  1
  Zn  Zn130  1  0.93185759  0.43772267  0.18164647  1
  Zn  Zn131  1  0.93492305  0.43622881  0.67879924  1
  Zn  Zn132  1  0.93826871  0.93892198  0.18209426  1
  Zn  Zn133  1  0.93510230  0.93465306  0.68674711  1
  Zn  Zn134  1  0.07034371  0.06720336  0.31328546  1
  Zn  Zn135  1  -0.07176650  0.07405645  0.82337144  1
  Zn  Zn136  1  0.05378259  0.55886669  0.31052878  1
  Zn  Zn137  1  0.06086835  0.57299747  0.80588503  1
  Zn  Zn138  1  0.56064582  0.06866176  0.32727607  1
  Zn  Zn139  1  0.57248966  0.06006541  0.81899519  1
  Zn  Zn140  1  0.55665474  0.55931395  0.31591110  1
  Zn  Zn141  1  0.55944628  0.55701781  0.81466341  1
  Zn  Zn142  1  0.43549244  0.18652871  0.43676399  1
  Zn  Zn143  1  0.49213161  0.23632078  1.00238589  1
  Zn  Zn144  1  0.43221831  0.68454955  0.43990221  1
  Zn  Zn145  1  0.43987859  0.68706348  0.93485820  1
  Zn  Zn146  1  0.93272060  0.20172295  0.42506096  1
  Zn  Zn147  1  0.92446817  0.21943527  0.92993400  1
  Zn  Zn148  1  0.93545460  0.67990017  0.43797644  1
  Zn  Zn149  1  0.93874536  0.68778161  0.93570198  1
  Zn  Zn150  1  0.04511758  0.31051297  0.04318265  1
  Zn  Zn151  1  0.05463696  0.31304623  0.56304079  1
  Zn  Zn152  1  0.06763382  0.81225595  0.06409941  1
  Zn  Zn153  1  0.06382900  0.81376826  0.56228729  1
  Zn  Zn154  1  0.57036231  0.33187001  0.16319366  1
  Zn  Zn155  1  0.56291635  0.30955266  0.56337047  1
  Zn  Zn156  1  0.56190966  0.81288120  0.06376971  1
  Zn  Zn157  1  0.56232039  0.81230271  0.56527763  1
  O  O158  1  0.12468388  0.11043460  0.12218217  1
  O  O159  1  0.12589409  0.10450711  0.62109672  1
  O  O160  1  0.11753320  0.61918243  0.11617706  1
  O  O161  1  0.12894957  0.59870325  0.65374480  1
  O  O162  1  0.63179345  0.12632553  0.11586472  1
  O  O163  1  0.63673575  0.10942353  0.62357456  1
  O  O164  1  0.60897485  0.63098098  0.11427332  1
  O  O165  1  0.61265853  0.62310238  0.61153167  1
  O  O166  1  0.37436330  0.38043824  0.38366143  1
  O  O167  1  0.37718717  0.38329646  0.87865015  1
  O  O168  1  0.38253792  0.88153992  0.38884064  1
  O  O169  1  0.39090608  0.88425630  0.86944282  1
  O  O170  1  0.86657222  0.36710115  0.38871727  1
  O  O171  1  0.89206848  0.38086050  0.87900607  1
  O  O172  1  0.87271495  0.86598836  0.38905788  1
  O  O173  1  0.89271206  0.86219080  0.87315842  1
  O  O174  1  0.26084441  -0.01502704  0.36462451  1
  O  O175  1  0.26094277  -0.01001755  0.86099850  1
  O  O176  1  0.25291643  0.49315865  0.37072986  1
  O  O177  1  0.25969894  0.49449853  0.86571794  1
  O  O178  1  0.74393260  0.01448558  0.38337526  1
  O  O179  1  0.74707793  -0.01301190  0.85998532  1
  O  O180  1  0.74362737  0.51332776  0.36261754  1
  O  O181  1  0.75418040  0.50428240  0.86474707  1
  O  O182  1  0.23927781  0.49354608  0.13090964  1
  O  O183  1  0.25936217  0.48275528  0.62196505  1
  O  O184  1  0.25195616  0.99045539  0.12810637  1
  O  O185  1  0.24456816  0.98824420  0.63713397  1
  O  O186  1  0.74165124  0.51689087  0.13618436  1
  O  O187  1  0.74096363  0.48792769  0.61986229  1
  O  O188  1  0.75709331  0.98367964  0.12104142  1
  O  O189  1  0.74376027  0.98205571  0.63895796  1
  O  O190  1  0.00923625  0.38759123  0.23814660  1
  O  O191  1  -0.00753575  0.36785090  0.75056268  1
  O  O192  1  -0.00358626  0.85713251  0.24558577  1
  O  O193  1  0.00940120  0.86957735  0.75715023  1
  O  O194  1  0.50565845  0.38299661  0.24003429  1
  O  O195  1  0.50904643  0.38142251  0.76274599  1
  O  O196  1  0.49080837  0.86139379  0.27019210  1
  O  O197  1  0.51544623  0.86399944  0.75908536  1
  O  O198  1  0.48464411  0.12414235  0.25515366  1
  O  O199  1  0.51020445  0.12157644  0.74945185  1
  O  O200  1  0.48824498  0.62683674  0.24416804  1
  O  O201  1  0.49966624  0.62930601  0.74388036  1
  O  O202  1  1.00976083  0.12162348  0.23130826  1
  O  O203  1  0.98730193  0.14657869  0.75548883  1
  O  O204  1  0.99063677  0.63304730  0.23739668  1
  O  O205  1  0.98480503  0.63373728  0.74060019  1
  O  O206  1  0.36038322  0.26518414  -0.00192159  1
  O  O207  1  0.36698135  0.25195773  0.50583054  1
  O  O208  1  0.36766934  0.73973346  0.00946826  1
  O  O209  1  0.36489919  0.75807111  0.49829543  1
  O  O210  1  0.92491750  0.29577773  0.01104355  1
  O  O211  1  0.86458745  0.26394610  0.50700406  1
  O  O212  1  0.86237769  0.73960278  0.00685101  1
  O  O213  1  0.86410512  0.75174977  0.50706524  1
  O  O214  1  0.13310036  0.23755070  0.51232371  1
  O  O215  1  0.13398343  0.23659519  0.99956258  1
  O  O216  1  0.14039312  0.75047438  0.50137637  1
  O  O217  1  0.13473379  0.74393413  0.99355677  1
  O  O218  1  0.63485671  0.24728319  0.49869619  1
  O  O219  1  0.62321607  0.23312166  0.98532278  1
  O  O220  1  0.63471284  0.73981671  0.50762195  1
  O  O221  1  0.62815818  0.74109713  0.99285963  1
  O  O222  1  0.50163152  0.25554966  0.11168048  1
  O  O223  1  0.48163932  0.24905705  0.61889327  1
  O  O224  1  0.49257302  0.74294826  0.13189476  1
  O  O225  1  0.50646101  0.74074493  0.63806343  1
  O  O226  1  1.01554973  0.23441112  0.12850365  1
  O  O227  1  0.98060017  0.25862831  0.63489829  1
  O  O228  1  0.99384123  0.74417878  0.12789597  1
  O  O229  1  0.99063238  0.74988203  0.62979439  1
  O  O230  1  0.00444266  0.24225130  0.34710634  1
  O  O231  1  0.00180871  0.26642810  0.85609410  1
  O  O232  1  -0.00684069  0.74484309  0.35636407  1
  O  O233  1  0.01281633  0.75612731  0.86986329  1
  O  O234  1  0.51542554  0.24903003  0.38164349  1
  O  O235  1  0.49052248  0.26194536  0.88638351  1
  O  O236  1  0.49354937  0.75732810  0.37240161  1
  O  O237  1  0.50959327  0.75662013  0.87043545  1
  O  O238  1  0.25316726  0.13362077  0.50380801  1
  O  O239  1  0.24464143  0.13762531  1.00555526  1
  O  O240  1  0.25822905  0.63704654  0.50421001  1
  O  O241  1  0.24052181  0.63757822  1.00734151  1
  O  O242  1  0.75751225  0.13938433  0.48714469  1
  O  O243  1  0.73991750  0.11858675  1.00345672  1
  O  O244  1  0.74219922  0.62746654  0.49321146  1
  O  O245  1  0.73385569  0.63499839  1.00850803  1
  O  O246  1  0.24900754  0.36610373  0.00189235  1
  O  O247  1  0.26134862  0.36322013  0.50881602  1
  O  O248  1  0.24729652  0.86208975  0.01072702  1
  O  O249  1  0.25679595  0.86625477  0.50780267  1
  O  O250  1  0.77478136  0.38355099  -0.02179605  1
  O  O251  1  0.75093665  0.36898039  0.50396172  1
  O  O252  1  0.74324861  0.85992735  0.01001191  1
  O  O253  1  0.75435764  0.86395095  0.50703946  1
  O  O254  1  0.13304663  0.50644935  0.23724349  1
  O  O255  1  0.12906961  0.53962040  0.71792248  1
  O  O256  1  0.14009260  0.99717139  0.24189270  1
  O  O257  1  0.13990331  0.98426087  0.74219071  1
  O  O258  1  0.63188059  0.50719024  0.24926526  1
  O  O259  1  0.63503094  0.48745352  0.76141794  1
  O  O260  1  0.59113447  0.99607891  0.24772645  1
  O  O261  1  0.63375764  0.98710355  0.74564257  1
  O  O262  1  0.37611134  0.00137742  0.26012092  1
  O  O263  1  0.36192027  0.00064590  0.75206287  1
  O  O264  1  0.36292210  0.50466500  0.25871826  1
  O  O265  1  0.37789900  0.50737977  0.75660411  1
  O  O266  1  0.91098478  0.00303080  0.27553001  1
  O  O267  1  0.86702912  -0.00105432  0.75241885  1
  O  O268  1  0.86434505  0.51763982  0.24093478  1
  O  O269  1  0.85732003  0.50955344  0.73906991  1
  O  O270  1  0.11772552  0.34215006  0.38826051  1
  O  O271  1  0.11182252  0.38507154  0.86465663  1
  O  O272  1  0.11242726  0.86678390  0.37096735  1
  O  O273  1  0.12118690  0.86649045  0.86653791  1
  O  O274  1  0.62152574  0.36051649  0.37684812  1
  O  O275  1  0.61542905  0.35818951  0.87940913  1
  O  O276  1  0.60949459  0.87185580  0.38463422  1
  O  O277  1  0.62010802  0.86452521  0.86788845  1
  O  O278  1  0.38040908  0.12341911  0.14090145  1
  O  O279  1  0.37297036  0.13226378  0.62572272  1
  O  O280  1  0.38198066  0.63175824  0.13290992  1
  O  O281  1  0.39313363  0.62258799  0.63531445  1
  O  O282  1  0.89956403  0.11035550  0.12754617  1
  O  O283  1  0.85797341  0.14698438  0.62548020  1
  O  O284  1  0.88172441  0.63503856  0.12777405  1
  O  O285  1  0.86802991  0.63614750  0.62938509  1
  O  O286  1  0.24148220  0.26389008  0.11573872  1
  O  O287  1  0.25973230  0.25619752  0.61616522  1
  O  O288  1  0.25654729  0.75407700  0.12002931  1
  O  O289  1  0.24800883  0.75883278  0.61363158  1
  O  O290  1  0.79482361  0.24398371  0.14471960  1
  O  O291  1  0.75135803  0.26142045  0.61675990  1
  O  O292  1  0.75602927  0.75694924  0.11885515  1
  O  O293  1  0.75457600  0.75637540  0.61807905  1
  O  O294  1  0.24157205  0.25022626  0.39544764  1
  O  O295  1  0.24961544  0.25349105  0.88749865  1
  O  O296  1  0.25055035  0.75674273  0.39028498  1
  O  O297  1  0.24252027  0.75907112  0.88429082  1
  O  O298  1  0.73476095  0.24773358  0.37926258  1
  O  O299  1  0.74791789  0.25400456  0.87951459  1
  O  O300  1  0.74968310  0.73996299  0.38590839  1
  O  O301  1  0.73702732  0.75405931  0.88307126  1
  O  O302  1  0.02018370  0.10800227  0.01241550  1
  O  O303  1  -0.02654671  0.12355155  0.49432432  1
  O  O304  1  0.01304236  0.63665724  0.00739956  1
  O  O305  1  -0.00028754  0.61319438  0.50397642  1
  O  O306  1  0.51007706  0.11441502  0.00612114  1
  O  O307  1  0.50177003  0.10611563  0.49344197  1
  O  O308  1  0.50470744  0.61887798  0.00599407  1
  O  O309  1  0.50282767  0.61765580  0.50509544  1
  O  O310  1  0.48922904  0.38011852  0.50296072  1
  O  O311  1  0.48493964  0.38510166  0.99092098  1
  O  O312  1  0.49367594  0.87502362  0.49544153  1
  O  O313  1  0.51429127  0.88702649  0.98764964  1
  O  O314  1  0.98490632  0.38321357  0.49995143  1
  O  O315  1  1.00005527  0.39339790  0.97654410  1
  O  O316  1  0.98432528  0.86633479  0.49646559  1
  O  O317  1  1.01774065  0.88651256  0.99084856  1
  O  O318  1  0.48652509  0.49399054  0.38389714  1
  O  O319  1  0.48890445  0.49075463  0.88290093  1
  O  O320  1  0.49247207  0.98350978  0.38770468  1
  O  O321  1  0.49496828  0.99405334  0.88094064  1
  O  O322  1  0.99357479  0.50427098  0.39149745  1
  O  O323  1  0.99808862  0.49452400  0.85243038  1
  O  O324  1  0.97314304  0.99980691  0.33533265  1
  O  O325  1  1.00067601  0.99214045  0.88685305  1
  O  O326  1  0.01811446  -0.00538360  0.11445749  1
  O  O327  1  0.01797039  -0.01319589  0.62963520  1
  O  O328  1  0.00782244  0.51668997  0.12505711  1
  O  O329  1  -0.00847924  0.49785178  0.60137499  1
  O  O330  1  0.49437811  -0.00905404  0.10437504  1
  O  O331  1  0.51124008  -0.00695883  0.61758154  1
  O  O332  1  0.48515326  0.51125998  0.11157583  1
  O  O333  1  0.49476878  0.50452324  0.61239383  1
  O  O334  1  0.25344308  0.38577031  0.23949636  1
  O  O335  1  0.24694869  0.37876608  0.73337854  1
  O  O336  1  0.25444372  0.87997734  0.23859964  1
  O  O337  1  0.24456972  0.87055620  0.74244774  1
  O  O338  1  0.75397875  0.39709802  0.24429824  1
  O  O339  1  0.74416275  0.38930160  0.74482169  1
  O  O340  1  0.75203239  0.86853857  0.23604641  1
  O  O341  1  0.74149774  0.87135440  0.74343008  1
  O  O342  1  0.26356330  0.10510353  0.24343961  1
  O  O343  1  0.24366896  0.10957902  0.74784159  1
  O  O344  1  0.26076146  0.61311373  0.24121959  1
  O  O345  1  0.27103830  0.62674724  0.74247987  1
  O  O346  1  0.74262921  0.10985520  0.25637154  1
  O  O347  1  0.74494516  0.10603284  0.75261025  1
  O  O348  1  0.75250691  0.62337892  0.25547572  1
  O  O349  1  0.74982818  0.61250150  0.74478330  1
  O  O350  1  0.37928383  0.10729126  0.37082360  1
  O  O351  1  0.37898772  0.11212083  0.86928806  1
  O  O352  1  0.37694278  0.61117573  0.36646957  1
  O  O353  1  0.38454605  0.61393160  0.86531287  1
  O  O354  1  0.85233804  0.13592548  0.36529595  1
  O  O355  1  0.88134043  0.12200047  0.91278785  1
  O  O356  1  0.86127759  0.63173856  0.36233482  1
  O  O357  1  0.87410596  0.63635892  0.85729255  1
  O  O358  1  0.12858928  0.38811403  0.10741582  1
  O  O359  1  0.14072410  0.37258975  0.61227568  1
  O  O360  1  0.13888714  0.88167537  0.12819333  1
  O  O361  1  0.13527778  0.87780389  0.63213179  1
  O  O362  1  0.65595289  0.36077776  0.09758150  1
  O  O363  1  0.62903190  0.36499731  0.64205347  1
  O  O364  1  0.63739036  0.87059761  0.12734961  1
  O  O365  1  0.63206932  0.87790450  0.63348259  1
  O  O366  1  0.14079483  0.24064410  0.26299434  1
  O  O367  1  0.11178715  0.24780088  0.73547857  1
  O  O368  1  0.10863640  0.75037533  0.24115468  1
  O  O369  1  0.12199260  0.75654951  0.75567168  1
  O  O370  1  0.62577441  0.24946577  0.25825407  1
  O  O371  1  0.63486670  0.26045898  0.76726042  1
  O  O372  1  0.60786064  0.73834140  0.24835752  1
  O  O373  1  0.62054853  0.75138326  0.75668896  1
  O  O374  1  0.36087281  0.23043683  0.26283050  1
  O  O375  1  0.37185365  0.25093457  0.73833636  1
  O  O376  1  0.37986025  0.73936742  0.24474555  1
  O  O377  1  0.39091541  0.74048640  0.76155052  1
  O  O378  1  0.86651353  0.24317443  0.24122329  1
  O  O379  1  0.86291265  0.25839947  0.73657683  1
  O  O380  1  0.88204619  0.74122665  0.23783951  1
  O  O381  1  0.87603362  0.74437713  0.73971757  1
  O  O382  1  0.37977121  0.49101979  0.49307847  1
  O  O383  1  0.37565360  0.49731118  0.98936755  1
  O  O384  1  0.38082577  0.99004161  0.49802812  1
  O  O385  1  0.38888086  1.00622629  0.98864888  1
  O  O386  1  0.86799675  0.48632276  0.49543545  1
  O  O387  1  0.88156942  0.50963847  0.98452655  1
  O  O388  1  0.86528933  0.97610195  0.50760476  1
  O  O389  1  0.89808940  0.98795932  1.00950252  1
  O  O390  1  0.13528015  0.00762546  0.00743209  1
  O  O391  1  0.12986567  -0.00553882  0.51337611  1
  O  O392  1  0.13480148  0.51507103  0.00642781  1
  O  O393  1  0.11985597  0.49836360  0.48962128  1
  O  O394  1  0.61524309  0.01526165  -0.01149945  1
  O  O395  1  0.61801932  -0.00288620  0.51158903  1
  O  O396  1  0.60756703  0.50650039  -0.00814578  1
  O  O397  1  0.61117687  0.50534483  0.49134713  1
  O  O398  1  0.35501547  0.38863858  0.10900527  1
  O  O399  1  0.36953018  0.36207564  0.61743875  1
  O  O400  1  0.36927785  0.85834014  0.12848474  1
  O  O401  1  0.36456225  0.87836975  0.61424950  1
  O  O402  1  0.86543927  0.40558059  0.09921111  1
  O  O403  1  0.85883016  0.36895475  0.61398047  1
  O  O404  1  0.86958267  0.86249112  0.12573612  1
  O  O405  1  0.86779498  0.86194728  0.61877880  1
  O  O406  1  0.11623453  0.13645711  0.39004726  1
  O  O407  1  0.12672923  0.11597121  0.88943346  1
  O  O408  1  0.12645699  0.63324458  0.35770128  1
  O  O409  1  0.12148628  0.63859961  0.88184689  1
  O  O410  1  0.63503255  0.13724040  0.38171743  1
  O  O411  1  0.63207879  0.13599200  0.88228592  1
  O  O412  1  0.62848079  0.62457284  0.38785463  1
  O  O413  1  0.61525171  0.63387808  0.88465306  1
