# generated using pymatgen
data_V79Zn79O256
_symmetry_space_group_name_H-M   'P 1'
_cell_length_a   16.94739317
_cell_length_b   16.92031024
_cell_length_c   16.92165811
_cell_angle_alpha   89.88692305
_cell_angle_beta   90.16113315
_cell_angle_gamma   89.82451892
_symmetry_Int_Tables_number   1
_chemical_formula_structural   V79Zn79O256
_chemical_formula_sum   'V79 Zn79 O256'
_cell_volume   4852.32113377
_cell_formula_units_Z   1
loop_
 _symmetry_equiv_pos_site_id
 _symmetry_equiv_pos_as_xyz
  1  'x, y, z'
loop_
 _atom_site_type_symbol
 _atom_site_label
 _atom_site_symmetry_multiplicity
 _atom_site_fract_x
 _atom_site_fract_y
 _atom_site_fract_z
 _atom_site_occupancy
  V  V0  1  0.37955226  -0.00708593  0.37480907  1
  V  V1  1  0.74798812  0.25265685  0.51077526  1
  V  V2  1  0.62908980  0.87449038  0.74232464  1
  V  V3  1  0.38341845  0.37430865  0.01451990  1
  V  V4  1  -0.00405527  -0.00270017  0.47889045  1
  V  V5  1  0.37615522  0.87199028  -0.00061754  1
  V  V6  1  0.75500676  0.50177474  0.24063000  1
  V  V7  1  0.24584605  0.12059565  0.87357226  1
  V  V8  1  0.75260492  0.61793112  0.88040885  1
  V  V9  1  0.11769779  0.86645801  0.74996307  1
  V  V10  1  0.24743468  0.87221736  0.62386767  1
  V  V11  1  0.74713119  0.00875172  0.74367498  1
  V  V12  1  0.50597722  -0.00515703  0.50662701  1
  V  V13  1  0.62882295  0.62282971  0.50755446  1
  V  V14  1  0.50477813  0.01477324  0.00421002  1
  V  V15  1  0.37238326  0.61721632  0.75330482  1
  V  V16  1  0.87018204  0.73558974  0.12669533  1
  V  V17  1  0.50309983  0.74992651  0.75386034  1
  V  V18  1  0.61448588  0.63136137  0.00847835  1
  V  V19  1  0.87319912  0.37069567  0.49960645  1
  V  V20  1  0.50452844  0.61418528  0.62880518  1
  V  V21  1  0.62778290  0.38021316  0.74311211  1
  V  V22  1  0.74546083  0.11766242  0.37944590  1
  V  V23  1  0.74532598  -0.00413920  0.23242420  1
  V  V24  1  -0.00176478  0.72388627  0.24510743  1
  V  V25  1  0.87568869  0.01227157  0.87040198  1
  V  V26  1  0.25825335  0.54004654  0.29084185  1
  V  V27  1  0.87121847  0.13246044  0.25504620  1
  V  V28  1  0.38014727  0.87129962  0.49562124  1
  V  V29  1  0.60640028  0.50480655  0.12625261  1
  V  V30  1  -0.00131174  0.50297166  0.00953154  1
  V  V31  1  -0.00218688  0.50167433  0.50033230  1
  V  V32  1  -0.00450924  0.87020470  0.87520763  1
  V  V33  1  0.26060692  0.24705649  0.00444072  1
  V  V34  1  0.24795804  0.61517318  0.87295750  1
  V  V35  1  0.38280312  0.12168576  0.23728255  1
  V  V36  1  0.37465003  0.74700038  0.62618577  1
  V  V37  1  0.61469484  0.76081311  0.37392101  1
  V  V38  1  0.38209274  0.49706079  0.88323989  1
  V  V39  1  0.38594765  0.73940701  0.13455262  1
  V  V40  1  0.11495774  -0.00225076  0.62424935  1
  V  V41  1  0.24756440  0.74707169  0.00122550  1
  V  V42  1  0.86725127  0.61815672  0.74873956  1
  V  V43  1  0.11744069  0.75366186  0.37458698  1
  V  V44  1  0.12547362  0.12581449  0.49223647  1
  V  V45  1  0.24824030  0.74464412  0.49408810  1
  V  V46  1  0.26309013  0.24698108  0.50491341  1
  V  V47  1  0.51123629  0.36705587  0.88191031  1
  V  V48  1  0.11843530  0.74425287  0.87266520  1
  V  V49  1  0.13281375  0.49086355  0.63177625  1
  V  V50  1  -0.00584629  0.13873641  0.12420044  1
  V  V51  1  0.24324363  0.37225482  0.13647586  1
  V  V52  1  0.75412067  0.62985447  0.36919067  1
  V  V53  1  0.62650822  0.12115016  0.51380521  1
  V  V54  1  0.00124474  0.62625229  0.63460483  1
  V  V55  1  0.12187327  0.62199415  0.01142324  1
  V  V56  1  0.75588874  0.75326572  0.50207508  1
  V  V57  1  0.73168593  0.13614023  0.88241590  1
  V  V58  1  0.12501270  0.62574614  0.49482844  1
  V  V59  1  0.63403759  0.75125304  0.87753953  1
  V  V60  1  0.24626759  0.87189558  0.12417673  1
  V  V61  1  0.37145096  -0.00561914  0.87115483  1
  V  V62  1  0.11912002  0.00138635  0.12476851  1
  V  V63  1  0.88115552  0.75222053  0.62997332  1
  V  V64  1  0.86801176  0.36863869  0.00473885  1
  V  V65  1  0.87551259  0.50345981  0.37113211  1
  V  V66  1  0.01253101  0.37291600  0.87102376  1
  V  V67  1  0.24886956  -0.00001468  0.74908448  1
  V  V68  1  0.61275271  0.87747402  0.24179098  1
  V  V69  1  0.24627598  0.12609108  0.37110327  1
  V  V70  1  0.12304310  0.12947677  -0.00046483  1
  V  V71  1  0.24687584  -0.00561666  0.25012748  1
  V  V72  1  0.10752501  0.87777013  0.25121987  1
  V  V73  1  0.87970694  0.87833877  0.48500700  1
  V  V74  1  0.47929950  0.12730537  0.62907753  1
  V  V75  1  0.61825722  0.37908362  0.25914058  1
  V  V76  1  0.49802476  0.49672804  0.48319257  1
  V  V77  1  0.86167886  0.87294586  0.00708694  1
  V  V78  1  -0.00075148  0.14880457  0.63146910  1
  Zn  Zn79  1  0.84898537  0.25278257  0.11896398  1
  Zn  Zn80  1  0.12672693  0.49679085  0.14181042  1
  Zn  Zn81  1  0.16504200  0.31572803  0.31500705  1
  Zn  Zn82  1  0.49193769  0.26007546  0.25074817  1
  Zn  Zn83  1  0.12883171  0.25901807  0.86013708  1
  Zn  Zn84  1  0.49854472  0.24496356  0.74690576  1
  Zn  Zn85  1  0.61758745  0.25611224  0.38341776  1
  Zn  Zn86  1  0.75397270  0.38711079  0.63655324  1
  Zn  Zn87  1  -0.00376392  0.00170955  -0.00045610  1
  Zn  Zn88  1  0.50595934  0.87693938  0.87492164  1
  Zn  Zn89  1  0.25549447  0.36665685  0.63533730  1
  Zn  Zn90  1  0.38265457  0.37534699  0.50250753  1
  Zn  Zn91  1  0.75190232  0.88306800  0.62155916  1
  Zn  Zn92  1  0.00616930  0.35508390  0.35582106  1
  Zn  Zn93  1  0.87589522  0.49125441  0.86956977  1
  Zn  Zn94  1  0.19512678  0.18463497  0.18228482  1
  Zn  Zn95  1  0.18336660  0.18452813  0.68240165  1
  Zn  Zn96  1  0.19272574  0.68817966  0.19274324  1
  Zn  Zn97  1  0.18811561  0.68236866  0.68487569  1
  Zn  Zn98  1  0.67540087  0.18293766  0.19298102  1
  Zn  Zn99  1  0.68237280  0.19750403  0.69690295  1
  Zn  Zn100  1  0.68588422  0.69497271  0.18819919  1
  Zn  Zn101  1  0.68610855  0.55914153  0.69149024  1
  Zn  Zn102  1  0.33416715  0.30808777  0.31891264  1
  Zn  Zn103  1  0.32229213  0.29956158  0.81772428  1
  Zn  Zn104  1  0.30862197  0.80697699  0.31133925  1
  Zn  Zn105  1  0.30695561  0.80757466  0.81221709  1
  Zn  Zn106  1  0.80097944  0.31257432  0.31704716  1
  Zn  Zn107  1  0.81922253  0.31143204  0.81208546  1
  Zn  Zn108  1  0.81409092  0.81183760  0.30469784  1
  Zn  Zn109  1  0.81122480  0.81146579  0.80979806  1
  Zn  Zn110  1  0.19396228  0.43994456  0.44187481  1
  Zn  Zn111  1  0.19296214  0.43854301  0.94805770  1
  Zn  Zn112  1  0.18562544  0.93483576  0.43538373  1
  Zn  Zn113  1  0.18296451  0.93429052  0.93867828  1
  Zn  Zn114  1  0.68969713  0.44312709  0.43892304  1
  Zn  Zn115  1  0.68676894  0.44646878  0.94521311  1
  Zn  Zn116  1  0.69063943  0.93864403  0.43611939  1
  Zn  Zn117  1  0.68754287  0.94387170  0.93372758  1
  Zn  Zn118  1  0.31280047  0.05644869  0.05799642  1
  Zn  Zn119  1  0.30989875  0.05746489  0.56123056  1
  Zn  Zn120  1  0.31235283  0.55815296  0.06778968  1
  Zn  Zn121  1  0.31558015  0.55838907  0.56172550  1
  Zn  Zn122  1  0.81017259  0.06383097  0.05872923  1
  Zn  Zn123  1  0.82295984  0.06943900  0.56565034  1
  Zn  Zn124  1  0.80897669  0.56269460  0.05771820  1
  Zn  Zn125  1  0.81480911  0.56300518  0.56063106  1
  Zn  Zn126  1  0.43007111  0.45033811  0.20355924  1
  Zn  Zn127  1  0.43578231  0.43054217  0.69030392  1
  Zn  Zn128  1  0.43793134  0.93756203  0.18127224  1
  Zn  Zn129  1  0.43743337  0.93521576  0.68509548  1
  Zn  Zn130  1  0.93823341  0.43093186  0.18576336  1
  Zn  Zn131  1  0.93102998  0.41565551  0.69675569  1
  Zn  Zn132  1  0.93023068  0.94997299  0.19001559  1
  Zn  Zn133  1  0.93296756  0.93707762  0.68783288  1
  Zn  Zn134  1  0.05713693  0.17481047  0.31340106  1
  Zn  Zn135  1  0.05878616  0.06345790  0.80712404  1
  Zn  Zn136  1  0.05722599  0.52474144  0.29807628  1
  Zn  Zn137  1  0.05985183  0.55269499  0.81345213  1
  Zn  Zn138  1  0.56455451  0.05905539  0.31967959  1
  Zn  Zn139  1  0.56216988  0.06007674  0.81388376  1
  Zn  Zn140  1  0.57027021  0.56794872  0.31750550  1
  Zn  Zn141  1  0.56013980  0.56032214  0.82285187  1
  Zn  Zn142  1  0.44258308  0.18046425  0.42915331  1
  Zn  Zn143  1  0.43546353  0.19060585  0.91458909  1
  Zn  Zn144  1  0.44161027  0.68481007  0.43937755  1
  Zn  Zn145  1  0.43696440  0.68868375  0.94009882  1
  Zn  Zn146  1  0.93456152  0.18518112  0.44606822  1
  Zn  Zn147  1  0.94047902  0.19576114  0.93486401  1
  Zn  Zn148  1  0.93971880  0.68767392  0.43629117  1
  Zn  Zn149  1  0.93424184  0.68782605  0.94247972  1
  Zn  Zn150  1  0.06425404  0.31587349  0.05876595  1
  Zn  Zn151  1  0.07576331  0.32025387  0.52890630  1
  Zn  Zn152  1  0.05515299  0.80995771  0.06277947  1
  Zn  Zn153  1  0.05710890  0.81359223  0.56080347  1
  Zn  Zn154  1  0.57334372  0.31677169  0.06759746  1
  Zn  Zn155  1  0.56029689  0.31016528  0.56796250  1
  Zn  Zn156  1  0.56191528  0.81652133  0.06152684  1
  Zn  Zn157  1  0.56475169  0.80557634  0.56574718  1
  O  O158  1  0.11818374  0.11753004  0.11785292  1
  O  O159  1  0.12080302  0.11352845  0.61121876  1
  O  O160  1  0.13571691  0.62287368  0.11396077  1
  O  O161  1  0.11740729  0.62113332  0.61695918  1
  O  O162  1  0.57464731  0.16292756  0.13413944  1
  O  O163  1  0.62924011  0.12577042  0.61481041  1
  O  O164  1  0.62720924  0.62751375  0.11529703  1
  O  O165  1  0.61786257  0.63005516  0.61672668  1
  O  O166  1  0.38451772  0.37172239  0.38959355  1
  O  O167  1  0.38597803  0.38143427  0.88577545  1
  O  O168  1  0.36620777  0.87998104  0.38567423  1
  O  O169  1  0.36819870  0.87842745  0.88288317  1
  O  O170  1  0.87180289  0.38906996  0.37950924  1
  O  O171  1  0.89087078  0.37533004  0.88870066  1
  O  O172  1  0.87406551  0.86998019  0.38638838  1
  O  O173  1  0.88164530  0.87296821  0.88284531  1
  O  O174  1  0.25545217  0.00121941  0.36704345  1
  O  O175  1  0.24883023  -0.00106349  0.86705040  1
  O  O176  1  0.25603463  0.51885732  0.39088659  1
  O  O177  1  0.25896505  0.50968383  0.88045722  1
  O  O178  1  0.75300172  0.01455117  0.37627712  1
  O  O179  1  0.76081883  0.01113494  0.86664175  1
  O  O180  1  0.75657833  0.51185807  0.36859835  1
  O  O181  1  0.75625584  0.51438298  0.87964653  1
  O  O182  1  0.24842407  0.47647263  0.11869064  1
  O  O183  1  0.23534541  0.50027380  0.61751441  1
  O  O184  1  0.23972113  0.99278248  0.13047378  1
  O  O185  1  0.23683224  0.99337577  0.62963085  1
  O  O186  1  0.74432242  0.51322703  0.13938565  1
  O  O187  1  0.74456607  0.49982743  0.61697458  1
  O  O188  1  0.74030501  1.00850462  0.13348100  1
  O  O189  1  0.76095432  1.00341133  0.64062793  1
  O  O190  1  0.01432005  0.42075773  0.26492760  1
  O  O191  1  0.01367678  0.39227181  0.77315028  1
  O  O192  1  0.00732295  0.88348022  0.24676719  1
  O  O193  1  0.00843822  0.87746180  0.76038664  1
  O  O194  1  0.51208655  0.37782501  0.24270280  1
  O  O195  1  0.50336402  0.37497159  0.77053588  1
  O  O196  1  0.51375264  0.88683082  0.25173126  1
  O  O197  1  0.50690699  0.86680453  0.74922378  1
  O  O198  1  0.48087736  0.10037022  0.25142259  1
  O  O199  1  0.50919195  0.11452697  0.72776379  1
  O  O200  1  0.46990785  0.62893894  0.28170240  1
  O  O201  1  0.49374499  0.63218847  0.74877412  1
  O  O202  1  0.97554424  0.12736601  0.24167257  1
  O  O203  1  1.02610158  0.14179780  0.73169195  1
  O  O204  1  1.00794840  0.62611421  0.24736838  1
  O  O205  1  0.99306405  0.62195609  0.73937612  1
  O  O206  1  0.36897726  0.26174927  -0.00727075  1
  O  O207  1  0.36365653  0.23432854  0.49347123  1
  O  O208  1  0.36721493  0.75663786  0.00352370  1
  O  O209  1  0.36799865  0.75099996  0.50194414  1
  O  O210  1  0.87499863  0.26351361  0.00123526  1
  O  O211  1  0.86495125  0.26451135  0.49516014  1
  O  O212  1  0.88292429  0.76306633  0.01532615  1
  O  O213  1  0.87465278  0.75807108  0.50409208  1
  O  O214  1  0.14131506  0.22937505  0.49602495  1
  O  O215  1  0.13520808  0.23654810  1.00158959  1
  O  O216  1  0.12804018  0.74815385  0.49456601  1
  O  O217  1  0.12611577  0.74144581  0.99279726  1
  O  O218  1  0.63022596  0.24112546  0.50245147  1
  O  O219  1  0.67583520  0.26001471  1.03871241  1
  O  O220  1  0.63582151  0.74710351  0.49228058  1
  O  O221  1  0.62125727  0.74228463  0.99105535  1
  O  O222  1  0.52827970  0.23014598  0.13659325  1
  O  O223  1  0.49496724  0.23180069  0.62376575  1
  O  O224  1  0.48428491  0.75237222  0.11814385  1
  O  O225  1  0.49412963  0.73970687  0.63433391  1
  O  O226  1  1.00164059  0.23882909  0.11937620  1
  O  O227  1  1.01597765  0.24287243  0.60190328  1
  O  O228  1  0.99445008  0.74993033  0.13969661  1
  O  O229  1  0.99121066  0.74026912  0.61993661  1
  O  O230  1  -0.00121947  0.24562865  0.37925891  1
  O  O231  1  0.01018897  0.26497534  0.87680165  1
  O  O232  1  0.00651541  0.74433080  0.35857888  1
  O  O233  1  0.01024260  0.75476580  0.88008784  1
  O  O234  1  0.51101665  0.23138999  0.35904631  1
  O  O235  1  0.52342833  0.26972964  0.89828524  1
  O  O236  1  0.51653146  0.75437244  0.38426028  1
  O  O237  1  0.50647333  0.75073947  0.86716719  1
  O  O238  1  0.24420102  0.12082159  0.48889444  1
  O  O239  1  0.24219076  0.12653797  0.99571301  1
  O  O240  1  0.24021789  0.63816949  0.51047144  1
  O  O241  1  0.24068723  0.62643169  0.99057103  1
  O  O242  1  0.74750621  0.13117604  0.49928065  1
  O  O243  1  0.75083334  0.11925664  0.98068713  1
  O  O244  1  0.74556181  0.63419442  0.49103017  1
  O  O245  1  0.74238776  0.62732936  0.98657811  1
  O  O246  1  0.26142422  0.36392054  0.00833870  1
  O  O247  1  0.25307040  0.35192967  0.49991444  1
  O  O248  1  0.25371396  0.86833428  0.00381289  1
  O  O249  1  0.25679376  0.86644984  0.50508004  1
  O  O250  1  0.77035297  0.38797624  -0.00569418  1
  O  O251  1  0.75795766  0.36882737  0.49406906  1
  O  O252  1  0.76332293  0.87843230  -0.00639123  1
  O  O253  1  0.76058237  0.87132970  0.50192818  1
  O  O254  1  0.16157285  0.51079307  0.25379348  1
  O  O255  1  0.12320853  0.50535144  0.73059610  1
  O  O256  1  0.13369826  0.99359583  0.23894545  1
  O  O257  1  0.13020630  0.98673847  0.74399489  1
  O  O258  1  0.63027371  0.50242228  0.24278848  1
  O  O259  1  0.61616308  0.49114101  0.75363387  1
  O  O260  1  0.63597476  0.98785012  0.25889608  1
  O  O261  1  0.63974982  0.98797845  0.75831235  1
  O  O262  1  0.36240704  -0.00625878  0.25586531  1
  O  O263  1  0.35715907  -0.01467507  0.75613528  1
  O  O264  1  0.34280337  0.50073933  0.24967440  1
  O  O265  1  0.38021913  0.51235093  0.76268989  1
  O  O266  1  0.85574575  0.01990025  0.24310276  1
  O  O267  1  0.86269387  -0.00787919  0.76342584  1
  O  O268  1  0.86030989  0.50005680  0.25493988  1
  O  O269  1  0.88165747  0.51398660  0.75134642  1
  O  O270  1  0.11737705  0.36883050  0.40047032  1
  O  O271  1  0.11671932  0.37520451  0.89302226  1
  O  O272  1  0.12568479  0.86347724  0.36555336  1
  O  O273  1  0.11731029  0.86528958  0.86952072  1
  O  O274  1  0.62475812  0.38366673  0.36243567  1
  O  O275  1  0.61089612  0.39394926  0.88001632  1
  O  O276  1  0.63141660  0.86456148  0.37110339  1
  O  O277  1  0.62706572  0.86609305  0.86548328  1
  O  O278  1  0.36687101  0.11254838  0.13848196  1
  O  O279  1  0.37962865  0.11828830  0.62753821  1
  O  O280  1  0.36749539  0.64009131  0.12031740  1
  O  O281  1  0.38093797  0.62837119  0.63601066  1
  O  O282  1  0.87813574  0.13123338  0.12590918  1
  O  O283  1  0.89988241  0.13057049  0.62279583  1
  O  O284  1  0.87613161  0.63716848  0.11594946  1
  O  O285  1  0.88217163  0.63106799  0.62954416  1
  O  O286  1  0.25285129  0.25641293  0.11257682  1
  O  O287  1  0.25217919  0.23807163  0.60678518  1
  O  O288  1  0.25272583  0.75612794  0.11837155  1
  O  O289  1  0.25433313  0.75369591  0.61751465  1
  O  O290  1  0.72213183  0.24497253  0.10199736  1
  O  O291  1  0.74460673  0.25861262  0.61402465  1
  O  O292  1  0.77210287  0.75281289  0.14017229  1
  O  O293  1  0.76499946  0.74956571  0.60607482  1
  O  O294  1  0.25287571  0.23330557  0.37841943  1
  O  O295  1  0.24607946  0.23516504  0.88777568  1
  O  O296  1  0.23786289  0.75461340  0.38764029  1
  O  O297  1  0.23800983  0.74005884  0.88122515  1
  O  O298  1  0.74065823  0.24046589  0.38836764  1
  O  O299  1  0.76064376  0.23116120  0.86292579  1
  O  O300  1  0.75117140  0.74571060  0.38269059  1
  O  O301  1  0.73907959  0.74057550  0.86912197  1
  O  O302  1  0.00747914  0.12369890  0.00485685  1
  O  O303  1  0.00701330  0.11036270  0.50570559  1
  O  O304  1  0.00829047  0.61345015  -0.00500569  1
  O  O305  1  0.00544985  0.62175043  0.51131850  1
  O  O306  1  0.48485302  0.11207240  -0.01553356  1
  O  O307  1  0.50637021  0.11554511  0.51256789  1
  O  O308  1  0.51605090  0.62529136  -0.00577589  1
  O  O309  1  0.50950544  0.62033759  0.50930269  1
  O  O310  1  0.50833085  0.39624468  0.50974797  1
  O  O311  1  0.48999893  0.37213079  1.00326640  1
  O  O312  1  0.48749928  0.87721928  0.51015399  1
  O  O313  1  0.48694029  0.88007008  0.99400591  1
  O  O314  1  0.98425335  0.38643151  0.49297800  1
  O  O315  1  0.99511514  0.38732817  0.99734255  1
  O  O316  1  0.99552726  0.88874909  0.49971886  1
  O  O317  1  0.99663913  0.87979847  0.98697927  1
  O  O318  1  0.50470841  0.50129140  0.38368157  1
  O  O319  1  0.48632271  0.49623789  0.88497429  1
  O  O320  1  0.48628917  1.00290325  0.39114814  1
  O  O321  1  0.48292786  0.99579548  0.87337838  1
  O  O322  1  0.98843662  0.51794705  0.39137870  1
  O  O323  1  0.99864461  0.49319661  0.89010742  1
  O  O324  1  0.99889528  1.00431304  0.38398535  1
  O  O325  1  0.98854272  0.99187973  0.87079400  1
  O  O326  1  0.00735149  0.01281352  0.12405530  1
  O  O327  1  0.01113062  0.00331970  0.63032285  1
  O  O328  1  0.00899237  0.49730759  0.11300509  1
  O  O329  1  0.00664349  0.50692114  0.61394734  1
  O  O330  1  0.49232633  -0.00025334  0.10353988  1
  O  O331  1  0.49204754  0.00685861  0.61314649  1
  O  O332  1  0.50814861  0.51230232  0.13790383  1
  O  O333  1  0.49792037  0.51399238  0.62843875  1
  O  O334  1  0.25407980  0.35448863  0.23888410  1
  O  O335  1  0.23359818  0.33278183  0.74814329  1
  O  O336  1  0.23681948  0.87952312  0.24521719  1
  O  O337  1  0.23736690  0.87808686  0.74495898  1
  O  O338  1  0.73844576  0.39717032  0.25428086  1
  O  O339  1  0.72978417  0.37595184  0.75779476  1
  O  O340  1  0.75211289  0.89322537  0.25119951  1
  O  O341  1  0.74488703  0.88421205  0.74753753  1
  O  O342  1  0.25709785  0.11026259  0.25379144  1
  O  O343  1  0.23423500  0.10884120  0.75924310  1
  O  O344  1  0.25628324  0.64094764  0.27293339  1
  O  O345  1  0.26157681  0.63272394  0.76103838  1
  O  O346  1  0.74295254  0.11489547  0.25751599  1
  O  O347  1  0.74189509  0.11239846  0.75610540  1
  O  O348  1  0.73918951  0.61724114  0.26202728  1
  O  O349  1  0.75634259  0.62125133  0.76383441  1
  O  O350  1  0.36382992  0.10770978  0.36603836  1
  O  O351  1  0.35256805  0.10323953  0.88267676  1
  O  O352  1  0.41464881  0.63048595  0.33527899  1
  O  O353  1  0.36764257  0.61921844  0.87388095  1
  O  O354  1  0.86311705  0.13519853  0.35980243  1
  O  O355  1  0.88237389  0.11213217  0.87472822  1
  O  O356  1  0.86415561  0.61800260  0.38023008  1
  O  O357  1  0.86342351  0.63193035  0.86932977  1
  O  O358  1  0.13998688  0.37223328  0.12447298  1
  O  O359  1  0.12817773  0.38870872  0.61196786  1
  O  O360  1  0.12448145  0.88207820  0.13003584  1
  O  O361  1  0.12555231  0.87798284  0.63155779  1
  O  O362  1  0.62357186  0.40062291  0.13316045  1
  O  O363  1  0.62258490  0.37914231  0.64019423  1
  O  O364  1  0.62579480  0.86448877  0.14296874  1
  O  O365  1  0.63093767  0.86660394  0.63744732  1
  O  O366  1  0.12428742  0.23722837  0.24893690  1
  O  O367  1  0.16546415  0.27839242  0.74889650  1
  O  O368  1  0.11156644  0.75637194  0.25346463  1
  O  O369  1  0.13031117  0.75682996  0.75873255  1
  O  O370  1  0.63595835  0.27694296  0.25052482  1
  O  O371  1  0.61266491  0.26998060  0.75114644  1
  O  O372  1  0.63004495  0.76262435  0.26491856  1
  O  O373  1  0.61321401  0.75664541  0.76091050  1
  O  O374  1  0.37824920  0.22635744  0.24918079  1
  O  O375  1  0.40540737  0.22689446  0.80548976  1
  O  O376  1  0.37307637  0.76166270  0.23285255  1
  O  O377  1  0.38298734  0.74253050  0.74877726  1
  O  O378  1  0.84444351  0.23609225  0.23662093  1
  O  O379  1  0.88325468  0.31390505  0.72311016  1
  O  O380  1  0.89111271  0.74917939  0.24209810  1
  O  O381  1  0.86857743  0.73967309  0.73664839  1
  O  O382  1  0.39659663  0.51267570  0.49810560  1
  O  O383  1  0.36813704  0.48292413  0.99637275  1
  O  O384  1  0.37781043  0.98823849  0.49374162  1
  O  O385  1  0.37491232  0.98727691  0.98927302  1
  O  O386  1  0.87857134  0.49577802  0.48850109  1
  O  O387  1  0.88873979  0.49692726  1.00236182  1
  O  O388  1  0.88937591  0.99424281  0.50362550  1
  O  O389  1  0.87528076  0.98988947  0.98476947  1
  O  O390  1  0.12492686  0.00773895  0.00964752  1
  O  O391  1  0.11458266  0.00005474  0.50491229  1
  O  O392  1  0.11627852  0.50835068  0.00272207  1
  O  O393  1  0.11611844  0.51105636  0.50655338  1
  O  O394  1  0.60290112  -0.00364416  -0.01448108  1
  O  O395  1  0.61440790  0.00326550  0.49753661  1
  O  O396  1  0.62834497  0.51626418  0.01849822  1
  O  O397  1  0.61786928  0.51768722  0.49176923  1
  O  O398  1  0.37231799  0.37610325  0.11704952  1
  O  O399  1  0.36672266  0.38368629  0.61716150  1
  O  O400  1  0.36619032  0.86935512  0.11335521  1
  O  O401  1  0.36771204  0.86679543  0.61623081  1
  O  O402  1  0.87825331  0.37079403  0.11249389  1
  O  O403  1  0.87054327  0.39095400  0.59925595  1
  O  O404  1  0.88030651  0.88332214  0.10794435  1
  O  O405  1  0.87602182  0.86568613  0.61779085  1
  O  O406  1  0.13543028  0.11214250  0.38102751  1
  O  O407  1  0.13032340  0.12017680  0.88432518  1
  O  O408  1  0.11941737  0.63802101  0.39127759  1
  O  O409  1  0.12998358  0.62847480  0.87806023  1
  O  O410  1  0.63262590  0.12181862  0.39149394  1
  O  O411  1  0.63164489  0.12952973  0.87163405  1
  O  O412  1  0.63389768  0.64144504  0.38324777  1
  O  O413  1  0.63441302  0.62918714  0.88419634  1
