# generated using pymatgen
data_V79Zn79O256
_symmetry_space_group_name_H-M   'P 1'
_cell_length_a   16.87348099
_cell_length_b   16.86405182
_cell_length_c   16.85873344
_cell_angle_alpha   90.09596922
_cell_angle_beta   90.11805957
_cell_angle_gamma   90.04002943
_symmetry_Int_Tables_number   1
_chemical_formula_structural   V79Zn79O256
_chemical_formula_sum   'V79 Zn79 O256'
_cell_volume   4797.22314792
_cell_formula_units_Z   1
loop_
 _symmetry_equiv_pos_site_id
 _symmetry_equiv_pos_as_xyz
  1  'x, y, z'
loop_
 _atom_site_type_symbol
 _atom_site_label
 _atom_site_symmetry_multiplicity
 _atom_site_fract_x
 _atom_site_fract_y
 _atom_site_fract_z
 _atom_site_occupancy
  V  V0  1  0.50647188  0.25483647  0.25653249  1
  V  V1  1  0.87060515  0.36534152  0.50303987  1
  V  V2  1  0.36973730  0.87631113  0.00135644  1
  V  V3  1  0.86713166  0.01318501  0.36623975  1
  V  V4  1  -0.00351624  0.24916945  0.74209172  1
  V  V5  1  0.62847871  0.12311511  0.00383728  1
  V  V6  1  0.12453318  0.88346605  0.24205032  1
  V  V7  1  0.13416737  0.38699434  0.73822071  1
  V  V8  1  0.25250657  0.26272954  0.00221655  1
  V  V9  1  0.49890673  0.62368428  0.10631279  1
  V  V10  1  0.12487909  0.25189720  0.87232136  1
  V  V11  1  0.35890836  -0.00162091  0.37425504  1
  V  V12  1  0.00376609  0.24048166  0.24844304  1
  V  V13  1  0.38335078  0.63009725  0.25227795  1
  V  V14  1  0.37235314  0.26476658  0.61203252  1
  V  V15  1  0.87181963  0.75102789  0.62451822  1
  V  V16  1  0.87696728  -0.00146618  0.87313867  1
  V  V17  1  0.24701494  0.88234780  0.62344747  1
  V  V18  1  0.51596139  0.61214001  0.62482515  1
  V  V19  1  0.24752724  0.61972260  0.87057021  1
  V  V20  1  0.12801656  0.50344206  0.10460552  1
  V  V21  1  -0.00866792  0.73972376  0.24314303  1
  V  V22  1  0.63120687  0.39474285  0.75323439  1
  V  V23  1  0.87517576  0.12586414  0.73761019  1
  V  V24  1  0.87102868  0.61685722  0.74193463  1
  V  V25  1  0.62682514  0.86865292  0.75086045  1
  V  V26  1  0.50120625  0.12405624  0.12786009  1
  V  V27  1  0.86660430  0.87508936  0.50332620  1
  V  V28  1  -0.00016817  0.00828565  0.01177389  1
  V  V29  1  0.85697774  0.50263748  0.36872454  1
  V  V30  1  0.36229080  0.12144116  0.25420119  1
  V  V31  1  0.37778267  0.86994140  0.50149376  1
  V  V32  1  0.74551996  0.63261424  0.88730627  1
  V  V33  1  0.75094363  -0.00720405  0.74416793  1
  V  V34  1  0.60122824  0.74767225  0.37373626  1
  V  V35  1  -0.00274577  0.61774775  0.10778385  1
  V  V36  1  0.75405893  0.38583528  0.12584335  1
  V  V37  1  -0.00181885  0.38177063  0.87551783  1
  V  V38  1  0.50097483  -0.00665653  0.49078618  1
  V  V39  1  0.74766229  0.74213154  0.48788436  1
  V  V40  1  0.25234808  0.74804546  0.50669772  1
  V  V41  1  0.37144547  0.61897612  0.74041274  1
  V  V42  1  0.00408369  0.87254010  0.87284195  1
  V  V43  1  0.01243666  0.00170552  0.50500432  1
  V  V44  1  0.13948076  0.24176603  0.38545132  1
  V  V45  1  0.88610051  0.23961951  0.12690402  1
  V  V46  1  -0.00453001  0.87440917  0.37431879  1
  V  V47  1  0.37133760  0.75216218  0.13199968  1
  V  V48  1  0.87240056  0.86138713  0.00555784  1
  V  V49  1  0.63160690  0.13125429  0.48874821  1
  V  V50  1  0.39148883  0.49675281  0.38094484  1
  V  V51  1  0.60705877  0.87898683  0.25714610  1
  V  V52  1  0.62535847  0.24921098  0.87875568  1
  V  V53  1  0.86373134  0.49699967  0.87118776  1
  V  V54  1  0.49701296  0.37764412  0.88955133  1
  V  V55  1  0.37766244  0.49690026  0.88718620  1
  V  V56  1  0.02057727  0.11921350  0.62548252  1
  V  V57  1  0.24921339  0.61763064  0.37196156  1
  V  V58  1  0.50020212  0.87250495  0.87540704  1
  V  V59  1  0.50392849  0.25144998  0.75311081  1
  V  V60  1  0.12552373  0.88066031  0.74631823  1
  V  V61  1  -0.00190046  0.50174988  0.50701367  1
  V  V62  1  0.12391246  0.74536535  0.87779254  1
  V  V63  1  0.50052751  0.12279309  0.62384029  1
  V  V64  1  0.37495345  0.12497419  0.75004515  1
  V  V65  1  0.88072856  0.38442996  0.00115174  1
  V  V66  1  0.12082896  0.12723248  0.01198675  1
  V  V67  1  0.13014336  0.38289375  0.24677451  1
  V  V68  1  0.12307736  0.74605637  0.37268644  1
  V  V69  1  0.24704539  0.74442929  0.00057326  1
  V  V70  1  0.75461684  0.24911387  0.00171795  1
  V  V71  1  0.63074566  0.38553014  0.24924950  1
  V  V72  1  0.49496290  0.74922962  0.74311705  1
  V  V73  1  0.11821916  0.62015633  0.51232964  1
  V  V74  1  0.62723012  -0.00687305  0.62328325  1
  V  V75  1  0.50367166  -0.00014147  0.00212499  1
  V  V76  1  0.25068904  0.12513511  0.87539109  1
  V  V77  1  0.36989509  0.26325810  0.12401120  1
  V  V78  1  0.75131213  0.12398853  0.87506587  1
  Zn  Zn79  1  0.85008030  0.62502100  0.25306691  1
  Zn  Zn80  1  0.74749639  0.87447100  0.12250714  1
  Zn  Zn81  1  0.74774253  0.37314422  0.63373461  1
  Zn  Zn82  1  0.24381897  0.00641248  0.74309948  1
  Zn  Zn83  1  0.00273635  0.74285044  0.73741484  1
  Zn  Zn84  1  0.37406941  -0.00083303  0.87196778  1
  Zn  Zn85  1  0.49696384  0.36751221  0.40051803  1
  Zn  Zn86  1  0.64706399  0.00918990  0.15159031  1
  Zn  Zn87  1  0.25564811  0.49425231  0.24113040  1
  Zn  Zn88  1  0.25256268  0.90675350  0.14510179  1
  Zn  Zn89  1  0.62571618  0.51797492  0.11438138  1
  Zn  Zn90  1  0.62933853  0.60318982  0.49597366  1
  Zn  Zn91  1  0.00090420  0.37815723  0.37205894  1
  Zn  Zn92  1  0.77202717  0.23289083  0.52519625  1
  Zn  Zn93  1  0.62923765  0.74696381  0.90306010  1
  Zn  Zn94  1  0.18775776  0.19210891  0.19148159  1
  Zn  Zn95  1  0.19236039  0.20058360  0.68341725  1
  Zn  Zn96  1  0.18376158  0.68465903  0.18540875  1
  Zn  Zn97  1  0.18770394  0.69232831  0.68980335  1
  Zn  Zn98  1  0.69193809  0.19893051  0.18679755  1
  Zn  Zn99  1  0.68790414  0.18657535  0.68554686  1
  Zn  Zn100  1  0.68084001  0.71904227  0.18851929  1
  Zn  Zn101  1  0.69734341  0.68732854  0.68931639  1
  Zn  Zn102  1  0.31410823  0.31543597  0.31414214  1
  Zn  Zn103  1  0.31414277  0.31499811  0.80742990  1
  Zn  Zn104  1  0.30905425  0.81319889  0.31725156  1
  Zn  Zn105  1  0.31042549  0.80984317  0.81052974  1
  Zn  Zn106  1  0.81884216  0.31989696  0.30890117  1
  Zn  Zn107  1  0.81064164  0.30975623  0.80873751  1
  Zn  Zn108  1  0.80527940  0.81875191  0.30746994  1
  Zn  Zn109  1  0.81385196  0.80719273  0.81430495  1
  Zn  Zn110  1  0.18404516  0.43594383  0.43409798  1
  Zn  Zn111  1  0.18858385  0.43927234  0.92642617  1
  Zn  Zn112  1  0.18765544  0.93458431  0.43314506  1
  Zn  Zn113  1  0.19991828  0.95410634  0.96826477  1
  Zn  Zn114  1  0.66967098  0.41392880  0.45311467  1
  Zn  Zn115  1  0.68752380  0.44056960  0.94360671  1
  Zn  Zn116  1  0.68784565  0.93679335  0.43042502  1
  Zn  Zn117  1  0.68858580  0.93608250  0.93758244  1
  Zn  Zn118  1  0.31353346  0.07208864  0.06337092  1
  Zn  Zn119  1  0.30830321  0.06618688  0.55941920  1
  Zn  Zn120  1  0.31200358  0.56365802  0.06330954  1
  Zn  Zn121  1  0.31644255  0.56022668  0.55741570  1
  Zn  Zn122  1  0.81490055  0.05726373  0.06697125  1
  Zn  Zn123  1  0.81493000  0.05503598  0.55557862  1
  Zn  Zn124  1  0.78678928  0.60362493  0.09407620  1
  Zn  Zn125  1  0.81294595  0.56030218  0.55635922  1
  Zn  Zn126  1  0.43976287  0.44516595  0.19128802  1
  Zn  Zn127  1  0.44168641  0.43944485  0.69641693  1
  Zn  Zn128  1  0.43731272  0.93806685  0.19023974  1
  Zn  Zn129  1  0.43513424  0.93587386  0.68321668  1
  Zn  Zn130  1  0.94311077  0.43938722  0.18810109  1
  Zn  Zn131  1  0.94087878  0.43688807  0.68532207  1
  Zn  Zn132  1  0.93420483  0.93478165  0.18724292  1
  Zn  Zn133  1  0.93984720  0.93390155  0.68457286  1
  Zn  Zn134  1  0.06076178  0.06400602  0.31575673  1
  Zn  Zn135  1  0.06293163  0.06326735  0.81605054  1
  Zn  Zn136  1  0.05630820  0.55805544  0.31875927  1
  Zn  Zn137  1  0.05704864  0.56286108  0.80771487  1
  Zn  Zn138  1  0.55792298  0.06402391  0.31429727  1
  Zn  Zn139  1  0.56419912  0.06073859  0.81360805  1
  Zn  Zn140  1  0.57258899  0.56785702  0.30486982  1
  Zn  Zn141  1  0.55905689  0.56753841  0.82380892  1
  Zn  Zn142  1  0.43230106  0.18232052  0.43847396  1
  Zn  Zn143  1  0.43729630  0.19046461  0.94124509  1
  Zn  Zn144  1  0.43769110  0.67727672  0.44702840  1
  Zn  Zn145  1  0.43202509  0.69100930  0.93208535  1
  Zn  Zn146  1  0.95284195  0.18594807  0.43505551  1
  Zn  Zn147  1  0.93711921  0.19015816  0.93425004  1
  Zn  Zn148  1  0.93157898  0.68312189  0.43342454  1
  Zn  Zn149  1  0.93491735  0.68190895  0.93030740  1
  Zn  Zn150  1  0.06608980  0.31797687  0.06297849  1
  Zn  Zn151  1  0.05988472  0.31294403  0.56119666  1
  Zn  Zn152  1  0.05807622  0.81158498  0.06158507  1
  Zn  Zn153  1  0.05917193  0.80998582  0.56273401  1
  Zn  Zn154  1  0.56508812  0.31611541  0.06629682  1
  Zn  Zn155  1  0.56145738  0.31539643  0.56853035  1
  Zn  Zn156  1  0.55185108  0.81914745  0.07951282  1
  Zn  Zn157  1  0.56321611  0.80654543  0.56277339  1
  O  O158  1  0.13005344  0.13160841  0.11079006  1
  O  O159  1  0.11990050  0.12256143  0.63501971  1
  O  O160  1  0.11324163  0.61286932  0.12767998  1
  O  O161  1  0.12918948  0.62817426  0.61149688  1
  O  O162  1  0.61963246  0.12510507  0.12517017  1
  O  O163  1  0.61570251  0.11112169  0.62392367  1
  O  O164  1  0.59827725  0.63514685  0.13342383  1
  O  O165  1  0.61723471  0.62681950  0.63315288  1
  O  O166  1  0.38266951  0.39069003  0.36857658  1
  O  O167  1  0.38073988  0.38917157  0.86653563  1
  O  O168  1  0.36753441  0.88822373  0.38455430  1
  O  O169  1  0.38495799  0.87434149  0.88065589  1
  O  O170  1  0.87836622  0.38222012  0.38551892  1
  O  O171  1  0.87919126  0.37738580  0.87868241  1
  O  O172  1  0.88395312  0.87604906  0.38035759  1
  O  O173  1  0.88449181  0.88100947  0.87839798  1
  O  O174  1  0.25953419  0.00437715  0.37741897  1
  O  O175  1  0.25144064  0.01626094  0.87758501  1
  O  O176  1  0.25777125  0.50875805  0.37611985  1
  O  O177  1  0.26047680  0.51056800  0.87329910  1
  O  O178  1  0.76726834  -0.00215271  0.37718866  1
  O  O179  1  0.75888562  0.00364070  0.86628517  1
  O  O180  1  0.75956477  0.48932097  0.38555480  1
  O  O181  1  0.75914999  0.50597968  0.87598595  1
  O  O182  1  0.23289187  0.51110651  0.12662285  1
  O  O183  1  0.25027698  0.46351545  0.58715190  1
  O  O184  1  0.24174017  0.98888747  0.07423689  1
  O  O185  1  0.25046147  0.98795662  0.62301070  1
  O  O186  1  0.75302121  0.48626629  0.11678717  1
  O  O187  1  0.72776536  0.49119619  0.59527937  1
  O  O188  1  0.75513911  0.99115800  0.13028402  1
  O  O189  1  0.74135085  1.00271113  0.63496912  1
  O  O190  1  0.01441252  0.36866918  0.24953000  1
  O  O191  1  0.00163941  0.36541316  0.75577340  1
  O  O192  1  0.00645795  0.86097936  0.25592592  1
  O  O193  1  0.00624151  0.87129756  0.75732465  1
  O  O194  1  0.51077650  0.36341106  0.23992448  1
  O  O195  1  0.50981802  0.36652439  0.76408080  1
  O  O196  1  0.50568954  0.87670123  0.25659180  1
  O  O197  1  0.50383819  0.87042010  0.75614196  1
  O  O198  1  0.49493274  0.13521196  0.24419518  1
  O  O199  1  0.49510589  0.12889921  0.74556196  1
  O  O200  1  0.48421201  0.62910548  0.25040285  1
  O  O201  1  0.49180955  0.63096004  0.74554743  1
  O  O202  1  1.00805950  0.14120222  0.24482503  1
  O  O203  1  0.99465414  0.12771748  0.74410381  1
  O  O204  1  1.00209512  0.63740291  0.25438308  1
  O  O205  1  0.97830757  0.63015393  0.76080277  1
  O  O206  1  0.36833792  0.24444934  0.01560770  1
  O  O207  1  0.39435475  0.25784125  0.51262565  1
  O  O208  1  0.36746634  0.75856413  0.00699676  1
  O  O209  1  0.36272460  0.75761717  0.49069519  1
  O  O210  1  0.87553237  0.25714500  0.00868565  1
  O  O211  1  0.88970220  0.26231378  0.49741576  1
  O  O212  1  0.88061787  0.76289591  -0.00783334  1
  O  O213  1  0.86667132  0.75405291  0.50158140  1
  O  O214  1  0.11800122  0.25574284  0.48388083  1
  O  O215  1  0.12944507  0.24697704  0.99126063  1
  O  O216  1  0.12808703  0.73985392  0.49197560  1
  O  O217  1  0.13354592  0.75723089  0.98866992  1
  O  O218  1  0.62214851  0.22941914  0.50966265  1
  O  O219  1  0.63312182  0.24284051  0.99844553  1
  O  O220  1  0.63837177  0.75771400  0.49115833  1
  O  O221  1  0.63804256  0.76847165  1.02151561  1
  O  O222  1  0.48925639  0.24067124  0.13048600  1
  O  O223  1  0.49726554  0.23986200  0.63579344  1
  O  O224  1  0.47832996  0.74249368  0.12350897  1
  O  O225  1  0.50142438  0.74112391  0.63768077  1
  O  O226  1  0.99389249  0.25476664  0.13002223  1
  O  O227  1  1.00432891  0.23711036  0.63584980  1
  O  O228  1  1.00789483  0.73530970  0.13598222  1
  O  O229  1  0.98176791  0.74858595  0.62012784  1
  O  O230  1  0.00795809  0.25421592  0.35863641  1
  O  O231  1  0.00802325  0.25501362  0.86480325  1
  O  O232  1  0.00539643  0.75492423  0.37010392  1
  O  O233  1  0.00785685  0.75864624  0.87689063  1
  O  O234  1  0.48885505  0.25353968  0.35905827  1
  O  O235  1  0.50298664  0.25446511  0.87011134  1
  O  O236  1  0.50410252  0.75613564  0.39387097  1
  O  O237  1  0.50829379  0.75836747  0.87028121  1
  O  O238  1  0.26459253  0.12762442  0.48043777  1
  O  O239  1  0.24200348  0.13878345  0.99057868  1
  O  O240  1  0.24001056  0.62881144  0.49441077  1
  O  O241  1  0.25662840  0.63590373  0.98543496  1
  O  O242  1  0.73820937  0.12333763  0.50423856  1
  O  O243  1  0.74837111  0.12804739  0.99549533  1
  O  O244  1  0.74561498  0.63893806  0.50232309  1
  O  O245  1  0.75877769  0.62082498  0.98642222  1
  O  O246  1  0.24614541  0.36177583  -0.00917781  1
  O  O247  1  0.24854325  0.40767075  0.53315954  1
  O  O248  1  0.26287590  0.85851003  -0.01735322  1
  O  O249  1  0.25342514  0.86724012  0.50418738  1
  O  O250  1  0.76226841  0.36657937  0.00516548  1
  O  O251  1  0.76407631  0.35256003  0.49226040  1
  O  O252  1  0.77092265  0.88304816  -0.00534693  1
  O  O253  1  0.76162116  0.86640503  0.49436906  1
  O  O254  1  0.12624505  0.48919195  0.25452162  1
  O  O255  1  0.12032876  0.48661821  0.75337322  1
  O  O256  1  0.11254487  0.98211205  0.25525244  1
  O  O257  1  0.12673667  0.98613642  0.75770711  1
  O  O258  1  0.61815120  0.48845546  0.23308376  1
  O  O259  1  0.62095718  0.49310616  0.75963895  1
  O  O260  1  0.62527906  0.98524615  0.26650475  1
  O  O261  1  0.63091370  0.99156958  0.74484300  1
  O  O262  1  0.37664024  0.00837812  0.26161798  1
  O  O263  1  0.37337205  0.01304818  0.75007314  1
  O  O264  1  0.37027675  0.51181011  0.25910279  1
  O  O265  1  0.37682667  0.51534724  0.75870872  1
  O  O266  1  0.88687425  -0.00403011  0.26748817  1
  O  O267  1  0.86967633  0.00240594  0.75414750  1
  O  O268  1  0.87440070  0.49418462  0.26495985  1
  O  O269  1  0.87555737  0.50823159  0.75404281  1
  O  O270  1  0.12424516  0.36670040  0.36354503  1
  O  O271  1  0.11632157  0.36779707  0.86691322  1
  O  O272  1  0.11524778  0.86461460  0.36948673  1
  O  O273  1  0.11717406  0.86586183  0.86792172  1
  O  O274  1  0.62840385  0.37744654  0.34948697  1
  O  O275  1  0.61777685  0.36806002  0.86958542  1
  O  O276  1  0.62963656  0.86086227  0.36661079  1
  O  O277  1  0.61669459  0.87255057  0.86901093  1
  O  O278  1  0.38293830  0.12807388  0.13694217  1
  O  O279  1  0.38593609  0.12901031  0.63131094  1
  O  O280  1  0.37692368  0.63330487  0.13243352  1
  O  O281  1  0.37886645  0.61957712  0.63618725  1
  O  O282  1  0.87692673  0.14093606  0.12134941  1
  O  O283  1  0.88206977  0.11567987  0.63523817  1
  O  O284  1  0.89815804  0.61376538  0.13445919  1
  O  O285  1  0.86714784  0.62681635  0.63691154  1
  O  O286  1  0.26258579  0.24815644  0.11921664  1
  O  O287  1  0.27248597  0.24791639  0.62198477  1
  O  O288  1  0.25475431  0.74604797  0.11361276  1
  O  O289  1  0.24729365  0.75833743  0.61241111  1
  O  O290  1  0.76816875  0.25755567  0.12174206  1
  O  O291  1  0.75536012  0.25685664  0.63451607  1
  O  O292  1  0.70486372  0.76018154  0.07283833  1
  O  O293  1  0.76270342  0.74962541  0.61291648  1
  O  O294  1  0.23988928  0.25538774  0.37403009  1
  O  O295  1  0.24430674  0.24432897  0.87882559  1
  O  O296  1  0.24026808  0.74168688  0.38465531  1
  O  O297  1  0.24357439  0.74008069  0.87827078  1
  O  O298  1  0.75705479  0.22004638  0.34165865  1
  O  O299  1  0.74670051  0.24260444  0.88150106  1
  O  O300  1  0.75242752  0.74746424  0.38616754  1
  O  O301  1  0.74901538  0.73868853  0.87870978  1
  O  O302  1  0.00395191  0.11705674  -0.00524584  1
  O  O303  1  0.00107954  0.10985184  0.51024672  1
  O  O304  1  -0.00196645  0.62689649  0.00842691  1
  O  O305  1  0.01054875  0.61955409  0.49552724  1
  O  O306  1  0.50593116  0.11989398  0.00779788  1
  O  O307  1  0.50726020  0.11429359  0.50782441  1
  O  O308  1  0.49627243  0.63234351  0.00570507  1
  O  O309  1  0.51012997  0.62663337  0.51945035  1
  O  O310  1  0.55816180  0.39086120  0.48882435  1
  O  O311  1  0.49550991  0.36050803  0.98832060  1
  O  O312  1  0.49003252  0.88233702  0.51026384  1
  O  O313  1  0.49074956  0.87952786  0.99535066  1
  O  O314  1  0.99181751  0.38737590  0.49944781  1
  O  O315  1  0.99348008  0.36577407  0.98528290  1
  O  O316  1  0.99304615  0.88031321  0.49233876  1
  O  O317  1  0.99390846  0.88655621  0.99218938  1
  O  O318  1  0.49272928  0.50327313  0.36574051  1
  O  O319  1  0.48628760  0.49409335  0.87587683  1
  O  O320  1  0.48999934  1.00250065  0.38759587  1
  O  O321  1  0.50004498  0.99004689  0.88205880  1
  O  O322  1  0.98949465  0.49754970  0.38718213  1
  O  O323  1  0.98778795  0.48692716  0.86841113  1
  O  O324  1  0.99529232  0.99148092  0.38657618  1
  O  O325  1  0.99052076  0.99177045  0.87458076  1
  O  O326  1  -0.00480452  -0.00027145  0.11011772  1
  O  O327  1  0.00034566  0.00227212  0.61326596  1
  O  O328  1  0.01362594  0.50877324  0.12461716  1
  O  O329  1  -0.00698424  0.50426750  0.60736200  1
  O  O330  1  0.49732300  0.01247210  0.11950165  1
  O  O331  1  0.50586603  0.00565390  0.61794440  1
  O  O332  1  0.48854788  0.52139693  0.12325424  1
  O  O333  1  0.50310520  0.51342105  0.63455885  1
  O  O334  1  0.23576402  0.37476491  0.24837202  1
  O  O335  1  0.23360026  0.37067587  0.75181882  1
  O  O336  1  0.23225825  0.87333390  0.25265811  1
  O  O337  1  0.24502839  0.87565620  0.74138024  1
  O  O338  1  0.74009220  0.36926563  0.24039546  1
  O  O339  1  0.73624178  0.37917399  0.75854119  1
  O  O340  1  0.72555814  0.83465901  0.22993249  1
  O  O341  1  0.74146365  0.88410120  0.75905061  1
  O  O342  1  0.26376329  0.12379214  0.24454500  1
  O  O343  1  0.25769108  0.12877743  0.75734192  1
  O  O344  1  0.25416648  0.62545848  0.26172395  1
  O  O345  1  0.26393262  0.63328386  0.75487173  1
  O  O346  1  0.75204041  0.16464373  0.28737555  1
  O  O347  1  0.75682873  0.11346099  0.75471333  1
  O  O348  1  0.75254669  0.63495455  0.19794896  1
  O  O349  1  0.76469869  0.62822308  0.76360783  1
  O  O350  1  0.37836640  0.11510884  0.36216154  1
  O  O351  1  0.36857602  0.12826079  0.86789339  1
  O  O352  1  0.36833482  0.62080429  0.37029454  1
  O  O353  1  0.36926548  0.61555167  0.86711157  1
  O  O354  1  0.88393064  0.11192459  0.38157639  1
  O  O355  1  0.87306110  0.11521062  0.86467400  1
  O  O356  1  0.86909256  0.61095736  0.37034220  1
  O  O357  1  0.86531101  0.61526223  0.86806250  1
  O  O358  1  0.12119822  0.39208616  0.13326779  1
  O  O359  1  0.11682685  0.37119474  0.63980614  1
  O  O360  1  0.12151034  0.86999816  0.13929395  1
  O  O361  1  0.13202132  0.86625082  0.63484626  1
  O  O362  1  0.64044728  0.36358707  0.13459816  1
  O  O363  1  0.62077854  0.37073351  0.65303411  1
  O  O364  1  0.61373839  0.88917638  0.14452144  1
  O  O365  1  0.61747746  0.88562479  0.63506337  1
  O  O366  1  0.11787139  0.26205637  0.24828167  1
  O  O367  1  0.11715582  0.25516756  0.75788521  1
  O  O368  1  0.11717205  0.75368054  0.25978131  1
  O  O369  1  0.12249481  0.75902653  0.75940230  1
  O  O370  1  0.60947089  0.25286749  0.24767245  1
  O  O371  1  0.61387653  0.24295116  0.76054824  1
  O  O372  1  0.60205350  0.75380271  0.26851475  1
  O  O373  1  0.61980258  0.76223787  0.74841156  1
  O  O374  1  0.37992976  0.24016840  0.24115517  1
  O  O375  1  0.38660718  0.24116685  0.74670921  1
  O  O376  1  0.36159716  0.74458376  0.24174722  1
  O  O377  1  0.38647922  0.73684591  0.75993577  1
  O  O378  1  0.89147012  0.25848826  0.23658726  1
  O  O379  1  0.88608039  0.23748226  0.75815939  1
  O  O380  1  0.89018533  0.74941869  0.25527253  1
  O  O381  1  0.87469579  0.74264958  0.74088161  1
  O  O382  1  0.38318028  0.50964839  0.48090606  1
  O  O383  1  0.37019376  0.50081323  0.98648945  1
  O  O384  1  0.38075859  0.99277741  0.49071082  1
  O  O385  1  0.38912413  0.99383614  0.99666664  1
  O  O386  1  0.88274324  0.49478183  0.48941796  1
  O  O387  1  0.87709041  0.48589177  0.98750756  1
  O  O388  1  0.88440840  0.98961067  0.49148110  1
  O  O389  1  0.88690297  0.99895963  0.98872912  1
  O  O390  1  0.10428221  0.01205656  -0.01332120  1
  O  O391  1  0.11086266  -0.00896939  0.49616859  1
  O  O392  1  0.12710053  0.49716902  0.00516619  1
  O  O393  1  0.11308161  0.51148547  0.49465156  1
  O  O394  1  0.61406629  0.00389949  -0.00052357  1
  O  O395  1  0.62021684  0.00220757  0.50573655  1
  O  O396  1  0.61262991  0.48373036  0.00964765  1
  O  O397  1  0.66495768  0.49641019  0.53795169  1
  O  O398  1  0.37873147  0.36132533  0.13394898  1
  O  O399  1  0.38696016  0.36215465  0.63486042  1
  O  O400  1  0.36929169  0.87141598  0.11927761  1
  O  O401  1  0.36447666  0.87701489  0.61174513  1
  O  O402  1  0.87422954  0.37164689  0.11701347  1
  O  O403  1  0.86820617  0.38756911  0.60733636  1
  O  O404  1  0.87932163  0.87046696  0.10920635  1
  O  O405  1  0.87705647  0.86865986  0.61320926  1
  O  O406  1  0.12415600  0.14255790  0.36673594  1
  O  O407  1  0.13102835  0.13653691  0.87847724  1
  O  O408  1  0.13148103  0.63016239  0.38147221  1
  O  O409  1  0.13320326  0.63440414  0.86321046  1
  O  O410  1  0.61924641  0.12402274  0.38980276  1
  O  O411  1  0.63065153  0.12774750  0.88290444  1
  O  O412  1  0.61731751  0.63989536  0.38230548  1
  O  O413  1  0.63967661  0.62875743  0.87500725  1
