# generated using pymatgen
data_V79Zn79O256
_symmetry_space_group_name_H-M   'P 1'
_cell_length_a   16.90018327
_cell_length_b   16.90200197
_cell_length_c   16.90332588
_cell_angle_alpha   90.06372221
_cell_angle_beta   90.04512007
_cell_angle_gamma   90.10302778
_symmetry_Int_Tables_number   1
_chemical_formula_structural   V79Zn79O256
_chemical_formula_sum   'V79 Zn79 O256'
_cell_volume   4828.37086362
_cell_formula_units_Z   1
loop_
 _symmetry_equiv_pos_site_id
 _symmetry_equiv_pos_as_xyz
  1  'x, y, z'
loop_
 _atom_site_type_symbol
 _atom_site_label
 _atom_site_symmetry_multiplicity
 _atom_site_fract_x
 _atom_site_fract_y
 _atom_site_fract_z
 _atom_site_occupancy
  V  V0  1  0.49847465  0.62543922  0.62735009  1
  V  V1  1  0.36813918  0.25294548  0.61498127  1
  V  V2  1  0.13426236  0.12884563  0.49811596  1
  V  V3  1  0.50508903  0.12372603  0.12319367  1
  V  V4  1  0.00015190  0.36066345  0.37485099  1
  V  V5  1  0.86425544  0.74884203  0.62172670  1
  V  V6  1  0.75286521  0.00221064  0.24546451  1
  V  V7  1  0.49467616  0.74904228  0.75991968  1
  V  V8  1  0.86929985  0.50389296  0.85817738  1
  V  V9  1  0.62403187  0.37918362  0.76122742  1
  V  V10  1  0.62370610  0.12950660  0.49240965  1
  V  V11  1  0.88496658  0.23988878  0.14139543  1
  V  V12  1  0.35557406  0.61786387  0.75083026  1
  V  V13  1  0.50298106  0.37305700  0.37863908  1
  V  V14  1  0.36593309  0.87085548  -0.00996188  1
  V  V15  1  0.74785343  0.87590563  0.61524497  1
  V  V16  1  0.23247685  0.12561926  0.88189773  1
  V  V17  1  0.50026725  0.62752838  0.14421466  1
  V  V18  1  0.49306994  -0.00051812  -0.00574460  1
  V  V19  1  0.63168368  0.63333705  0.50681540  1
  V  V20  1  0.62583948  0.37723481  0.25176719  1
  V  V21  1  0.25232705  0.37710477  0.60883269  1
  V  V22  1  0.25255977  0.50236844  0.25120260  1
  V  V23  1  0.74799735  0.24853466  0.00185864  1
  V  V24  1  0.87469645  0.37558867  0.50380365  1
  V  V25  1  0.36801740  0.87171271  0.49653893  1
  V  V26  1  0.62304586  0.87086580  0.24760282  1
  V  V27  1  0.36077794  0.48777964  0.86847977  1
  V  V28  1  0.00666646  -0.00465801  -0.00499825  1
  V  V29  1  0.00124089  0.37415347  0.87963436  1
  V  V30  1  0.00771079  0.50176281  0.50161099  1
  V  V31  1  0.37807877  0.37060901  -0.00084692  1
  V  V32  1  0.13166842  0.64081381  0.49326778  1
  V  V33  1  0.25338314  0.64165723  0.37370006  1
  V  V34  1  0.49861679  0.50918354  -0.00176498  1
  V  V35  1  0.49639646  0.87257790  0.37195749  1
  V  V36  1  0.61911376  0.25123535  0.87721706  1
  V  V37  1  0.75614243  0.12746043  0.37135341  1
  V  V38  1  0.11861675  0.89268564  0.24992198  1
  V  V39  1  0.00342720  0.73138684  0.24908660  1
  V  V40  1  0.37754989  0.50320559  0.37117267  1
  V  V41  1  0.24314832  0.88644641  0.12964059  1
  V  V42  1  0.50015137  0.12855939  0.62732770  1
  V  V43  1  0.49611759  -0.00033605  0.49389775  1
  V  V44  1  0.36893100  0.74608447  0.14796559  1
  V  V45  1  0.87479951  0.12206903  0.75437629  1
  V  V46  1  0.87223430  0.87943311  -0.00994764  1
  V  V47  1  0.74810232  0.37785100  0.12515222  1
  V  V48  1  -0.00053613  0.00022943  0.49422032  1
  V  V49  1  0.62075968  0.87031729  0.75017328  1
  V  V50  1  0.62677595  -0.00160621  0.11516722  1
  V  V51  1  0.74781914  0.12492837  0.87827372  1
  V  V52  1  0.24938302  0.88440651  0.63350073  1
  V  V53  1  0.49679621  0.49674950  0.50136507  1
  V  V54  1  0.36648975  0.11461621  0.75735898  1
  V  V55  1  0.87440291  -0.00557800  0.37048066  1
  V  V56  1  0.74995868  0.50305578  0.24876082  1
  V  V57  1  0.13650772  0.37540039  0.75751014  1
  V  V58  1  0.87743410  0.50605452  0.37209705  1
  V  V59  1  0.50541554  0.24812537  0.25350204  1
  V  V60  1  0.00489689  0.25025720  0.75490176  1
  V  V61  1  0.00081233  0.12825153  0.61725361  1
  V  V62  1  0.11734985  0.88608025  0.75848997  1
  V  V63  1  0.87314785  0.25136858  0.62567496  1
  V  V64  1  0.36503406  0.74761531  0.61965263  1
  V  V65  1  0.62583922  0.75086578  0.37335991  1
  V  V66  1  0.00160880  0.63256151  0.62889629  1
  V  V67  1  0.75304059  0.63022198  0.37702889  1
  V  V68  1  0.87640339  0.73751511  0.12292636  1
  V  V69  1  0.11691361  0.50660740  0.11867800  1
  V  V70  1  0.74543817  0.25277427  0.49656358  1
  V  V71  1  0.87814446  0.38074157  0.00252856  1
  V  V72  1  0.63223581  0.49962567  0.63042165  1
  V  V73  1  0.25101104  0.36979160  0.12544122  1
  V  V74  1  0.74983459  0.00073360  0.75457692  1
  V  V75  1  0.15572329  0.25711484  0.37999890  1
  V  V76  1  0.26035372  0.09994579  0.37342682  1
  V  V77  1  0.11904202  0.13882805  0.01854579  1
  V  V78  1  0.37238389  0.24703708  0.12476056  1
  Zn  Zn79  1  0.11914278  0.76344496  0.88384129  1
  Zn  Zn80  1  0.49190250  0.87722534  0.87153003  1
  Zn  Zn81  1  0.13017685  0.00781660  0.62620283  1
  Zn  Zn82  1  0.23398240  0.72664431  0.00045799  1
  Zn  Zn83  1  0.75342599  0.38410447  0.63177686  1
  Zn  Zn84  1  0.37427935  0.10202041  0.24841286  1
  Zn  Zn85  1  0.00587703  0.86625824  0.37302391  1
  Zn  Zn86  1  -0.00018801  0.75702572  0.75797229  1
  Zn  Zn87  1  0.11869546  0.37056276  0.24678557  1
  Zn  Zn88  1  0.14045356  0.50912594  0.63138774  1
  Zn  Zn89  1  0.62568283  0.00288496  0.62375043  1
  Zn  Zn90  1  0.49349876  0.25405545  0.75894161  1
  Zn  Zn91  1  0.74713302  0.85958986  0.11846466  1
  Zn  Zn92  1  0.65289936  0.66867550  0.95151103  1
  Zn  Zn93  1  0.87079324  0.87114523  0.49406057  1
  Zn  Zn94  1  0.18722487  0.18416606  0.20073643  1
  Zn  Zn95  1  0.19043056  0.18950379  0.68960521  1
  Zn  Zn96  1  0.18561581  0.69256314  0.18795220  1
  Zn  Zn97  1  0.18082306  0.69845922  0.68778849  1
  Zn  Zn98  1  0.68800241  0.18816193  0.18602178  1
  Zn  Zn99  1  0.68523714  0.19264558  0.68843625  1
  Zn  Zn100  1  0.68692297  0.68241095  0.18315439  1
  Zn  Zn101  1  0.66413600  0.66084544  0.74730802  1
  Zn  Zn102  1  0.32550328  0.32061350  0.30682341  1
  Zn  Zn103  1  0.31362300  0.29709390  0.81373068  1
  Zn  Zn104  1  0.31483858  0.92265855  0.30628096  1
  Zn  Zn105  1  0.30169401  0.80553205  0.81600553  1
  Zn  Zn106  1  0.81428937  0.31449038  0.31559052  1
  Zn  Zn107  1  0.80739995  0.31936250  0.81635809  1
  Zn  Zn108  1  0.81529308  0.80920767  0.30304003  1
  Zn  Zn109  1  0.82043302  0.81903321  0.79922414  1
  Zn  Zn110  1  0.18826327  0.44337108  0.43760509  1
  Zn  Zn111  1  0.18909716  0.43062012  0.94262116  1
  Zn  Zn112  1  0.18056517  0.93047702  0.44178489  1
  Zn  Zn113  1  0.19236738  0.95249389  0.93848658  1
  Zn  Zn114  1  0.68502608  0.44182900  0.43966183  1
  Zn  Zn115  1  0.69684202  0.49093423  0.94812747  1
  Zn  Zn116  1  0.68244103  0.94322978  0.43465023  1
  Zn  Zn117  1  0.67124940  0.86599451  0.95021539  1
  Zn  Zn118  1  0.30902733  0.06458221  0.05926828  1
  Zn  Zn119  1  0.31914312  0.06123034  0.56261742  1
  Zn  Zn120  1  0.31417680  0.55987925  0.07042728  1
  Zn  Zn121  1  0.31163470  0.56034833  0.55828854  1
  Zn  Zn122  1  0.82053995  0.05874341  0.06072175  1
  Zn  Zn123  1  0.81270658  0.06210176  0.56124110  1
  Zn  Zn124  1  0.81155299  0.57041863  0.05552024  1
  Zn  Zn125  1  0.81629568  0.56556310  0.56279874  1
  Zn  Zn126  1  0.43925260  0.44043551  0.18599191  1
  Zn  Zn127  1  0.43921478  0.43378356  0.68906868  1
  Zn  Zn128  1  0.43907911  0.92986888  0.17902641  1
  Zn  Zn129  1  0.43835297  0.93866994  0.68225158  1
  Zn  Zn130  1  0.93543759  0.43421404  0.18813131  1
  Zn  Zn131  1  0.94471284  0.43937891  0.68876741  1
  Zn  Zn132  1  0.93685098  0.92898506  0.17497470  1
  Zn  Zn133  1  0.93604838  0.94042152  0.68145613  1
  Zn  Zn134  1  0.03795799  0.07278762  0.18519241  1
  Zn  Zn135  1  0.05940405  0.05925924  0.81483708  1
  Zn  Zn136  1  0.06923837  0.55818207  0.31100176  1
  Zn  Zn137  1  0.05260853  0.55027262  0.80826672  1
  Zn  Zn138  1  0.56406474  0.05953338  0.30894361  1
  Zn  Zn139  1  0.56614754  0.06287203  0.81190098  1
  Zn  Zn140  1  0.56887637  0.56203515  0.31473281  1
  Zn  Zn141  1  0.54647172  0.55369255  0.81988890  1
  Zn  Zn142  1  0.43498671  0.19027214  0.43671424  1
  Zn  Zn143  1  0.43332815  0.18432806  0.94005627  1
  Zn  Zn144  1  0.43832968  0.68926348  0.43389399  1
  Zn  Zn145  1  0.39869114  0.66723921  0.95388124  1
  Zn  Zn146  1  0.97812682  0.14416236  0.36959498  1
  Zn  Zn147  1  0.93786201  0.18796977  0.94412730  1
  Zn  Zn148  1  0.94113067  0.69134276  0.43860360  1
  Zn  Zn149  1  0.92412453  0.69893729  0.92718128  1
  Zn  Zn150  1  0.06190338  0.31464067  0.06740425  1
  Zn  Zn151  1  0.06801166  0.31120387  0.56302840  1
  Zn  Zn152  1  0.05597366  0.81004914  0.06458831  1
  Zn  Zn153  1  0.06466583  0.81669178  0.56134590  1
  Zn  Zn154  1  0.56370906  0.31705373  0.06271660  1
  Zn  Zn155  1  0.56231905  0.31377692  0.56792723  1
  Zn  Zn156  1  0.55012239  0.80209086  0.06287571  1
  Zn  Zn157  1  0.55923676  0.81120016  0.56614349  1
  O  O158  1  0.12468264  0.12980476  0.12252315  1
  O  O159  1  0.12146021  0.12984275  0.61456647  1
  O  O160  1  0.13653260  0.60544253  0.12845644  1
  O  O161  1  0.12053018  0.62642885  0.61158518  1
  O  O162  1  0.61404084  0.11533183  0.12816166  1
  O  O163  1  0.61610711  0.12902738  0.61431440  1
  O  O164  1  0.60003041  0.63605754  0.12588503  1
  O  O165  1  0.61656924  0.61966413  0.62837492  1
  O  O166  1  0.39350234  0.38896543  0.37275191  1
  O  O167  1  0.36855129  0.37912584  0.88113225  1
  O  O168  1  0.38652360  0.86856473  0.38447431  1
  O  O169  1  0.36979550  0.87573581  0.88574313  1
  O  O170  1  0.88472777  0.38286799  0.38561742  1
  O  O171  1  0.88217668  0.37913921  0.88169499  1
  O  O172  1  0.87224864  0.88437977  0.37562219  1
  O  O173  1  0.87207354  0.86150403  0.88982122  1
  O  O174  1  0.25195408  -0.00194749  0.37493056  1
  O  O175  1  0.25868231  0.02541907  0.88040206  1
  O  O176  1  0.26173664  0.49802146  0.36944828  1
  O  O177  1  0.26127587  0.49430252  0.87717320  1
  O  O178  1  0.75393288  0.00670918  0.36724986  1
  O  O179  1  0.74736555  0.01202238  0.85777419  1
  O  O180  1  0.75772467  0.50624244  0.37110443  1
  O  O181  1  0.76952004  0.48297082  0.86556308  1
  O  O182  1  0.24980005  0.49002899  0.13563921  1
  O  O183  1  0.25656438  0.48281127  0.62382456  1
  O  O184  1  0.25520684  0.98563024  0.12519985  1
  O  O185  1  0.25256191  0.98746390  0.62247668  1
  O  O186  1  0.76358642  0.48894997  0.14027646  1
  O  O187  1  0.73751333  0.50603282  0.62309816  1
  O  O188  1  0.74078771  1.00622586  0.13208810  1
  O  O189  1  0.74918039  0.99437200  0.63353835  1
  O  O190  1  0.00046670  0.37869891  0.27316759  1
  O  O191  1  0.00792298  0.36607825  0.75526965  1
  O  O192  1  0.01047438  0.87438744  0.24707396  1
  O  O193  1  0.01374108  0.87967928  0.73997064  1
  O  O194  1  0.50868990  0.37181209  0.25443373  1
  O  O195  1  0.51654179  0.36836866  0.74166938  1
  O  O196  1  0.51413809  0.87814158  0.25961271  1
  O  O197  1  0.50139224  0.86810224  0.74709223  1
  O  O198  1  0.49924712  0.13197884  0.24447139  1
  O  O199  1  0.49712894  0.12480838  0.73688522  1
  O  O200  1  0.49880831  0.61716463  0.24433380  1
  O  O201  1  0.48862001  0.62868122  0.73782268  1
  O  O202  1  1.01559378  0.14015312  0.26655228  1
  O  O203  1  0.99299619  0.13198363  0.74203287  1
  O  O204  1  1.00334944  0.63111419  0.25417993  1
  O  O205  1  1.01380541  0.62298846  0.72925085  1
  O  O206  1  0.38341137  0.25450901  0.01618168  1
  O  O207  1  0.37650571  0.24905406  0.51558174  1
  O  O208  1  0.37830045  0.76999328  0.00351795  1
  O  O209  1  0.38310093  0.75905828  0.50978549  1
  O  O210  1  0.86305333  0.25901016  0.00461847  1
  O  O211  1  0.86679065  0.26343066  0.51138990  1
  O  O212  1  0.88501696  0.76240294  0.01213334  1
  O  O213  1  0.88538010  0.75699739  0.51514050  1
  O  O214  1  0.12376832  0.24086418  0.48927275  1
  O  O215  1  0.12121022  0.23781187  1.00449389  1
  O  O216  1  0.12367749  0.73967722  0.49605589  1
  O  O217  1  0.12160819  0.74720631  0.99970477  1
  O  O218  1  0.63564907  0.24447056  0.50554430  1
  O  O219  1  0.63858109  0.25971690  0.99354684  1
  O  O220  1  0.62189509  0.73986303  0.49542684  1
  O  O221  1  0.62947335  0.76941585  0.99243209  1
  O  O222  1  0.49781462  0.24103720  0.13111843  1
  O  O223  1  0.48991619  0.24152250  0.62270603  1
  O  O224  1  0.48172125  0.73995962  0.12852694  1
  O  O225  1  0.48664694  0.74131998  0.63096489  1
  O  O226  1  0.98387728  0.25780482  0.12892619  1
  O  O227  1  0.99128057  0.24786163  0.63013441  1
  O  O228  1  0.98861740  0.75114757  0.13746462  1
  O  O229  1  1.00296894  0.73835936  0.62246347  1
  O  O230  1  -0.00587945  0.26234114  0.38500762  1
  O  O231  1  -0.00888338  0.25698982  0.86119273  1
  O  O232  1  -0.01167729  0.75275744  0.35642609  1
  O  O233  1  0.01185355  0.72877712  0.86597047  1
  O  O234  1  0.49380168  0.26056777  0.36643431  1
  O  O235  1  0.51522491  0.24247311  0.88122514  1
  O  O236  1  0.51370334  0.75923682  0.37985770  1
  O  O237  1  0.48292338  0.74990262  0.85928928  1
  O  O238  1  0.24354494  0.11139964  0.49052272  1
  O  O239  1  0.22835578  0.11887578  0.99746002  1
  O  O240  1  0.23977465  0.62260381  0.49179990  1
  O  O241  1  0.29305400  0.63221590  0.99000008  1
  O  O242  1  0.74345001  0.13205347  0.49354944  1
  O  O243  1  0.75897589  0.13422474  0.98783122  1
  O  O244  1  0.74017864  0.61903593  0.49135874  1
  O  O245  1  0.72062086  0.59146488  0.99766982  1
  O  O246  1  0.26321375  0.37394168  0.01565636  1
  O  O247  1  0.24855600  0.37477124  0.51029936  1
  O  O248  1  0.25901376  0.88152349  0.00816066  1
  O  O249  1  0.26190589  0.87814964  0.50761460  1
  O  O250  1  0.75723458  0.37000329  0.01251395  1
  O  O251  1  0.75795112  0.37168412  0.49994271  1
  O  O252  1  0.76547019  0.88550481  0.00377003  1
  O  O253  1  0.74461605  0.88306819  0.51167283  1
  O  O254  1  0.13841692  0.49023841  0.24745611  1
  O  O255  1  0.11990743  0.48007134  0.74323851  1
  O  O256  1  0.11744316  0.98987261  0.23737365  1
  O  O257  1  0.12151222  0.99272391  0.74164853  1
  O  O258  1  0.63712926  0.48957396  0.25425419  1
  O  O259  1  0.61598392  0.48779510  0.74339790  1
  O  O260  1  0.63175199  0.99099044  0.24106635  1
  O  O261  1  0.63160920  0.99322510  0.74346924  1
  O  O262  1  0.38771200  -0.00870320  0.25592615  1
  O  O263  1  0.37722409  0.01626595  0.73768293  1
  O  O264  1  0.36808032  0.49905095  0.26093723  1
  O  O265  1  0.37599569  0.50463818  0.75724451  1
  O  O266  1  0.86015706  -0.00821208  0.25501865  1
  O  O267  1  0.86715462  0.01406823  0.74134038  1
  O  O268  1  0.86671605  0.49187620  0.26560780  1
  O  O269  1  0.88212781  0.50415305  0.75703339  1
  O  O270  1  0.11407054  0.36547884  0.38758099  1
  O  O271  1  0.11911425  0.37598418  0.86443231  1
  O  O272  1  0.12459733  0.88072743  0.35647338  1
  O  O273  1  0.13024644  0.88822035  0.86006885  1
  O  O274  1  0.61521097  0.38076875  0.36624378  1
  O  O275  1  0.62697472  0.36825603  0.86319265  1
  O  O276  1  0.62016803  0.86767826  0.37080126  1
  O  O277  1  0.61606282  0.87893274  0.85400452  1
  O  O278  1  0.38262774  0.13093285  0.12802673  1
  O  O279  1  0.37909713  0.13524275  0.62981577  1
  O  O280  1  0.37809791  0.63885351  0.13396524  1
  O  O281  1  0.37908009  0.62740155  0.62834141  1
  O  O282  1  0.87015832  0.14158084  0.12162597  1
  O  O283  1  0.87965756  0.13546961  0.62926392  1
  O  O284  1  0.88053666  0.63684026  0.11271758  1
  O  O285  1  0.88883751  0.63724783  0.61690651  1
  O  O286  1  0.26334167  0.25662144  0.14091584  1
  O  O287  1  0.26075669  0.25800153  0.62608248  1
  O  O288  1  0.25879832  0.75553179  0.12088667  1
  O  O289  1  0.25969997  0.76131394  0.62482400  1
  O  O290  1  0.75423058  0.25729119  0.11956410  1
  O  O291  1  0.75918967  0.25029980  0.61527832  1
  O  O292  1  0.76660904  0.74449544  0.13271527  1
  O  O293  1  0.76248524  0.75767632  0.62599528  1
  O  O294  1  0.25436862  0.26926565  0.38408773  1
  O  O295  1  0.26921088  0.22325946  0.88623607  1
  O  O296  1  0.25385554  0.73664625  0.37256949  1
  O  O297  1  0.23371991  0.74815605  0.88214439  1
  O  O298  1  0.75820886  0.24270998  0.38775906  1
  O  O299  1  0.74272479  0.24566012  0.88287203  1
  O  O300  1  0.74405636  0.73918437  0.37166676  1
  O  O301  1  0.77575570  0.71660345  0.84368207  1
  O  O302  1  0.01248762  0.12065857  -0.00085668  1
  O  O303  1  0.01408422  0.11833932  0.49317831  1
  O  O304  1  0.08190181  0.61984190  -0.03939030  1
  O  O305  1  0.01389107  0.62037436  0.50318302  1
  O  O306  1  0.49298296  0.11035759  0.01170766  1
  O  O307  1  0.50498693  0.12058605  0.50210048  1
  O  O308  1  0.49360534  0.61399980  -0.00170911  1
  O  O309  1  0.50853821  0.62002715  0.51060120  1
  O  O310  1  0.51135222  0.38662492  0.49207727  1
  O  O311  1  0.48279851  0.38420545  1.01484408  1
  O  O312  1  0.49501555  0.88078386  0.49449583  1
  O  O313  1  0.48623651  0.88540078  0.99971478  1
  O  O314  1  0.99406702  0.38208043  0.49752368  1
  O  O315  1  0.99127283  0.36091859  0.98852228  1
  O  O316  1  1.00400264  0.88878710  0.49402593  1
  O  O317  1  0.99213745  0.88739366  1.00387280  1
  O  O318  1  0.49729693  0.49784329  0.38265423  1
  O  O319  1  0.47677769  0.49834473  0.88805920  1
  O  O320  1  0.51012607  0.98743823  0.38500973  1
  O  O321  1  0.50629037  1.00216213  0.89195136  1
  O  O322  1  0.99565591  0.49609857  0.38618954  1
  O  O323  1  0.98997992  0.47994664  0.87254392  1
  O  O324  1  0.98433591  1.00425497  0.38170588  1
  O  O325  1  0.99538132  1.00671934  0.89284953  1
  O  O326  1  -0.01113594  0.00742168  0.10959836  1
  O  O327  1  -0.00212672  0.01159450  0.60972183  1
  O  O328  1  0.01794688  0.49090280  0.13723805  1
  O  O329  1  -0.00151862  0.51313206  0.61316054  1
  O  O330  1  0.50770887  0.00535148  0.11905274  1
  O  O331  1  0.50108560  0.01163206  0.61223258  1
  O  O332  1  0.48133498  0.51856952  0.11321518  1
  O  O333  1  0.50477727  0.50693224  0.61919377  1
  O  O334  1  0.25392715  0.38515347  0.24214997  1
  O  O335  1  0.23750471  0.36439891  0.75280052  1
  O  O336  1  0.23616829  0.87359647  0.23828995  1
  O  O337  1  0.24525444  0.87591453  0.73718951  1
  O  O338  1  0.74364667  0.38043790  0.24865201  1
  O  O339  1  0.73147873  0.36571543  0.74386920  1
  O  O340  1  0.73823444  0.88480750  0.24947325  1
  O  O341  1  0.74215667  0.88210097  0.74040777  1
  O  O342  1  0.25689029  0.12414974  0.27028131  1
  O  O343  1  0.25884536  0.12801218  0.75961188  1
  O  O344  1  0.24205044  0.61535634  0.26640294  1
  O  O345  1  0.25711023  0.62309623  0.73596004  1
  O  O346  1  0.73755179  0.11551899  0.26178157  1
  O  O347  1  0.75625641  0.12191748  0.75236393  1
  O  O348  1  0.74101423  0.61275758  0.26366955  1
  O  O349  1  0.77599506  0.66413722  0.78364109  1
  O  O350  1  0.36150205  0.12257855  0.38128972  1
  O  O351  1  0.38767152  0.12219263  0.85652695  1
  O  O352  1  0.36320357  0.61700012  0.38367435  1
  O  O353  1  0.37054090  0.61320738  0.85298680  1
  O  O354  1  0.86202446  0.11208631  0.37686166  1
  O  O355  1  0.86469439  0.13707827  0.86056313  1
  O  O356  1  0.86630042  0.61443388  0.38796698  1
  O  O357  1  0.88582656  0.59792385  0.89262835  1
  O  O358  1  0.13765153  0.37536991  0.13034184  1
  O  O359  1  0.14098794  0.37172608  0.63199528  1
  O  O360  1  0.13819747  0.86987137  0.13000662  1
  O  O361  1  0.14061879  0.87777366  0.62512572  1
  O  O362  1  0.63745669  0.37252620  0.13658636  1
  O  O363  1  0.62874947  0.38643545  0.62827357  1
  O  O364  1  0.62452823  0.87864720  0.13372934  1
  O  O365  1  0.63036688  0.87697223  0.63134329  1
  O  O366  1  0.13613700  0.25805224  0.27640568  1
  O  O367  1  0.11329144  0.26040609  0.74243187  1
  O  O368  1  0.10671216  0.75565209  0.24281494  1
  O  O369  1  0.12255066  0.77251864  0.75015454  1
  O  O370  1  0.61453132  0.26012427  0.24700528  1
  O  O371  1  0.62022586  0.25727486  0.75932147  1
  O  O372  1  0.63210376  0.75849174  0.26234037  1
  O  O373  1  0.60721645  0.76041488  0.73895955  1
  O  O374  1  0.39215998  0.25238039  0.23978427  1
  O  O375  1  0.37971345  0.23665795  0.73869624  1
  O  O376  1  0.36818621  0.75880266  0.24311353  1
  O  O377  1  0.37388535  0.73576040  0.74049803  1
  O  O378  1  0.86792665  0.25035750  0.24102552  1
  O  O379  1  0.87955865  0.24635234  0.73962263  1
  O  O380  1  0.88640144  0.75124106  0.23583856  1
  O  O381  1  0.88905116  0.76233697  0.72463648  1
  O  O382  1  0.39022213  0.50476026  0.49174774  1
  O  O383  1  0.37614109  0.48852403  0.98924943  1
  O  O384  1  0.38756913  0.98772018  0.50310035  1
  O  O385  1  0.38659725  0.99038678  1.00772930  1
  O  O386  1  0.88240645  0.49237529  0.49487325  1
  O  O387  1  0.87357473  0.48175442  1.00376440  1
  O  O388  1  0.88113337  0.99822894  0.49128646  1
  O  O389  1  0.88348021  0.98759443  0.99853221  1
  O  O390  1  0.11202770  0.00655715  0.00322325  1
  O  O391  1  0.11709471  0.00940762  0.50048840  1
  O  O392  1  0.12849050  0.48569773  0.01991244  1
  O  O393  1  0.11799035  0.50626168  0.50574715  1
  O  O394  1  0.61095893  -0.01664086  0.01277765  1
  O  O395  1  0.61619581  0.01191455  0.50304722  1
  O  O396  1  0.59514160  0.48362577  -0.00610377  1
  O  O397  1  0.61695496  0.51213619  0.50892104  1
  O  O398  1  0.36985953  0.36708060  0.12233323  1
  O  O399  1  0.36488882  0.36313254  0.63230457  1
  O  O400  1  0.36391335  0.86397990  0.11952388  1
  O  O401  1  0.36656437  0.86782055  0.61917311  1
  O  O402  1  0.86677539  0.36482649  0.12242643  1
  O  O403  1  0.87531220  0.37149148  0.61993932  1
  O  O404  1  0.86742723  0.86449836  0.11304850  1
  O  O405  1  0.86477601  0.87063384  0.61907122  1
  O  O406  1  0.15291831  0.14410600  0.38265215  1
  O  O407  1  0.12953941  0.12981504  0.87656112  1
  O  O408  1  0.13721729  0.61919462  0.38708964  1
  O  O409  1  0.11970103  0.59839221  0.90007852  1
  O  O410  1  0.63380419  0.12173264  0.38606216  1
  O  O411  1  0.63883579  0.13636491  0.86799875  1
  O  O412  1  0.63140113  0.63223471  0.38591475  1
  O  O413  1  0.62724417  0.62404913  0.84921850  1
