# generated using pymatgen
data_V79Zn79O256
_symmetry_space_group_name_H-M   'P 1'
_cell_length_a   16.89767143
_cell_length_b   16.89553331
_cell_length_c   16.88430608
_cell_angle_alpha   89.86070247
_cell_angle_beta   89.84671556
_cell_angle_gamma   89.84032058
_symmetry_Int_Tables_number   1
_chemical_formula_structural   V79Zn79O256
_chemical_formula_sum   'V79 Zn79 O256'
_cell_volume   4820.33771331
_cell_formula_units_Z   1
loop_
 _symmetry_equiv_pos_site_id
 _symmetry_equiv_pos_as_xyz
  1  'x, y, z'
loop_
 _atom_site_type_symbol
 _atom_site_label
 _atom_site_symmetry_multiplicity
 _atom_site_fract_x
 _atom_site_fract_y
 _atom_site_fract_z
 _atom_site_occupancy
  V  V0  1  0.01223110  0.49890860  -0.00008893  1
  V  V1  1  0.01344762  0.48659929  0.49533889  1
  V  V2  1  0.24377516  0.37961850  0.12891175  1
  V  V3  1  0.62345391  0.00119019  0.12731126  1
  V  V4  1  0.74443492  0.74697664  0.00158744  1
  V  V5  1  0.75115086  0.61943034  0.87851236  1
  V  V6  1  0.36536323  0.12227781  0.75224950  1
  V  V7  1  0.24137214  0.50334828  0.74373057  1
  V  V8  1  0.23853572  -0.00634813  0.75020179  1
  V  V9  1  0.12065481  0.75778901  0.35968592  1
  V  V10  1  0.48342976  0.75159473  0.24499590  1
  V  V11  1  0.23998233  0.24690369  -0.01834686  1
  V  V12  1  0.24838081  0.37861888  0.62191203  1
  V  V13  1  0.75126181  0.11778803  0.87412248  1
  V  V14  1  0.87576251  0.48260656  0.38672880  1
  V  V15  1  0.01160015  0.61164553  0.61829916  1
  V  V16  1  -0.00073247  0.25527868  0.23807426  1
  V  V17  1  0.63082225  0.62895561  0.50253411  1
  V  V18  1  0.12731748  0.49703258  0.14428618  1
  V  V19  1  0.49914890  0.25160843  0.75547579  1
  V  V20  1  0.36976809  0.86695522  0.01165178  1
  V  V21  1  0.12200994  0.00445954  0.13061649  1
  V  V22  1  0.12293367  0.12725908  0.49750851  1
  V  V23  1  0.62394419  0.36896893  0.75375559  1
  V  V24  1  0.86610784  0.23127596  0.12514619  1
  V  V25  1  0.49951880  0.75137072  0.74963167  1
  V  V26  1  0.49862691  0.11935682  0.62386246  1
  V  V27  1  0.25805696  0.12821617  0.36152289  1
  V  V28  1  -0.00570029  -0.00252027  0.48078152  1
  V  V29  1  0.24137451  0.63208022  0.88197998  1
  V  V30  1  0.62060808  0.12692914  0.48712359  1
  V  V31  1  -0.02359512  0.01373511  0.01260384  1
  V  V32  1  0.00495490  0.62669613  0.12238520  1
  V  V33  1  0.87303298  0.37346447  0.01036945  1
  V  V34  1  0.25626310  0.25199418  0.49788816  1
  V  V35  1  0.37920206  0.49393747  0.86877793  1
  V  V36  1  0.00566718  0.76431721  0.72728267  1
  V  V37  1  0.86404340  0.85279515  0.48536742  1
  V  V38  1  0.24483993  0.87635931  0.61822548  1
  V  V39  1  0.87029683  0.74847568  0.12184821  1
  V  V40  1  0.23298281  0.74422503  0.50005422  1
  V  V41  1  0.49971818  0.62312316  0.62526611  1
  V  V42  1  0.49026833  0.87326995  0.38575480  1
  V  V43  1  0.62381215  0.87133842  0.25090279  1
  V  V44  1  0.74978124  0.87323232  0.12454321  1
  V  V45  1  0.49636354  0.00396249  0.00409768  1
  V  V46  1  0.25069183  -0.01411363  0.24593452  1
  V  V47  1  0.75295999  0.36681302  0.61608651  1
  V  V48  1  0.61185915  0.27689905  0.37592481  1
  V  V49  1  0.12521384  0.12312070  -0.00962726  1
  V  V50  1  0.25129193  0.61586823  0.36770676  1
  V  V51  1  0.75109244  0.62858372  0.37929958  1
  V  V52  1  0.12470135  0.37010114  0.74900963  1
  V  V53  1  0.00490156  0.36762988  0.87371890  1
  V  V54  1  0.48760606  0.49057756  0.49024338  1
  V  V55  1  0.37394028  0.62772339  0.74973270  1
  V  V56  1  0.49324678  0.24851549  0.24723168  1
  V  V57  1  0.12403913  0.26480528  0.36565883  1
  V  V58  1  0.37671486  0.37480328  -0.01264410  1
  V  V59  1  0.74212004  0.49335584  0.23544011  1
  V  V60  1  0.87846033  0.49796138  0.86915037  1
  V  V61  1  0.00296925  0.24200716  0.74882552  1
  V  V62  1  0.11628429  0.00362253  0.62118469  1
  V  V63  1  0.87435687  0.11719633  0.74494968  1
  V  V64  1  0.87732184  0.25386135  0.62497601  1
  V  V65  1  0.87441225  0.61913469  0.25000904  1
  V  V66  1  0.77873575  0.23908857  0.46761192  1
  V  V67  1  0.37568965  0.00121542  0.37940457  1
  V  V68  1  0.37468874  0.25315397  0.62098530  1
  V  V69  1  0.64021699  -0.00359923  0.62675099  1
  V  V70  1  0.36339567  -0.00011762  0.87484761  1
  V  V71  1  0.24212540  0.74573615  0.01369867  1
  V  V72  1  0.00304331  0.86547038  0.91367339  1
  V  V73  1  0.62841360  0.49574160  0.62467288  1
  V  V74  1  0.37274512  0.75500618  0.61573888  1
  V  V75  1  0.37263508  0.23822773  0.12372157  1
  V  V76  1  0.62559202  0.74725380  0.87540705  1
  V  V77  1  0.62515927  0.12337620  0.00164503  1
  V  V78  1  0.49926297  0.87614236  0.87124260  1
  Zn  Zn79  1  0.62353707  0.24716067  0.87572212  1
  Zn  Zn80  1  0.74264028  0.25234478  0.00228655  1
  Zn  Zn81  1  0.75549178  0.49567703  0.74550906  1
  Zn  Zn82  1  0.58345708  0.55787250  1.03356796  1
  Zn  Zn83  1  0.61649342  0.38641902  0.22550516  1
  Zn  Zn84  1  0.65279204  0.88420323  0.75646651  1
  Zn  Zn85  1  0.86931695  -0.01495486  0.86519330  1
  Zn  Zn86  1  0.81980006  0.08528748  0.34042510  1
  Zn  Zn87  1  0.87825200  0.63014413  0.73917373  1
  Zn  Zn88  1  0.49362214  0.62994066  0.13333531  1
  Zn  Zn89  1  0.62549340  0.75199595  0.37859191  1
  Zn  Zn90  1  -0.00619956  0.75524799  0.25712012  1
  Zn  Zn91  1  0.77648965  0.84440440  0.64309652  1
  Zn  Zn92  1  0.37485721  0.59949642  0.25967660  1
  Zn  Zn93  1  0.49359906  -0.00669005  0.50382198  1
  Zn  Zn94  1  0.18602672  0.18840076  0.17926572  1
  Zn  Zn95  1  0.18446274  0.18540957  0.68650190  1
  Zn  Zn96  1  0.19177487  0.68387453  0.18791874  1
  Zn  Zn97  1  0.17710370  0.69174708  0.69238262  1
  Zn  Zn98  1  0.68114864  0.19371814  0.19081313  1
  Zn  Zn99  1  0.68880789  0.18246376  0.68569530  1
  Zn  Zn100  1  0.67775000  0.67833623  0.18823404  1
  Zn  Zn101  1  0.68556763  0.68395268  0.69821789  1
  Zn  Zn102  1  0.31118209  0.31416483  0.30719723  1
  Zn  Zn103  1  0.30925874  0.30917689  0.80550205  1
  Zn  Zn104  1  0.30761984  0.81247708  0.31730672  1
  Zn  Zn105  1  0.30731550  0.81553432  0.81287865  1
  Zn  Zn106  1  0.80701761  0.30855819  0.30215088  1
  Zn  Zn107  1  0.81051797  0.30785690  0.81224482  1
  Zn  Zn108  1  0.81064739  0.81242015  0.30974084  1
  Zn  Zn109  1  0.82975741  0.80772398  0.81663658  1
  Zn  Zn110  1  0.19580372  0.43563072  0.43720784  1
  Zn  Zn111  1  0.19353061  0.43836457  0.93299381  1
  Zn  Zn112  1  0.18743783  0.93651176  0.43464803  1
  Zn  Zn113  1  0.18077757  0.92805009  0.94415403  1
  Zn  Zn114  1  0.69509112  0.44031930  0.44204965  1
  Zn  Zn115  1  0.69050358  0.43092642  0.94134116  1
  Zn  Zn116  1  0.68628856  0.93676900  0.44044235  1
  Zn  Zn117  1  0.68962545  0.93644549  0.94136670  1
  Zn  Zn118  1  0.30400209  0.06119606  0.05877543  1
  Zn  Zn119  1  0.30848853  0.06445716  0.56040317  1
  Zn  Zn120  1  0.35479330  0.57392486  0.05400178  1
  Zn  Zn121  1  0.30871879  0.56569146  0.55928080  1
  Zn  Zn122  1  0.81450329  0.04889601  0.17909736  1
  Zn  Zn123  1  0.81397955  0.07039618  0.55254753  1
  Zn  Zn124  1  0.81572176  0.56133517  0.05743702  1
  Zn  Zn125  1  0.81781029  0.67397622  0.56519853  1
  Zn  Zn126  1  0.44304798  0.43869641  0.16767942  1
  Zn  Zn127  1  0.43781920  0.43852230  0.68569696  1
  Zn  Zn128  1  0.43738131  0.94253135  0.19373620  1
  Zn  Zn129  1  0.43120720  0.93608279  0.68679295  1
  Zn  Zn130  1  0.94163846  0.43631302  0.19530637  1
  Zn  Zn131  1  0.94076645  0.43797150  0.68000308  1
  Zn  Zn132  1  0.94343343  0.93678517  0.30012581  1
  Zn  Zn133  1  0.93375193  0.93928062  0.66830571  1
  Zn  Zn134  1  0.06454040  0.07985610  0.30655803  1
  Zn  Zn135  1  0.05704027  0.04937806  0.82220478  1
  Zn  Zn136  1  0.06437295  0.56700168  0.32161981  1
  Zn  Zn137  1  0.06313282  0.56619076  0.81074084  1
  Zn  Zn138  1  0.66116527  0.05888612  0.31057503  1
  Zn  Zn139  1  0.56031887  0.06095224  0.80989677  1
  Zn  Zn140  1  0.56316256  0.56448839  0.31466430  1
  Zn  Zn141  1  0.57997179  0.54025021  0.83670932  1
  Zn  Zn142  1  0.44105327  0.18620115  0.43169695  1
  Zn  Zn143  1  0.43190277  0.18569369  0.93805382  1
  Zn  Zn144  1  0.43835400  0.68100570  0.43711407  1
  Zn  Zn145  1  0.43933531  0.68391282  0.93796294  1
  Zn  Zn146  1  0.95256902  0.18897119  0.41391186  1
  Zn  Zn147  1  0.93641623  0.18453718  0.93650502  1
  Zn  Zn148  1  0.94703699  0.67304504  0.43490542  1
  Zn  Zn149  1  0.93642108  0.68443146  0.93980695  1
  Zn  Zn150  1  0.06174467  0.31015108  0.06356643  1
  Zn  Zn151  1  0.06378555  0.30957825  0.56185051  1
  Zn  Zn152  1  0.02395772  0.85964763  0.12384944  1
  Zn  Zn153  1  0.05574881  0.82097265  0.55625823  1
  Zn  Zn154  1  0.55387967  0.31179817  0.05537686  1
  Zn  Zn155  1  0.55868320  0.31310642  0.56414667  1
  Zn  Zn156  1  0.55910442  0.80978013  0.06192389  1
  Zn  Zn157  1  0.56949412  0.81187369  0.56833963  1
  O  O158  1  0.13212942  0.11785599  0.11036653  1
  O  O159  1  0.13372112  0.11713836  0.60884510  1
  O  O160  1  0.11523993  0.60968469  0.13241136  1
  O  O161  1  0.11318935  0.62480569  0.62447314  1
  O  O162  1  0.63000416  0.11283431  0.11223767  1
  O  O163  1  0.61534840  0.11835733  0.61861657  1
  O  O164  1  0.60791973  0.62604721  0.11922119  1
  O  O165  1  0.62058945  0.61404257  0.62344503  1
  O  O166  1  0.37012358  0.41070541  0.34932255  1
  O  O167  1  0.35995297  0.37929329  0.87863237  1
  O  O168  1  0.38404379  0.87970970  0.37590288  1
  O  O169  1  0.38059879  0.88321168  0.88042362  1
  O  O170  1  0.86689375  0.38379932  0.36880078  1
  O  O171  1  0.88579567  0.37936659  0.88073934  1
  O  O172  1  0.87990893  0.87086152  0.38011347  1
  O  O173  1  0.90161932  0.87564138  0.87668450  1
  O  O174  1  0.25297427  0.00780647  0.36536621  1
  O  O175  1  0.25609595  -0.01225853  0.86612991  1
  O  O176  1  0.24910061  0.51763860  0.38384679  1
  O  O177  1  0.25703528  0.50993145  0.86284541  1
  O  O178  1  0.73582506  0.02332970  0.39083584  1
  O  O179  1  0.75526080  0.01003047  0.88091965  1
  O  O180  1  0.76078188  0.50617709  0.36900736  1
  O  O181  1  0.76444916  0.50333304  0.87400386  1
  O  O182  1  0.23280306  0.48983575  0.11822979  1
  O  O183  1  0.25524768  0.49012389  0.63100025  1
  O  O184  1  0.24882748  1.00603873  0.14222036  1
  O  O185  1  0.24308156  0.99385725  0.62891931  1
  O  O186  1  0.75261783  0.50689859  0.13608826  1
  O  O187  1  0.73636217  0.48405125  0.62391019  1
  O  O188  1  0.73634492  0.98365164  0.12097503  1
  O  O189  1  0.73930390  1.00867158  0.61719505  1
  O  O190  1  -0.00388407  0.35556695  0.25447624  1
  O  O191  1  0.00769355  0.36784877  0.75444905  1
  O  O192  1  -0.00664899  0.86485882  0.23198614  1
  O  O193  1  -0.00282599  0.86561827  0.72888773  1
  O  O194  1  0.50264759  0.36291829  0.23030326  1
  O  O195  1  0.50881596  0.36138436  0.73824817  1
  O  O196  1  0.50233922  0.86688340  0.25933579  1
  O  O197  1  0.49186006  0.87023454  0.76206520  1
  O  O198  1  0.51085044  0.15389961  0.23428784  1
  O  O199  1  0.48825187  0.12846279  0.74076911  1
  O  O200  1  0.49401506  0.64311839  0.26015672  1
  O  O201  1  0.48847071  0.63243390  0.74450009  1
  O  O202  1  0.98538258  0.16260983  0.29318797  1
  O  O203  1  0.98759541  0.13289798  0.76344995  1
  O  O204  1  0.98962321  0.62365789  0.24101681  1
  O  O205  1  1.00119537  0.61752674  0.73253692  1
  O  O206  1  0.35931777  0.25393880  0.00122200  1
  O  O207  1  0.36839839  0.24216204  0.51004761  1
  O  O208  1  0.37750155  0.76545736  -0.00336631  1
  O  O209  1  0.36782872  0.74395634  0.51314323  1
  O  O210  1  0.88237315  0.25930976  0.01158619  1
  O  O211  1  0.87962370  0.24497572  0.51960359  1
  O  O212  1  0.85809939  0.73915222  0.01242189  1
  O  O213  1  0.87949430  0.75072713  0.49181783  1
  O  O214  1  0.13878939  0.24675332  0.49310526  1
  O  O215  1  0.13213570  0.24004409  1.00203021  1
  O  O216  1  0.13160890  0.74998279  0.49674909  1
  O  O217  1  0.14634708  0.74796587  1.00864730  1
  O  O218  1  0.60799907  0.24622983  0.48273673  1
  O  O219  1  0.62081060  0.23859246  0.99766928  1
  O  O220  1  0.61814594  0.73306467  0.50010824  1
  O  O221  1  0.62870145  0.75141352  0.98669432  1
  O  O222  1  0.47702049  0.25428278  0.12044905  1
  O  O223  1  0.49106719  0.23928040  0.63126679  1
  O  O224  1  0.49512725  0.75519389  0.14115077  1
  O  O225  1  0.49164530  0.74664846  0.62945289  1
  O  O226  1  0.99424525  0.24538738  0.13349498  1
  O  O227  1  0.99255826  0.25451458  0.63833122  1
  O  O228  1  0.98703910  0.73827455  0.12202302  1
  O  O229  1  1.00460220  0.74139988  0.62415715  1
  O  O230  1  0.02736338  0.27530970  0.38990067  1
  O  O231  1  -0.00640611  0.26007032  0.86554662  1
  O  O232  1  0.01728964  0.73841869  0.37263641  1
  O  O233  1  0.00974412  0.76504700  0.91531899  1
  O  O234  1  0.49962132  0.25590283  0.35975131  1
  O  O235  1  0.49826106  0.24046146  0.85899403  1
  O  O236  1  0.49778788  0.76154160  0.36963558  1
  O  O237  1  0.50603143  0.75576093  0.87167583  1
  O  O238  1  0.24448542  0.13462075  0.48996703  1
  O  O239  1  0.24257014  0.13890835  0.99654779  1
  O  O240  1  0.24932259  0.64017746  0.49474004  1
  O  O241  1  0.26833399  0.63165443  0.98748056  1
  O  O242  1  0.73560082  0.15016481  0.50756856  1
  O  O243  1  0.73498183  0.12631514  0.98542030  1
  O  O244  1  0.74314428  0.61987947  0.49100433  1
  O  O245  1  0.74838672  0.62959103  0.98855316  1
  O  O246  1  0.24795233  0.36023893  0.00109594  1
  O  O247  1  0.25013202  0.36360370  0.50990939  1
  O  O248  1  0.26132730  0.86068091  -0.00476672  1
  O  O249  1  0.24822373  0.86153652  0.50854722  1
  O  O250  1  0.76898633  0.37018945  -0.00526751  1
  O  O251  1  0.74654235  0.35185951  0.50776685  1
  O  O252  1  0.74221062  0.85912154  0.01071820  1
  O  O253  1  0.76229322  0.86350135  0.48617446  1
  O  O254  1  0.12027475  0.49552540  0.24284017  1
  O  O255  1  0.13588131  0.48938499  0.75201864  1
  O  O256  1  0.13594498  1.01489697  0.24104606  1
  O  O257  1  0.13097233  1.01335944  0.73800900  1
  O  O258  1  0.63816512  0.50268071  0.25321038  1
  O  O259  1  0.62535931  0.48721968  0.74126543  1
  O  O260  1  0.61116796  0.98534735  0.23642208  1
  O  O261  1  0.62142930  1.00015195  0.73250046  1
  O  O262  1  0.36042886  -0.00378255  0.26147611  1
  O  O263  1  0.36269547  0.00418793  0.75527981  1
  O  O264  1  0.38135757  0.45958481  0.29185452  1
  O  O265  1  0.36164086  0.50794290  0.74779827  1
  O  O266  1  0.87909263  0.02193265  0.26759668  1
  O  O267  1  0.88640394  0.01460010  0.74612495  1
  O  O268  1  0.86635404  0.50518362  0.25353857  1
  O  O269  1  0.87858917  0.49575133  0.76153101  1
  O  O270  1  0.15610492  0.35950282  0.36289467  1
  O  O271  1  0.11557454  0.37872420  0.86291301  1
  O  O272  1  0.12825302  0.85736789  0.37804866  1
  O  O273  1  0.09516351  0.89489279  0.87723485  1
  O  O274  1  0.61425530  0.37598359  0.38075823  1
  O  O275  1  0.63377119  0.36588187  0.85718815  1
  O  O276  1  0.61329581  0.87493550  0.36762076  1
  O  O277  1  0.61529677  0.87087596  0.87363916  1
  O  O278  1  0.36653280  0.13958434  0.11721162  1
  O  O279  1  0.37852851  0.13110114  0.63170730  1
  O  O280  1  0.40304740  0.55117560  0.15865392  1
  O  O281  1  0.37610196  0.63347601  0.63431245  1
  O  O282  1  0.87374237  0.13376897  0.12192191  1
  O  O283  1  0.86826731  0.13354527  0.64042861  1
  O  O284  1  0.88149038  0.62624884  0.13172347  1
  O  O285  1  0.89670879  0.62279555  0.62549871  1
  O  O286  1  0.25588825  0.26102333  0.11615390  1
  O  O287  1  0.25681011  0.25414231  0.61817880  1
  O  O288  1  0.26217514  0.73074943  0.11223125  1
  O  O289  1  0.24975919  0.75483627  0.61766663  1
  O  O290  1  0.76131390  0.24769511  0.12066287  1
  O  O291  1  0.76147783  0.25506699  0.63109687  1
  O  O292  1  0.74858436  0.74883257  0.11908504  1
  O  O293  1  0.74502852  0.73972413  0.62199789  1
  O  O294  1  0.25713520  0.24546231  0.38141882  1
  O  O295  1  0.24570579  0.25082095  0.88221337  1
  O  O296  1  0.24115051  0.74781363  0.38744661  1
  O  O297  1  0.25400190  0.73630252  0.87799763  1
  O  O298  1  0.72091304  0.26479505  0.37294631  1
  O  O299  1  0.74830390  0.23555336  0.88004012  1
  O  O300  1  0.74649744  0.73239004  0.36613238  1
  O  O301  1  0.74682067  0.74291467  0.88338359  1
  O  O302  1  0.01146440  0.12082899  0.00043167  1
  O  O303  1  0.01777353  0.12087172  0.48417607  1
  O  O304  1  -0.00845063  0.60967761  0.01340879  1
  O  O305  1  0.00007184  0.60666951  0.50913458  1
  O  O306  1  0.50823412  0.11216753  -0.01129040  1
  O  O307  1  0.50346184  0.12412546  0.51031758  1
  O  O308  1  0.46636245  0.61114447  0.01845879  1
  O  O309  1  0.50873190  0.61653484  0.50797985  1
  O  O310  1  0.49825154  0.39065748  0.50801880  1
  O  O311  1  0.47453676  0.36123378  0.98564497  1
  O  O312  1  0.50499349  0.87161201  0.48866545  1
  O  O313  1  0.49043879  0.88230241  0.98949828  1
  O  O314  1  1.00057850  0.38666215  0.50728201  1
  O  O315  1  0.99438838  0.37762177  0.99179686  1
  O  O316  1  0.98780590  0.89203522  0.49362161  1
  O  O317  1  0.99714226  0.89776523  1.01541738  1
  O  O318  1  0.50258358  0.50542199  0.39109406  1
  O  O319  1  0.47697214  0.49597394  0.85333796  1
  O  O320  1  0.48904708  0.98383255  0.37634789  1
  O  O321  1  0.49004341  0.99214567  0.88015282  1
  O  O322  1  0.98747262  0.50328299  0.38302300  1
  O  O323  1  0.99653124  0.49209230  0.88123588  1
  O  O324  1  1.01376275  1.00002575  0.37843153  1
  O  O325  1  0.98511543  1.00234720  0.90116890  1
  O  O326  1  0.01595862  0.01041833  0.11725134  1
  O  O327  1  0.01161830  0.00306363  0.60522558  1
  O  O328  1  0.01098809  0.50148153  0.12140932  1
  O  O329  1  0.00587544  0.50141718  0.61171596  1
  O  O330  1  0.50645778  -0.00689175  0.11213871  1
  O  O331  1  0.49714706  0.00835587  0.62446334  1
  O  O332  1  0.54371438  0.46135747  0.09940221  1
  O  O333  1  0.50922834  0.50479402  0.62180779  1
  O  O334  1  0.25395512  0.37338320  0.22706772  1
  O  O335  1  0.24260168  0.38139544  0.74316180  1
  O  O336  1  0.24489311  0.88723506  0.25385472  1
  O  O337  1  0.24810621  0.88539526  0.73880726  1
  O  O338  1  0.74304944  0.38934199  0.24484986  1
  O  O339  1  0.74157715  0.37219581  0.73937489  1
  O  O340  1  0.73428344  0.86643262  0.23995343  1
  O  O341  1  0.76565777  0.87421178  0.75207696  1
  O  O342  1  0.24945346  0.12888340  0.25981169  1
  O  O343  1  0.25910295  0.11479905  0.74295916  1
  O  O344  1  0.25743649  0.62285558  0.26097638  1
  O  O345  1  0.25395345  0.62219007  0.75553338  1
  O  O346  1  0.74011169  0.11558900  0.24651864  1
  O  O347  1  0.76157326  0.12698777  0.76143321  1
  O  O348  1  0.75547455  0.61389190  0.25681423  1
  O  O349  1  0.75885194  0.61870506  0.76453795  1
  O  O350  1  0.36857679  0.11598185  0.37592314  1
  O  O351  1  0.37735296  0.11116805  0.86414656  1
  O  O352  1  0.35915349  0.63210016  0.37310340  1
  O  O353  1  0.36809809  0.61760676  0.86177604  1
  O  O354  1  0.84274592  0.18766913  0.38992293  1
  O  O355  1  0.86355843  0.12341967  0.86740519  1
  O  O356  1  0.86931664  0.61576975  0.36581228  1
  O  O357  1  0.86969429  0.61110041  0.88024551  1
  O  O358  1  0.13166911  0.38354642  0.12140340  1
  O  O359  1  0.13837596  0.36794731  0.63509983  1
  O  O360  1  0.13225913  0.90434440  0.11772915  1
  O  O361  1  0.13319397  0.88976584  0.61594532  1
  O  O362  1  0.60762962  0.40251333  0.10308262  1
  O  O363  1  0.63278217  0.37498772  0.63047215  1
  O  O364  1  0.62760461  0.87858614  0.12976087  1
  O  O365  1  0.63108397  0.89019639  0.62386634  1
  O  O366  1  0.11373216  0.24498914  0.25638014  1
  O  O367  1  0.11683266  0.25658222  0.74669106  1
  O  O368  1  0.12661368  0.75148170  0.25624624  1
  O  O369  1  0.10143855  0.74600338  0.75913509  1
  O  O370  1  0.61506548  0.26462115  0.25870198  1
  O  O371  1  0.61468580  0.25122474  0.74585411  1
  O  O372  1  0.61180705  0.75874088  0.25320686  1
  O  O373  1  0.61645630  0.76101587  0.75746008  1
  O  O374  1  0.37970766  0.25454779  0.23415871  1
  O  O375  1  0.37771857  0.24003898  0.74214472  1
  O  O376  1  0.38293428  0.75640183  0.25214655  1
  O  O377  1  0.37652278  0.74369728  0.74346160  1
  O  O378  1  0.87928375  0.25665750  0.22889936  1
  O  O379  1  0.88385422  0.24150512  0.74502651  1
  O  O380  1  0.86927170  0.73336120  0.24038575  1
  O  O381  1  0.91100243  0.73746922  0.77478595  1
  O  O382  1  0.38846912  0.50660329  0.50575514  1
  O  O383  1  0.36224749  0.48102619  0.98353099  1
  O  O384  1  0.37197369  1.00198404  0.48680503  1
  O  O385  1  0.37590152  0.99398970  0.99243928  1
  O  O386  1  0.87778535  0.49133789  0.48531243  1
  O  O387  1  0.88514553  0.48690923  0.99313702  1
  O  O388  1  0.89481533  1.02167142  0.48846212  1
  O  O389  1  0.88044235  1.01551843  1.02062473  1
  O  O390  1  0.13721769  0.01490354  0.01022962  1
  O  O391  1  0.12104908  0.00823122  0.50047222  1
  O  O392  1  0.11400734  0.49290250  0.00090440  1
  O  O393  1  0.11245865  0.49523047  0.48553246  1
  O  O394  1  0.61497252  0.00259189  0.00574089  1
  O  O395  1  0.61661802  0.00942735  0.51317019  1
  O  O396  1  0.61692348  0.51103127  -0.05852716  1
  O  O397  1  0.61997900  0.50639133  0.50984192  1
  O  O398  1  0.35883982  0.37351434  0.10311131  1
  O  O399  1  0.36356296  0.36107562  0.63535491  1
  O  O400  1  0.37903781  0.88279238  0.10926743  1
  O  O401  1  0.36132435  0.86466524  0.62972591  1
  O  O402  1  0.88189328  0.37744764  0.11078005  1
  O  O403  1  0.86449347  0.36512260  0.63346100  1
  O  O404  1  0.85658206  0.85587995  0.13167790  1
  O  O405  1  0.87027858  0.88555681  0.59084115  1
  O  O406  1  0.14028220  0.14240433  0.37970230  1
  O  O407  1  0.12432505  0.11656014  0.88996242  1
  O  O408  1  0.14168626  0.63921472  0.36901853  1
  O  O409  1  0.14264775  0.61690255  0.87797694  1
  O  O410  1  0.60827006  0.13299995  0.38599226  1
  O  O411  1  0.63417833  0.12098757  0.87669149  1
  O  O412  1  0.63466287  0.62355542  0.38628349  1
  O  O413  1  0.63575131  0.64199062  0.85938446  1
