# generated using pymatgen
data_V79Zn79O256
_symmetry_space_group_name_H-M   'P 1'
_cell_length_a   16.87107449
_cell_length_b   16.87424641
_cell_length_c   16.87013549
_cell_angle_alpha   90.01398573
_cell_angle_beta   89.99711012
_cell_angle_gamma   89.99366898
_symmetry_Int_Tables_number   1
_chemical_formula_structural   V79Zn79O256
_chemical_formula_sum   'V79 Zn79 O256'
_cell_volume   4802.70248480
_cell_formula_units_Z   1
loop_
 _symmetry_equiv_pos_site_id
 _symmetry_equiv_pos_as_xyz
  1  'x, y, z'
loop_
 _atom_site_type_symbol
 _atom_site_label
 _atom_site_symmetry_multiplicity
 _atom_site_fract_x
 _atom_site_fract_y
 _atom_site_fract_z
 _atom_site_occupancy
  V  V0  1  0.62771787  0.61543731  0.01501111  1
  V  V1  1  0.24783361  0.24910661  0.49767461  1
  V  V2  1  0.25462868  0.62469660  0.87430934  1
  V  V3  1  0.26143037  0.49947928  0.75481014  1
  V  V4  1  0.87898831  0.48361226  0.37146150  1
  V  V5  1  0.12350330  0.63283410  -0.00202968  1
  V  V6  1  0.38134614  0.61092573  0.24915599  1
  V  V7  1  0.62425343  0.12318402  0.00131855  1
  V  V8  1  0.75468189  0.62253259  0.87755621  1
  V  V9  1  0.25636923  0.26074261  -0.00787763  1
  V  V10  1  0.62495065  0.12181647  0.50004255  1
  V  V11  1  0.38247536  -0.01734671  0.88202415  1
  V  V12  1  0.88705690  0.25236735  0.13808468  1
  V  V13  1  0.62453930  0.37715312  0.75317114  1
  V  V14  1  0.49949550  0.25297785  0.25458297  1
  V  V15  1  0.00564280  0.86764988  0.37222997  1
  V  V16  1  0.11016120  0.25639142  0.87607015  1
  V  V17  1  0.75380329  0.49857672  0.75479484  1
  V  V18  1  0.01140175  0.74287740  0.24604717  1
  V  V19  1  0.75036395  0.87368986  0.62380698  1
  V  V20  1  0.25338796  0.87517960  0.12340516  1
  V  V21  1  0.62406719  0.00093981  0.62723742  1
  V  V22  1  0.37404591  -0.00330025  0.37715725  1
  V  V23  1  0.50338709  0.49736435  0.48736828  1
  V  V24  1  0.12758601  -0.01434791  0.62864951  1
  V  V25  1  -0.00140106  -0.00060995  0.50394653  1
  V  V26  1  0.12449737  0.50441251  0.13007188  1
  V  V27  1  0.50179476  0.12197324  0.12114727  1
  V  V28  1  0.87166572  0.74841939  0.62534560  1
  V  V29  1  -0.00038035  0.48561403  0.49334797  1
  V  V30  1  0.87278307  0.86938774  0.50057414  1
  V  V31  1  0.12268272  0.87900519  0.24621496  1
  V  V32  1  0.88291981  0.38123586  -0.01419261  1
  V  V33  1  0.00450422  0.62504778  0.61450569  1
  V  V34  1  0.87902747  0.62117852  0.75357904  1
  V  V35  1  0.87005800  0.00257266  0.36175161  1
  V  V36  1  0.25447313  0.75616259  -0.00490299  1
  V  V37  1  0.10781660  0.25118287  0.37218670  1
  V  V38  1  -0.00378840  0.86608779  0.87536673  1
  V  V39  1  0.11428625  0.37739690  0.75749918  1
  V  V40  1  0.24960101  0.60338364  0.36604518  1
  V  V41  1  0.26602936  0.86783524  0.62376765  1
  V  V42  1  0.11906098  0.12203636  0.50503828  1
  V  V43  1  0.24595983  0.00169419  0.23957478  1
  V  V44  1  0.37387694  0.12654165  0.24697064  1
  V  V45  1  0.37298425  0.24269843  0.63028835  1
  V  V46  1  0.00009203  0.11657739  0.13109509  1
  V  V47  1  0.25777650  0.75496505  0.48714209  1
  V  V48  1  0.37861560  0.37749966  0.48703019  1
  V  V49  1  0.75370403  0.00005256  0.75385617  1
  V  V50  1  0.62487591  0.37982412  0.24701224  1
  V  V51  1  0.37331006  0.25813007  0.12118922  1
  V  V52  1  0.49539914  -0.00289583  0.49864119  1
  V  V53  1  0.25089976  0.37750295  0.62692567  1
  V  V54  1  0.64187109  0.87382446  0.24687350  1
  V  V55  1  0.49317273  0.50163071  0.01174413  1
  V  V56  1  0.62320705  0.25670297  0.37578031  1
  V  V57  1  0.75221463  0.25379198  0.50310154  1
  V  V58  1  0.75385883  0.12352404  0.87275408  1
  V  V59  1  0.50179099  0.86505864  0.36326331  1
  V  V60  1  0.13018790  0.12228460  0.00124319  1
  V  V61  1  0.89386879  0.12386691  0.75025197  1
  V  V62  1  0.75212277  0.37064394  0.62446491  1
  V  V63  1  -0.01028531  0.00416651  -0.01601498  1
  V  V64  1  0.38151742  0.63919505  0.74517444  1
  V  V65  1  0.48525755  0.38513992  0.87963149  1
  V  V66  1  0.61801821  0.75473162  0.87287959  1
  V  V67  1  0.38571937  0.74650911  0.13444867  1
  V  V68  1  0.87096627  0.62257670  0.25184243  1
  V  V69  1  0.88214052  0.75764151  0.12197220  1
  V  V70  1  0.11848775  0.36659615  0.25085894  1
  V  V71  1  0.75315536  0.25404120  -0.00224210  1
  V  V72  1  0.49566850  0.24604766  0.75239717  1
  V  V73  1  0.75034951  0.38328789  0.12754220  1
  V  V74  1  0.75509532  0.76166546  0.00679288  1
  V  V75  1  0.75317053  0.12003877  0.36375765  1
  V  V76  1  0.24573090  0.12517898  0.37204284  1
  V  V77  1  0.00062071  0.50451580  -0.01374227  1
  V  V78  1  0.88760358  0.24451986  0.62709170  1
  Zn  Zn79  1  0.12650285  0.50048040  0.62228053  1
  Zn  Zn80  1  0.01124050  0.74439451  0.75505126  1
  Zn  Zn81  1  0.29027593  0.08954689  0.80905625  1
  Zn  Zn82  1  0.73577543  0.50883659  0.25000601  1
  Zn  Zn83  1  0.25708486  0.38452892  0.12921835  1
  Zn  Zn84  1  0.12278767  0.62956718  0.48107455  1
  Zn  Zn85  1  0.64309641  0.00028699  0.13215060  1
  Zn  Zn86  1  0.49318310  0.12192013  0.63059375  1
  Zn  Zn87  1  0.49661292  0.61473764  0.62736869  1
  Zn  Zn88  1  0.13634582  0.86267374  0.76467572  1
  Zn  Zn89  1  0.62144594  0.25204576  0.87699802  1
  Zn  Zn90  1  0.61320611  0.87431138  0.75747341  1
  Zn  Zn91  1  0.62468565  0.50628193  0.62023791  1
  Zn  Zn92  1  0.50061451  -0.03003260  -0.00038204  1
  Zn  Zn93  1  0.62596593  0.65376689  0.49990154  1
  Zn  Zn94  1  0.18584493  0.19206866  0.18247067  1
  Zn  Zn95  1  0.18126086  0.19105420  0.68674100  1
  Zn  Zn96  1  0.19411299  0.68438719  0.18544231  1
  Zn  Zn97  1  0.19305436  0.69298177  0.68266767  1
  Zn  Zn98  1  0.69089411  0.19284064  0.18311157  1
  Zn  Zn99  1  0.68511348  0.18860397  0.69033750  1
  Zn  Zn100  1  0.68914754  0.69523064  0.19493572  1
  Zn  Zn101  1  0.68116785  0.68637036  0.68461685  1
  Zn  Zn102  1  0.30147643  0.31570215  0.30734247  1
  Zn  Zn103  1  0.31074960  0.31302578  0.81381036  1
  Zn  Zn104  1  0.31471363  0.81064507  0.31060344  1
  Zn  Zn105  1  0.31488900  0.81994954  0.81056005  1
  Zn  Zn106  1  0.80990510  0.31186334  0.31558432  1
  Zn  Zn107  1  0.81808438  0.30821156  0.80901027  1
  Zn  Zn108  1  0.82213577  0.81157129  0.30995379  1
  Zn  Zn109  1  0.81773991  0.81257665  0.81650846  1
  Zn  Zn110  1  0.18311676  0.43587636  0.43580109  1
  Zn  Zn111  1  0.19089206  0.44193960  0.94004224  1
  Zn  Zn112  1  0.18897933  0.93364893  0.43688029  1
  Zn  Zn113  1  0.18749785  0.93886262  0.93274808  1
  Zn  Zn114  1  0.69183685  0.52713552  0.43160136  1
  Zn  Zn115  1  0.68744994  0.43778209  0.93816901  1
  Zn  Zn116  1  0.67763974  0.81712580  0.43321830  1
  Zn  Zn117  1  0.68676533  0.93886355  0.94117632  1
  Zn  Zn118  1  0.31875691  0.06747541  0.04618110  1
  Zn  Zn119  1  0.30599163  0.05991059  0.56297653  1
  Zn  Zn120  1  0.31032874  0.56593521  0.06525639  1
  Zn  Zn121  1  0.31558153  0.56748788  0.55795925  1
  Zn  Zn122  1  0.82116946  0.06999550  0.05690823  1
  Zn  Zn123  1  0.81363416  0.06294526  0.56227669  1
  Zn  Zn124  1  0.82113246  0.56797767  0.06791983  1
  Zn  Zn125  1  0.81976024  0.55216723  0.56648548  1
  Zn  Zn126  1  0.44291900  0.43939147  0.19078182  1
  Zn  Zn127  1  0.43837381  0.43574372  0.68310112  1
  Zn  Zn128  1  0.43651741  0.93759091  0.18447645  1
  Zn  Zn129  1  0.42843370  0.94601196  0.69640219  1
  Zn  Zn130  1  0.94441871  0.43947293  0.17890220  1
  Zn  Zn131  1  0.93446907  0.43662845  0.68334972  1
  Zn  Zn132  1  0.81530038  0.94323049  0.18074877  1
  Zn  Zn133  1  0.94144087  0.93687801  0.69467367  1
  Zn  Zn134  1  0.05907501  0.05877957  0.31488006  1
  Zn  Zn135  1  0.09305884  0.06877212  0.80737200  1
  Zn  Zn136  1  0.06231024  0.56120558  0.31155414  1
  Zn  Zn137  1  0.07078344  0.56469696  0.81160202  1
  Zn  Zn138  1  0.56710392  0.05880233  0.31137362  1
  Zn  Zn139  1  0.55993431  0.06108665  0.81891815  1
  Zn  Zn140  1  0.55865299  0.57211744  0.31827696  1
  Zn  Zn141  1  0.56471945  0.56594915  0.81795025  1
  Zn  Zn142  1  0.43471025  0.18606668  0.43890038  1
  Zn  Zn143  1  0.43591099  0.18567046  0.93058690  1
  Zn  Zn144  1  0.43170095  0.68049218  0.43466453  1
  Zn  Zn145  1  0.43769392  0.68683575  0.94316683  1
  Zn  Zn146  1  0.93343205  0.18466704  0.44039244  1
  Zn  Zn147  1  0.93815899  0.18806972  0.93796485  1
  Zn  Zn148  1  0.80921414  0.67579754  0.43541362  1
  Zn  Zn149  1  0.93764485  0.68692146  0.93879644  1
  Zn  Zn150  1  0.06429495  0.31772725  0.06246159  1
  Zn  Zn151  1  0.06661594  0.31127104  0.56465363  1
  Zn  Zn152  1  0.06393639  0.82322616  0.06117948  1
  Zn  Zn153  1  0.06677097  0.80374504  0.55483821  1
  Zn  Zn154  1  0.56122648  0.31475606  0.06359348  1
  Zn  Zn155  1  0.56185000  0.31540838  0.56414074  1
  Zn  Zn156  1  0.57260172  0.80597001  0.07356187  1
  Zn  Zn157  1  0.54555511  0.82247725  0.57004864  1
  O  O158  1  0.10943278  0.14290741  0.10930205  1
  O  O159  1  0.12803283  0.11206969  0.60910409  1
  O  O160  1  0.13082596  0.61353151  0.11414742  1
  O  O161  1  0.10866378  0.61980807  0.63193460  1
  O  O162  1  0.61841404  0.12912390  0.11802812  1
  O  O163  1  0.62505127  0.11725568  0.61864084  1
  O  O164  1  0.63398617  0.62846096  0.11356929  1
  O  O165  1  0.61360140  0.62541328  0.61822628  1
  O  O166  1  0.36720584  0.36578854  0.38860866  1
  O  O167  1  0.38619832  0.37844969  0.87454022  1
  O  O168  1  0.38247867  0.89114005  0.36687990  1
  O  O169  1  0.38547957  0.88081970  0.87273314  1
  O  O170  1  0.88673095  0.38442224  0.36261830  1
  O  O171  1  0.86982622  0.37659077  0.88685619  1
  O  O172  1  0.88388426  0.88562195  0.38325681  1
  O  O173  1  0.89360278  0.87862814  0.87358003  1
  O  O174  1  0.25582300  0.00507823  0.36635848  1
  O  O175  1  0.27048007  -0.00787203  0.88090125  1
  O  O176  1  0.25242401  0.50379930  0.37417958  1
  O  O177  1  0.24778589  0.51067201  0.86677011  1
  O  O178  1  0.76719425  0.00653613  0.37748533  1
  O  O179  1  0.74558604  0.01112072  0.86664179  1
  O  O180  1  0.77395679  0.49108694  0.36228476  1
  O  O181  1  0.74728628  0.50857487  0.86523983  1
  O  O182  1  0.23096506  0.49576352  0.10674999  1
  O  O183  1  0.24924804  0.49089576  0.63084105  1
  O  O184  1  0.26206093  0.99356166  0.13372543  1
  O  O185  1  0.23524519  0.98638865  0.61393365  1
  O  O186  1  0.76118659  0.48715740  0.13132650  1
  O  O187  1  0.75038232  0.48604162  0.63490291  1
  O  O188  1  0.75508424  1.01344790  0.12243342  1
  O  O189  1  0.74362427  0.99660420  0.63345073  1
  O  O190  1  0.01818979  0.38014230  0.24540961  1
  O  O191  1  0.01576155  0.38496751  0.74631771  1
  O  O192  1  0.01287714  0.86859049  0.25346808  1
  O  O193  1  0.00216371  0.86940996  0.76308725  1
  O  O194  1  0.50908047  0.36044676  0.24413025  1
  O  O195  1  0.50544061  0.37156972  0.76066563  1
  O  O196  1  0.49920892  0.87746124  0.26020940  1
  O  O197  1  0.49877096  0.85306709  0.72565017  1
  O  O198  1  0.49610173  0.13350165  0.24067872  1
  O  O199  1  0.50956976  0.14261271  0.75079950  1
  O  O200  1  0.48224093  0.62104638  0.25269550  1
  O  O201  1  0.48471506  0.61903102  0.75406486  1
  O  O202  1  1.00772320  0.11633656  0.23117187  1
  O  O203  1  0.99165309  0.11901001  0.75613217  1
  O  O204  1  0.99895492  0.64007236  0.25162886  1
  O  O205  1  0.99119021  0.61858650  0.74361161  1
  O  O206  1  0.36341259  0.24597631  0.00629918  1
  O  O207  1  0.36859398  0.25729356  0.50782700  1
  O  O208  1  0.35995866  0.74065238  0.01355471  1
  O  O209  1  0.35863215  0.74217969  0.49941802  1
  O  O210  1  0.86974473  0.26404546  0.00124671  1
  O  O211  1  0.86419129  0.23856201  0.51609570  1
  O  O212  1  0.86808465  0.74237003  0.01243868  1
  O  O213  1  0.87428425  0.75993663  0.51304157  1
  O  O214  1  0.12739820  0.24218169  0.49402706  1
  O  O215  1  0.13332263  0.25562849  0.98977379  1
  O  O216  1  0.14453223  0.73832523  0.50733670  1
  O  O217  1  0.13644814  0.74057085  1.01187311  1
  O  O218  1  0.62905295  0.24202546  0.49581419  1
  O  O219  1  0.63979149  0.24691177  1.00172634  1
  O  O220  1  0.62086490  0.76493672  0.51421893  1
  O  O221  1  0.64259318  0.73680638  0.99597276  1
  O  O222  1  0.49383715  0.24378667  0.13209173  1
  O  O223  1  0.48988399  0.25134276  0.63410864  1
  O  O224  1  0.48423287  0.74733131  0.12189675  1
  O  O225  1  0.49483944  0.79311134  0.66808370  1
  O  O226  1  0.99002528  0.25029244  0.12070059  1
  O  O227  1  0.98664885  0.25116141  0.62075080  1
  O  O228  1  0.99345240  0.75697330  0.13313286  1
  O  O229  1  0.99103218  0.73687827  0.62382375  1
  O  O230  1  0.00833115  0.24643128  0.38085685  1
  O  O231  1  0.01102385  0.25883047  0.87946989  1
  O  O232  1  -0.00623147  0.76389631  0.35518413  1
  O  O233  1  0.00101950  0.76134930  0.88089142  1
  O  O234  1  0.50867159  0.23917957  0.36407335  1
  O  O235  1  0.49989549  0.26468845  0.86986578  1
  O  O236  1  0.48834251  0.76810131  0.38085672  1
  O  O237  1  0.51999821  0.74087475  0.88281841  1
  O  O238  1  0.23934685  0.12880479  0.49191779  1
  O  O239  1  0.23513392  0.14091968  1.00967959  1
  O  O240  1  0.25275185  0.62764421  0.48158834  1
  O  O241  1  0.24367501  0.63440889  0.99293089  1
  O  O242  1  0.74086841  0.13085717  0.49584814  1
  O  O243  1  0.74686226  0.13592128  0.99092133  1
  O  O244  1  0.74672935  0.60897127  0.50262720  1
  O  O245  1  0.74637726  0.62203910  0.99376269  1
  O  O246  1  0.24901296  0.36360980  0.00306574  1
  O  O247  1  0.25456346  0.37041670  0.50845875  1
  O  O248  1  0.24200696  0.86257993  0.00842128  1
  O  O249  1  0.24891501  0.86416755  0.50518178  1
  O  O250  1  0.75989037  0.37328306  0.00610956  1
  O  O251  1  0.74657923  0.35933633  0.51332887  1
  O  O252  1  0.75035303  0.86054228  -0.00048199  1
  O  O253  1  0.76113796  0.88122454  0.51636844  1
  O  O254  1  0.12082736  0.49624383  0.23426002  1
  O  O255  1  0.13703812  0.48943685  0.74825380  1
  O  O256  1  0.13750960  0.99422443  0.25261694  1
  O  O257  1  0.11322970  0.98436483  0.72890906  1
  O  O258  1  0.61991857  0.48356282  0.25961653  1
  O  O259  1  0.63569540  0.49363136  0.74825135  1
  O  O260  1  0.62278682  0.98653037  0.24744652  1
  O  O261  1  0.63171780  0.99894288  0.74411952  1
  O  O262  1  0.36625561  0.00800304  0.25611781  1
  O  O263  1  0.38138904  0.01144675  0.77208719  1
  O  O264  1  0.36940017  0.51058892  0.23630337  1
  O  O265  1  0.36431320  0.50150160  0.74764309  1
  O  O266  1  0.88115141  -0.00581491  0.26399218  1
  O  O267  1  0.86651106  0.01572065  0.74135817  1
  O  O268  1  0.89126457  0.51184799  0.25567462  1
  O  O269  1  0.86464456  0.50769860  0.74414241  1
  O  O270  1  0.12784127  0.36492509  0.36308956  1
  O  O271  1  0.12905692  0.37098092  0.86621998  1
  O  O272  1  0.11600513  0.88079582  0.36306261  1
  O  O273  1  0.10906183  0.88302432  0.87510337  1
  O  O274  1  0.63095838  0.35687776  0.36561904  1
  O  O275  1  0.62253324  0.37398421  0.86443345  1
  O  O276  1  0.60932322  0.87988801  0.36331420  1
  O  O277  1  0.63213953  0.86100888  0.87520711  1
  O  O278  1  0.38219988  0.13588868  0.12726821  1
  O  O279  1  0.37072034  0.13783596  0.62131506  1
  O  O280  1  0.36462941  0.63733854  0.13741609  1
  O  O281  1  0.37659360  0.62339982  0.63970091  1
  O  O282  1  0.88951375  0.14341211  0.11681750  1
  O  O283  1  0.87337999  0.13372035  0.63684445  1
  O  O284  1  0.88035291  0.63590592  0.13912835  1
  O  O285  1  0.88289403  0.62945191  0.63221701  1
  O  O286  1  0.25890663  0.25306798  0.11520155  1
  O  O287  1  0.25251312  0.25643978  0.62099055  1
  O  O288  1  0.25580201  0.75820485  0.11780969  1
  O  O289  1  0.25646587  0.76215795  0.61468205  1
  O  O290  1  0.76442419  0.25682952  0.11492770  1
  O  O291  1  0.75333329  0.25269248  0.62105563  1
  O  O292  1  0.76190555  0.74495071  0.11290200  1
  O  O293  1  0.76132391  0.76085843  0.63726106  1
  O  O294  1  0.23892693  0.24214181  0.37940501  1
  O  O295  1  0.24653922  0.25264048  0.88795816  1
  O  O296  1  0.24892183  0.75363678  0.38354014  1
  O  O297  1  0.25451553  0.74855818  0.89050095  1
  O  O298  1  0.74614023  0.24201430  0.38535396  1
  O  O299  1  0.74994556  0.24419661  0.88253149  1
  O  O300  1  0.75816331  0.75925679  0.38289523  1
  O  O301  1  0.75296477  0.74153986  0.88913456  1
  O  O302  1  0.00944364  0.12254034  0.00130996  1
  O  O303  1  0.00715760  0.11142477  0.49475739  1
  O  O304  1  0.00807270  0.61483595  -0.00487869  1
  O  O305  1  0.00183734  0.61857881  0.51250212  1
  O  O306  1  0.51415460  0.14058462  0.00798176  1
  O  O307  1  0.50933600  0.11994964  0.50223118  1
  O  O308  1  0.51760220  0.61364492  -0.00418196  1
  O  O309  1  0.49138589  0.60625356  0.50209123  1
  O  O310  1  0.48475356  0.37514268  0.50076292  1
  O  O311  1  0.50745451  0.38526059  0.98806467  1
  O  O312  1  0.50162265  0.89307555  0.48630706  1
  O  O313  1  0.51400212  0.86072589  0.99884818  1
  O  O314  1  1.00374661  0.38674443  0.50453436  1
  O  O315  1  0.98934177  0.38381603  0.99746829  1
  O  O316  1  0.99402754  0.87648804  0.49156397  1
  O  O317  1  1.00600040  0.89456724  0.99133160  1
  O  O318  1  0.49585770  0.49525856  0.38819768  1
  O  O319  1  0.50466691  0.48868702  0.88172336  1
  O  O320  1  0.49044250  1.00125683  0.38014951  1
  O  O321  1  0.49469096  0.99992504  0.88454165  1
  O  O322  1  0.99584933  0.50323388  0.38606264  1
  O  O323  1  1.00524607  0.50072704  0.88634204  1
  O  O324  1  0.99130087  0.99193780  0.38388877  1
  O  O325  1  1.01251350  1.00756999  0.88310604  1
  O  O326  1  -0.00155320  0.01834122  0.10483727  1
  O  O327  1  0.01005666  -0.01097369  0.61122713  1
  O  O328  1  0.01683053  0.49646217  0.10772779  1
  O  O329  1  -0.00688962  0.50798893  0.61164474  1
  O  O330  1  0.49611974  0.01662797  0.12068940  1
  O  O331  1  0.50623449  0.00181639  0.61991985  1
  O  O332  1  0.50869763  0.48894420  0.10995209  1
  O  O333  1  0.50384660  0.49429630  0.61385148  1
  O  O334  1  0.23159777  0.37504228  0.24340940  1
  O  O335  1  0.24604801  0.38140108  0.74425595  1
  O  O336  1  0.24330875  0.88249714  0.24450994  1
  O  O337  1  0.24947466  0.87071875  0.72984722  1
  O  O338  1  0.74162592  0.37247041  0.24209221  1
  O  O339  1  0.74492336  0.37904250  0.74750789  1
  O  O340  1  0.74681373  0.87924192  0.25344078  1
  O  O341  1  0.75749369  0.88730399  0.74299925  1
  O  O342  1  0.25125574  0.11963903  0.25019451  1
  O  O343  1  0.19654225  0.11123916  0.76000649  1
  O  O344  1  0.25734521  0.62604010  0.25999179  1
  O  O345  1  0.25856598  0.61825662  0.75416524  1
  O  O346  1  0.74614619  0.13293056  0.26483402  1
  O  O347  1  0.74990162  0.11809966  0.75777408  1
  O  O348  1  0.76491190  0.62261168  0.24512313  1
  O  O349  1  0.75775687  0.61754372  0.75535899  1
  O  O350  1  0.36625886  0.12056932  0.36706589  1
  O  O351  1  0.36807294  0.11172646  0.88667999  1
  O  O352  1  0.36297120  0.62496266  0.35895935  1
  O  O353  1  0.36242708  0.63061414  0.86698840  1
  O  O354  1  0.86951168  0.11161410  0.37927996  1
  O  O355  1  0.86603934  0.13540898  0.85999488  1
  O  O356  1  0.87822188  0.62105644  0.35697937  1
  O  O357  1  0.86690189  0.62892589  0.86553923  1
  O  O358  1  0.12761460  0.38221530  0.13309066  1
  O  O359  1  0.13558543  0.37215232  0.63753229  1
  O  O360  1  0.13907856  0.87549270  0.13505918  1
  O  O361  1  0.13003958  0.88160188  0.61579976  1
  O  O362  1  0.63835750  0.36588676  0.13457646  1
  O  O363  1  0.63518413  0.37170568  0.63787080  1
  O  O364  1  0.62762947  0.87980616  0.14035545  1
  O  O365  1  0.63511676  0.88873752  0.63076718  1
  O  O366  1  0.12279859  0.25737296  0.25618602  1
  O  O367  1  0.12728590  0.26602410  0.76419126  1
  O  O368  1  0.11558363  0.75657308  0.24076564  1
  O  O369  1  0.12368778  0.75023169  0.74780194  1
  O  O370  1  0.61816550  0.25372334  0.25599848  1
  O  O371  1  0.61611235  0.26094918  0.75169998  1
  O  O372  1  0.62809662  0.77104726  0.24990171  1
  O  O373  1  0.63566883  0.75079916  0.76897589  1
  O  O374  1  0.38009417  0.24579436  0.24444146  1
  O  O375  1  0.38182442  0.25544935  0.74233695  1
  O  O376  1  0.37295856  0.74315283  0.23915737  1
  O  O377  1  0.37062307  0.73733050  0.75176413  1
  O  O378  1  0.87498928  0.25554614  0.23670825  1
  O  O379  1  0.87448114  0.23650118  0.73907797  1
  O  O380  1  0.88536919  0.74168122  0.23992631  1
  O  O381  1  0.88045232  0.73792731  0.74282298  1
  O  O382  1  0.38000324  0.48209518  0.50507359  1
  O  O383  1  0.39352857  0.51325821  1.00488397  1
  O  O384  1  0.38291389  1.01332139  0.48834639  1
  O  O385  1  0.38392688  0.99359026  0.99391887  1
  O  O386  1  0.88718288  0.49950474  0.48363269  1
  O  O387  1  0.88782942  0.49225358  1.00464035  1
  O  O388  1  0.88286120  0.98928095  0.50136291  1
  O  O389  1  0.88999962  1.01404439  0.98470470  1
  O  O390  1  0.12653541  0.02068886  -0.00187673  1
  O  O391  1  0.11677715  0.00376297  0.50061402  1
  O  O392  1  0.11517947  0.50748622  0.00119949  1
  O  O393  1  0.11169050  0.50446333  0.50069163  1
  O  O394  1  0.62507313  0.01548706  0.00434456  1
  O  O395  1  0.61568144  0.01057565  0.51136386  1
  O  O396  1  0.62489699  0.51119493  0.00007963  1
  O  O397  1  0.60860253  0.48317418  0.50111611  1
  O  O398  1  0.37748186  0.36145648  0.12997067  1
  O  O399  1  0.36364048  0.36351299  0.61982979  1
  O  O400  1  0.36346183  0.86201406  0.13262593  1
  O  O401  1  0.36371898  0.88854391  0.61888228  1
  O  O402  1  0.87139287  0.36667620  0.11692716  1
  O  O403  1  0.86359805  0.35684739  0.63638048  1
  O  O404  1  0.87264577  0.85632052  0.13101163  1
  O  O405  1  0.87249104  0.86836105  0.62146872  1
  O  O406  1  0.12659885  0.13021228  0.38140330  1
  O  O407  1  0.12037092  0.14669443  0.89231471  1
  O  O408  1  0.14262880  0.62078155  0.36644534  1
  O  O409  1  0.13822849  0.62569328  0.88575251  1
  O  O410  1  0.63286005  0.13008048  0.38367431  1
  O  O411  1  0.63502201  0.13096409  0.88411579  1
  O  O412  1  0.63153807  0.61607178  0.38859201  1
  O  O413  1  0.63949599  0.63389136  0.88175983  1
