# generated using pymatgen
data_V79Zn79O256
_symmetry_space_group_name_H-M   'P 1'
_cell_length_a   16.88969972
_cell_length_b   16.91522729
_cell_length_c   16.90646783
_cell_angle_alpha   89.65659162
_cell_angle_beta   89.88034003
_cell_angle_gamma   90.01944595
_symmetry_Int_Tables_number   1
_chemical_formula_structural   V79Zn79O256
_chemical_formula_sum   'V79 Zn79 O256'
_cell_volume   4829.96377944
_cell_formula_units_Z   1
loop_
 _symmetry_equiv_pos_site_id
 _symmetry_equiv_pos_as_xyz
  1  'x, y, z'
loop_
 _atom_site_type_symbol
 _atom_site_label
 _atom_site_symmetry_multiplicity
 _atom_site_fract_x
 _atom_site_fract_y
 _atom_site_fract_z
 _atom_site_occupancy
  V  V0  1  0.48643467  -0.00663166  0.50276160  1
  V  V1  1  0.15010450  0.37594846  0.74043230  1
  V  V2  1  0.12574569  0.23833545  0.38218149  1
  V  V3  1  0.63009106  -0.00073707  0.61676822  1
  V  V4  1  0.75766637  0.37310290  0.62164876  1
  V  V5  1  0.87621469  0.12443874  0.75119259  1
  V  V6  1  0.86852066  -0.00068746  0.38440650  1
  V  V7  1  0.12714989  0.87454621  0.25535624  1
  V  V8  1  0.24309774  0.87797688  0.62687171  1
  V  V9  1  0.12537472  0.74512258  0.38207756  1
  V  V10  1  0.88008788  0.74847720  0.61858156  1
  V  V11  1  0.24756471  0.12029012  0.87504552  1
  V  V12  1  0.24871276  0.26017100  0.01792497  1
  V  V13  1  0.88225321  0.38591175  -0.01239528  1
  V  V14  1  0.37175694  0.74397806  0.11326066  1
  V  V15  1  0.86748017  0.25037855  0.12012840  1
  V  V16  1  0.12243365  0.00050910  0.12756032  1
  V  V17  1  0.25420394  0.86986707  0.11537878  1
  V  V18  1  0.24098351  0.49626236  0.24572407  1
  V  V19  1  0.24373446  0.61999958  0.89662855  1
  V  V20  1  0.00930606  0.61909769  0.61645969  1
  V  V21  1  0.63370309  0.37462365  0.24839470  1
  V  V22  1  0.27407760  0.24137533  0.50782718  1
  V  V23  1  0.61542064  -0.00352826  0.14113046  1
  V  V24  1  0.36843574  0.61503016  0.75256425  1
  V  V25  1  0.71919415  0.12996776  0.38243295  1
  V  V26  1  0.61654484  0.37135855  0.75800197  1
  V  V27  1  -0.00454030  0.25216089  0.25124123  1
  V  V28  1  0.25413779  0.75123253  0.49594327  1
  V  V29  1  0.76152034  0.79903812  0.05944367  1
  V  V30  1  -0.00026497  0.25460431  0.74842778  1
  V  V31  1  0.49193544  -0.00834436  0.00543354  1
  V  V32  1  0.73278518  0.24855558  0.49985345  1
  V  V33  1  0.50365668  0.75463593  0.24652986  1
  V  V34  1  0.75423374  -0.00133290  0.75176305  1
  V  V35  1  0.11919674  0.12306250  0.00437319  1
  V  V36  1  0.37418426  0.50058070  0.37472634  1
  V  V37  1  0.50122358  0.50783110  -0.02490532  1
  V  V38  1  0.50330439  0.37806014  0.37038185  1
  V  V39  1  -0.01113465  0.87612088  0.38305140  1
  V  V40  1  -0.01467306  0.49136270  0.49899934  1
  V  V41  1  0.49570124  0.87011862  0.38711130  1
  V  V42  1  -0.00311742  0.89873657  0.90939663  1
  V  V43  1  0.62849695  0.50019093  0.62497068  1
  V  V44  1  0.75691754  0.49888430  0.75835461  1
  V  V45  1  0.48098279  0.25535161  0.25142464  1
  V  V46  1  0.00883899  0.12612806  0.62131607  1
  V  V47  1  0.50335005  0.86824756  0.87876228  1
  V  V48  1  -0.00468046  0.12029201  0.12335831  1
  V  V49  1  0.50462613  0.62803152  0.62319624  1
  V  V50  1  0.37051012  -0.01183930  0.88113690  1
  V  V51  1  0.01438439  0.75420411  0.75164614  1
  V  V52  1  0.48198898  0.14142118  0.12445738  1
  V  V53  1  0.88299884  0.62036358  0.75787098  1
  V  V54  1  0.00754217  0.00602615  0.49992708  1
  V  V55  1  0.38148708  0.76192346  0.61647186  1
  V  V56  1  0.14429140  0.49050922  0.61101069  1
  V  V57  1  0.37554842  0.62757423  0.24867692  1
  V  V58  1  -0.00301097  0.63409298  0.11832258  1
  V  V59  1  0.12830565  0.25108586  0.87319524  1
  V  V60  1  0.75486728  0.39143134  0.12380566  1
  V  V61  1  -0.00808406  0.75029560  0.25431371  1
  V  V62  1  0.50603305  0.75274250  0.75317224  1
  V  V63  1  0.75179966  0.12250705  0.87539974  1
  V  V64  1  0.75556419  0.60651782  0.37022712  1
  V  V65  1  0.61060269  0.51031458  0.12045498  1
  V  V66  1  0.87381709  0.60317151  0.25164656  1
  V  V67  1  0.86549326  0.12624540  0.25535916  1
  V  V68  1  0.75589071  0.75229632  0.49000215  1
  V  V69  1  0.49808817  0.49819791  0.49747719  1
  V  V70  1  0.74155664  0.64427676  0.87599857  1
  V  V71  1  0.73346430  -0.00030619  0.25748612  1
  V  V72  1  0.11516475  0.50222095  0.10848485  1
  V  V73  1  0.49728459  0.12002816  0.63186554  1
  V  V74  1  0.60690391  0.24969305  0.87266275  1
  V  V75  1  -0.01469099  0.37496572  0.37921542  1
  V  V76  1  0.26439157  0.00444481  0.26454065  1
  V  V77  1  0.75932912  0.87511702  0.61622180  1
  V  V78  1  0.62178904  0.12770903  0.00344259  1
  Zn  Zn79  1  -0.00024484  0.54247171  -0.03912594  1
  Zn  Zn80  1  0.24070865  0.61730341  0.38223894  1
  Zn  Zn81  1  0.12521905  0.37324263  0.24770762  1
  Zn  Zn82  1  0.63218039  0.75106792  0.36324366  1
  Zn  Zn83  1  0.62861946  0.62513944  0.48900325  1
  Zn  Zn84  1  0.87949386  0.25491892  0.61372827  1
  Zn  Zn85  1  0.12411124  -0.00109134  0.63262944  1
  Zn  Zn86  1  0.38088745  0.26873884  0.63406999  1
  Zn  Zn87  1  0.24153506  -0.01438601  0.76032194  1
  Zn  Zn88  1  0.01178789  0.39080489  0.87238328  1
  Zn  Zn89  1  0.63717152  0.86694239  0.75785593  1
  Zn  Zn90  1  0.74710253  0.25648200  -0.00539980  1
  Zn  Zn91  1  0.12927408  0.74868508  0.89693146  1
  Zn  Zn92  1  0.38558067  0.37882090  0.00114109  1
  Zn  Zn93  1  0.38046067  0.12300386  0.75521384  1
  Zn  Zn94  1  0.20441449  0.19829324  0.21505680  1
  Zn  Zn95  1  0.19478030  0.18928430  0.68634265  1
  Zn  Zn96  1  0.18662924  0.68287850  0.18594512  1
  Zn  Zn97  1  0.19047415  0.68405674  0.67495522  1
  Zn  Zn98  1  0.67856295  0.19082013  0.19024618  1
  Zn  Zn99  1  0.68063206  0.18757319  0.68530392  1
  Zn  Zn100  1  0.69111144  0.69627234  0.17060716  1
  Zn  Zn101  1  0.69376552  0.68772899  0.68916662  1
  Zn  Zn102  1  0.30477002  0.31792697  0.33210440  1
  Zn  Zn103  1  0.36659324  0.30938673  0.81696482  1
  Zn  Zn104  1  0.31509587  0.81667227  0.31172812  1
  Zn  Zn105  1  0.31347370  0.79915044  0.81173820  1
  Zn  Zn106  1  0.80543607  0.31025810  0.31880870  1
  Zn  Zn107  1  0.80662194  0.30871093  0.80984676  1
  Zn  Zn108  1  0.79296032  0.80259229  0.28117678  1
  Zn  Zn109  1  0.82863501  0.81667037  0.80798922  1
  Zn  Zn110  1  0.18585609  0.41795523  0.43279089  1
  Zn  Zn111  1  0.24484401  0.41914197  0.89762057  1
  Zn  Zn112  1  0.19095385  0.93421034  0.44270833  1
  Zn  Zn113  1  0.17554927  0.93232543  0.93810884  1
  Zn  Zn114  1  0.68414797  0.43212608  0.44022917  1
  Zn  Zn115  1  0.68600895  0.44075724  0.94029791  1
  Zn  Zn116  1  0.68047839  0.93101021  0.43074000  1
  Zn  Zn117  1  0.68101019  0.94171669  0.94110138  1
  Zn  Zn118  1  0.30415975  0.06115594  0.06662110  1
  Zn  Zn119  1  0.31149087  0.06499391  0.55283925  1
  Zn  Zn120  1  0.32194594  0.53622055  0.06553176  1
  Zn  Zn121  1  0.31800877  0.57076023  0.56046356  1
  Zn  Zn122  1  0.80029489  0.05925521  0.06991171  1
  Zn  Zn123  1  0.81230181  0.07290825  0.56187400  1
  Zn  Zn124  1  0.82082827  0.57254174  0.05457293  1
  Zn  Zn125  1  0.81425883  0.56433583  0.56242885  1
  Zn  Zn126  1  0.43276211  0.43735539  0.17846783  1
  Zn  Zn127  1  0.43480789  0.43719923  0.68744242  1
  Zn  Zn128  1  0.43740290  0.93119135  0.18842502  1
  Zn  Zn129  1  0.43398458  0.94017010  0.69577266  1
  Zn  Zn130  1  0.94163925  0.43610660  0.18086122  1
  Zn  Zn131  1  0.94166960  0.43923728  0.68886597  1
  Zn  Zn132  1  0.93332978  0.94007125  0.19903805  1
  Zn  Zn133  1  0.93959404  0.93755302  0.68815827  1
  Zn  Zn134  1  0.05914586  0.05968756  0.30863292  1
  Zn  Zn135  1  0.06152061  0.05620750  0.81249829  1
  Zn  Zn136  1  0.05661791  0.56290825  0.31679485  1
  Zn  Zn137  1  0.08414171  0.56157146  0.80411008  1
  Zn  Zn138  1  0.52755791  0.06956037  0.31958030  1
  Zn  Zn139  1  0.56710496  0.05280324  0.81452202  1
  Zn  Zn140  1  0.56776425  0.56547420  0.30139882  1
  Zn  Zn141  1  0.56756365  0.56856704  0.80823937  1
  Zn  Zn142  1  0.44852568  0.18069950  0.44217587  1
  Zn  Zn143  1  0.42524035  0.18581055  0.94537326  1
  Zn  Zn144  1  0.43791926  0.68523424  0.43415504  1
  Zn  Zn145  1  0.43819304  0.67513600  0.93568522  1
  Zn  Zn146  1  0.92721743  0.19118346  0.44205524  1
  Zn  Zn147  1  0.93778772  0.19101833  0.93552416  1
  Zn  Zn148  1  0.93760361  0.68011875  0.43504363  1
  Zn  Zn149  1  0.91411810  0.72971121  0.93214379  1
  Zn  Zn150  1  0.06316134  0.31502434  0.06313173  1
  Zn  Zn151  1  0.06883142  0.30929350  0.55827908  1
  Zn  Zn152  1  0.06275796  0.81245439  0.06541087  1
  Zn  Zn153  1  0.06277500  0.81439532  0.55962046  1
  Zn  Zn154  1  0.56293185  0.32110773  0.06070175  1
  Zn  Zn155  1  0.54533769  0.32046091  0.57401445  1
  Zn  Zn156  1  0.56926963  0.80665857  0.06599220  1
  Zn  Zn157  1  0.57597114  0.81327860  0.56273213  1
  O  O158  1  0.11347565  0.11898047  0.12216826  1
  O  O159  1  0.11204178  0.12596668  0.62970831  1
  O  O160  1  0.10563313  0.61774583  0.13315040  1
  O  O161  1  0.11936324  0.60198779  0.62438157  1
  O  O162  1  0.61260669  0.12657214  0.11545873  1
  O  O163  1  0.61821510  0.10582366  0.63329953  1
  O  O164  1  0.64103661  0.60426418  0.13458447  1
  O  O165  1  0.62034059  0.61574072  0.62918535  1
  O  O166  1  0.39171408  0.39263050  0.36507786  1
  O  O167  1  0.35336703  0.38346444  0.88993786  1
  O  O168  1  0.39462232  0.86400777  0.37826182  1
  O  O169  1  0.38151252  0.88183082  0.87418778  1
  O  O170  1  0.88555723  0.37097924  0.37328841  1
  O  O171  1  0.87031027  0.36805339  0.88733539  1
  O  O172  1  0.88257141  0.88946494  0.36415156  1
  O  O173  1  0.90737187  0.84733376  0.88544830  1
  O  O174  1  0.24591317  -0.00741557  0.36386608  1
  O  O175  1  0.25360489  0.00226750  0.88593047  1
  O  O176  1  0.25815368  0.49742973  0.37151092  1
  O  O177  1  0.24414872  0.52426488  0.85970140  1
  O  O178  1  0.74938830  0.01419999  0.37755661  1
  O  O179  1  0.74120825  0.01264535  0.86613728  1
  O  O180  1  0.74901264  0.50823078  0.37784786  1
  O  O181  1  0.74592793  0.50321086  0.85972483  1
  O  O182  1  0.22475206  0.51452094  0.13966409  1
  O  O183  1  0.24351416  0.49682310  0.60810198  1
  O  O184  1  0.24198295  0.98617182  0.13440561  1
  O  O185  1  0.25178926  0.98470119  0.61668203  1
  O  O186  1  0.75684650  0.49197696  0.12001080  1
  O  O187  1  0.74407138  0.49499052  0.62849555  1
  O  O188  1  0.72343558  1.01426827  0.14340807  1
  O  O189  1  0.75025287  0.99431636  0.62842182  1
  O  O190  1  -0.00694748  0.36743813  0.26060553  1
  O  O191  1  0.00212481  0.36183768  0.75078630  1
  O  O192  1  0.00559765  0.87051655  0.25882216  1
  O  O193  1  -0.00235005  0.85478584  0.74180879  1
  O  O194  1  0.50346074  0.37009920  0.24757783  1
  O  O195  1  0.51907287  0.38349027  0.75605514  1
  O  O196  1  0.49605386  0.86019393  0.26073057  1
  O  O197  1  0.50092520  0.86795648  0.76015046  1
  O  O198  1  0.50442424  0.14722711  0.23129935  1
  O  O199  1  0.50015153  0.10342687  0.73797586  1
  O  O200  1  0.48569012  0.63710015  0.25527462  1
  O  O201  1  0.49553635  0.63276197  0.74086258  1
  O  O202  1  0.98376243  0.13144808  0.24303126  1
  O  O203  1  0.99415745  0.13320802  0.74469542  1
  O  O204  1  0.98684442  0.63009322  0.25205964  1
  O  O205  1  0.99893767  0.62649991  0.73156007  1
  O  O206  1  0.35308049  0.25438243  0.00240889  1
  O  O207  1  0.37953027  0.24149208  0.50893952  1
  O  O208  1  0.38105413  0.74144082  0.01531965  1
  O  O209  1  0.37194898  0.74489355  0.50826511  1
  O  O210  1  0.87055934  0.25427084  0.00841226  1
  O  O211  1  0.85151238  0.24641722  0.50357980  1
  O  O212  1  0.84074887  0.75050242  0.01802299  1
  O  O213  1  0.86950086  0.74181518  0.50810455  1
  O  O214  1  0.13590011  0.24902844  0.48492269  1
  O  O215  1  0.12436789  0.24050193  0.99479579  1
  O  O216  1  0.13410469  0.75617518  0.48972136  1
  O  O217  1  0.12495464  0.74253294  1.01016918  1
  O  O218  1  0.63307904  0.25799796  0.51123498  1
  O  O219  1  0.62514774  0.24290906  0.99329051  1
  O  O220  1  0.64546306  0.74220345  0.50138544  1
  O  O221  1  0.66768788  0.75111923  1.04845834  1
  O  O222  1  0.49229321  0.24811006  0.12664201  1
  O  O223  1  0.51060733  0.21880944  0.62247468  1
  O  O224  1  0.48283308  0.76036198  0.13621953  1
  O  O225  1  0.50001668  0.74535922  0.62644782  1
  O  O226  1  0.98488273  0.24306066  0.13128323  1
  O  O227  1  1.00072156  0.24459924  0.63088413  1
  O  O228  1  1.00390575  0.73992541  0.14102777  1
  O  O229  1  0.99767584  0.73782899  0.61925779  1
  O  O230  1  -0.00066148  0.25771421  0.37123536  1
  O  O231  1  0.01413391  0.24755524  0.86483655  1
  O  O232  1  0.00485567  0.75761383  0.37549915  1
  O  O233  1  0.00919073  0.73395950  0.85361231  1
  O  O234  1  0.49836481  0.26626489  0.36035818  1
  O  O235  1  0.50666921  0.24207479  0.88023742  1
  O  O236  1  0.50459440  0.75178444  0.36601821  1
  O  O237  1  0.49037201  0.75864767  0.86658618  1
  O  O238  1  0.25955442  0.14242707  0.48546219  1
  O  O239  1  0.23687691  0.13206093  0.99805154  1
  O  O240  1  0.25296997  0.64297090  0.49772502  1
  O  O241  1  0.26074400  0.60974671  0.99479150  1
  O  O242  1  0.74008013  0.13633627  0.49593024  1
  O  O243  1  0.73896812  0.12127593  0.99364634  1
  O  O244  1  0.75588123  0.62944397  0.48346448  1
  O  O245  1  0.75924965  0.61641429  0.97236101  1
  O  O246  1  0.22856968  0.35772212  -0.00087394  1
  O  O247  1  0.26338251  0.33164641  0.44927739  1
  O  O248  1  0.24197230  0.87721973  0.01737754  1
  O  O249  1  0.25264319  0.86290646  0.51031808  1
  O  O250  1  0.76300114  0.37561555  0.00717768  1
  O  O251  1  0.74374783  0.36545095  0.51079103  1
  O  O252  1  0.74515186  0.88914802  0.01464431  1
  O  O253  1  0.75166299  0.86615213  0.50652875  1
  O  O254  1  0.13632636  0.50071951  0.26211112  1
  O  O255  1  0.12822211  0.48151626  0.72996574  1
  O  O256  1  0.12862104  0.99121047  0.24525726  1
  O  O257  1  0.12986395  0.99862020  0.74670685  1
  O  O258  1  0.61799460  0.48415305  0.23463381  1
  O  O259  1  0.63583543  0.49198958  0.74148730  1
  O  O260  1  0.61385105  1.01539228  0.24581017  1
  O  O261  1  0.64184857  0.99291978  0.74271418  1
  O  O262  1  0.36347927  -0.01143568  0.25125162  1
  O  O263  1  0.36431423  0.00169130  0.76748962  1
  O  O264  1  0.36404119  0.50987818  0.25502585  1
  O  O265  1  0.38404581  0.51580287  0.74425175  1
  O  O266  1  0.85786825  0.01132330  0.25868753  1
  O  O267  1  0.86556989  0.01014313  0.74588089  1
  O  O268  1  0.87808797  0.50466656  0.25213715  1
  O  O269  1  0.86774857  0.50956015  0.74139481  1
  O  O270  1  0.10812768  0.35731218  0.36617969  1
  O  O271  1  0.13356864  0.36611592  0.85574416  1
  O  O272  1  0.11272716  0.86992620  0.36908406  1
  O  O273  1  0.09787244  0.86824493  0.88524483  1
  O  O274  1  0.61948613  0.38546423  0.35499744  1
  O  O275  1  0.63545212  0.36358016  0.86514028  1
  O  O276  1  0.60937411  0.86312412  0.37579192  1
  O  O277  1  0.60935213  0.88176620  0.87355041  1
  O  O278  1  0.38395411  0.12603111  0.12031029  1
  O  O279  1  0.39057397  0.11090967  0.62835418  1
  O  O280  1  0.36384075  0.63741887  0.13569456  1
  O  O281  1  0.39223422  0.63284873  0.62744958  1
  O  O282  1  0.87325723  0.13047072  0.13398638  1
  O  O283  1  0.88338928  0.12896031  0.63781812  1
  O  O284  1  0.88462944  0.62068609  0.14172041  1
  O  O285  1  0.88556483  0.63006434  0.62914438  1
  O  O286  1  0.23461187  0.24795976  0.11697998  1
  O  O287  1  0.25626004  0.25089703  0.61041635  1
  O  O288  1  0.25760244  0.76033765  0.13266357  1
  O  O289  1  0.26056238  0.75839149  0.61552898  1
  O  O290  1  0.75806076  0.25712949  0.12482985  1
  O  O291  1  0.74774689  0.25665827  0.61924063  1
  O  O292  1  0.76661575  0.78348487  0.16589464  1
  O  O293  1  0.76157780  0.75384056  0.61720440  1
  O  O294  1  0.21870914  0.23906770  0.33111715  1
  O  O295  1  0.23503068  0.23702967  0.88625366  1
  O  O296  1  0.24113182  0.75531954  0.38020763  1
  O  O297  1  0.24464531  0.73208285  0.86948511  1
  O  O298  1  0.74188137  0.24427601  0.38860472  1
  O  O299  1  0.73702118  0.23501317  0.87434020  1
  O  O300  1  0.75410987  0.74772070  0.37903988  1
  O  O301  1  0.75667166  0.74460940  0.86398268  1
  O  O302  1  0.00398911  0.13093663  0.01330379  1
  O  O303  1  -0.00956202  0.11884291  0.51088077  1
  O  O304  1  -0.01955167  0.64000990  0.01677890  1
  O  O305  1  -0.00221840  0.60558361  0.50433725  1
  O  O306  1  0.50230207  0.12039868  0.01032009  1
  O  O307  1  0.50350604  0.09948066  0.51479104  1
  O  O308  1  0.51486269  0.61125939  -0.01182156  1
  O  O309  1  0.50753277  0.61836272  0.50600372  1
  O  O310  1  0.52011843  0.39104703  0.47934079  1
  O  O311  1  0.50023403  0.39565250  1.00718830  1
  O  O312  1  0.50276222  0.87517464  0.49684908  1
  O  O313  1  0.50713320  0.88314832  0.99711361  1
  O  O314  1  0.99875856  0.37771296  0.49021048  1
  O  O315  1  0.98708579  0.36535468  0.99026460  1
  O  O316  1  0.99826787  0.88540652  0.48976477  1
  O  O317  1  1.00055636  0.89041625  1.01047028  1
  O  O318  1  0.49682547  0.50080132  0.37756187  1
  O  O319  1  0.51915769  0.49426701  0.87629790  1
  O  O320  1  0.50914932  0.98054036  0.39382892  1
  O  O321  1  0.49093799  0.99176770  0.88646970  1
  O  O322  1  1.00413317  0.48589174  0.38743825  1
  O  O323  1  1.00381567  0.50208767  0.85939731  1
  O  O324  1  0.98956512  0.99594993  0.38023447  1
  O  O325  1  0.99084972  0.99663784  0.88197509  1
  O  O326  1  0.00871234  0.01218475  0.14203291  1
  O  O327  1  -0.00172354  0.00751227  0.61616142  1
  O  O328  1  0.00507074  0.51804276  0.12894991  1
  O  O329  1  0.00631116  0.49877998  0.61082395  1
  O  O330  1  0.50046536  0.01343204  0.12492815  1
  O  O331  1  0.50978742  -0.00950222  0.61784468  1
  O  O332  1  0.50952524  0.51167925  0.12470069  1
  O  O333  1  0.51067891  0.51048210  0.61693450  1
  O  O334  1  0.25012077  0.39370048  0.25281687  1
  O  O335  1  0.24656319  0.36991975  0.74270450  1
  O  O336  1  0.23962730  0.87999222  0.24562332  1
  O  O337  1  0.25826122  0.86864419  0.73093878  1
  O  O338  1  0.74039606  0.37039943  0.24227245  1
  O  O339  1  0.74424207  0.38178263  0.74201364  1
  O  O340  1  0.73801150  0.90172954  0.27085034  1
  O  O341  1  0.75930702  0.88343138  0.74299199  1
  O  O342  1  0.25076045  0.10145547  0.24156244  1
  O  O343  1  0.24398167  0.12235993  0.76960622  1
  O  O344  1  0.25578217  0.61735393  0.25820540  1
  O  O345  1  0.27100496  0.62565478  0.72856189  1
  O  O346  1  0.74833129  0.12618568  0.26294109  1
  O  O347  1  0.75607650  0.11956203  0.75440181  1
  O  O348  1  0.76650670  0.62755161  0.25947778  1
  O  O349  1  0.76236751  0.61865709  0.75424559  1
  O  O350  1  0.42938886  0.11460238  0.35700683  1
  O  O351  1  0.36233410  0.11211733  0.88150999  1
  O  O352  1  0.37148596  0.61499985  0.36765907  1
  O  O353  1  0.36300964  0.63332331  0.85666027  1
  O  O354  1  0.87104881  0.11859776  0.36501318  1
  O  O355  1  0.86457637  0.13229238  0.86512282  1
  O  O356  1  0.86786139  0.62042395  0.36454626  1
  O  O357  1  0.87392659  0.63629146  0.85940037  1
  O  O358  1  0.10550230  0.39686319  0.13266250  1
  O  O359  1  0.12843040  0.37738927  0.63075821  1
  O  O360  1  0.13058898  0.88116167  0.13752599  1
  O  O361  1  0.13958344  0.87431390  0.62113522  1
  O  O362  1  0.63670265  0.38589734  0.12955993  1
  O  O363  1  0.63110394  0.38401346  0.63729631  1
  O  O364  1  0.60886942  0.89867139  0.13331143  1
  O  O365  1  0.64528464  0.87895336  0.63174214  1
  O  O366  1  0.09955629  0.24987643  0.24115260  1
  O  O367  1  0.12189733  0.25810033  0.75191732  1
  O  O368  1  0.11661107  0.75908171  0.25881710  1
  O  O369  1  0.11357540  0.74252810  0.73382341  1
  O  O370  1  0.61195981  0.27057850  0.23953924  1
  O  O371  1  0.62572365  0.26268044  0.75623102  1
  O  O372  1  0.60575357  0.74089137  0.24034555  1
  O  O373  1  0.61137227  0.75116407  0.74088520  1
  O  O374  1  0.38242071  0.26338817  0.25286836  1
  O  O375  1  0.37008943  0.23561798  0.74165057  1
  O  O376  1  0.37995288  0.74291918  0.24565986  1
  O  O377  1  0.38949579  0.74166999  0.73550489  1
  O  O378  1  0.87498760  0.24344281  0.24457079  1
  O  O379  1  0.88412034  0.24235931  0.74847817  1
  O  O380  1  0.89122339  0.74888017  0.26104676  1
  O  O381  1  0.88971759  0.73860927  0.73432024  1
  O  O382  1  0.38949577  0.50774273  0.49034661  1
  O  O383  1  0.39738081  0.51309640  0.97965467  1
  O  O384  1  0.38779201  0.99077513  0.50356354  1
  O  O385  1  0.38374915  1.00283683  0.99761351  1
  O  O386  1  0.88641354  0.49339452  0.50379925  1
  O  O387  1  0.88767356  0.48798449  1.00016544  1
  O  O388  1  0.87883143  1.00716905  0.48846001  1
  O  O389  1  0.87434972  0.97047609  1.05263893  1
  O  O390  1  0.12875340  0.01125210  0.01649250  1
  O  O391  1  0.11032559  -0.00185188  0.50153692  1
  O  O392  1  0.11122926  0.50385528  0.01073477  1
  O  O393  1  0.12090813  0.48103424  0.50851883  1
  O  O394  1  0.61048340  0.01170168  0.01288345  1
  O  O395  1  0.62430863  -0.01036731  0.51414364  1
  O  O396  1  0.62007449  0.49537380  0.01453323  1
  O  O397  1  0.62131137  0.50453899  0.50994123  1
  O  O398  1  0.35283367  0.42627007  0.10212494  1
  O  O399  1  0.43798415  0.36199266  0.60962006  1
  O  O400  1  0.36096128  0.86432921  0.12631105  1
  O  O401  1  0.37330164  0.86535584  0.62641072  1
  O  O402  1  0.87245995  0.36832497  0.11538800  1
  O  O403  1  0.86160067  0.37400697  0.63276839  1
  O  O404  1  0.86565555  0.91271672  0.10708918  1
  O  O405  1  0.86864499  0.86300647  0.62760333  1
  O  O406  1  0.10179753  0.14101787  0.37178006  1
  O  O407  1  0.12625836  0.12773006  0.88687495  1
  O  O408  1  0.12209342  0.64119167  0.37064531  1
  O  O409  1  0.13648269  0.62819527  0.87935120  1
  O  O410  1  0.62174606  0.12348855  0.37317008  1
  O  O411  1  0.62663382  0.12903543  0.88405550  1
  O  O412  1  0.64384445  0.62794198  0.36672871  1
  O  O413  1  0.64247528  0.63359814  0.86162114  1
