# generated using pymatgen
data_V79Zn79O256
_symmetry_space_group_name_H-M   'P 1'
_cell_length_a   16.93306111
_cell_length_b   16.95735559
_cell_length_c   16.95187536
_cell_angle_alpha   89.68432625
_cell_angle_beta   90.16622878
_cell_angle_gamma   89.96728807
_symmetry_Int_Tables_number   1
_chemical_formula_structural   V79Zn79O256
_chemical_formula_sum   'V79 Zn79 O256'
_cell_volume   4867.46524837
_cell_formula_units_Z   1
loop_
 _symmetry_equiv_pos_site_id
 _symmetry_equiv_pos_as_xyz
  1  'x, y, z'
loop_
 _atom_site_type_symbol
 _atom_site_label
 _atom_site_symmetry_multiplicity
 _atom_site_fract_x
 _atom_site_fract_y
 _atom_site_fract_z
 _atom_site_occupancy
  V  V0  1  0.74708106  0.13661482  0.89535637  1
  V  V1  1  0.36838028  0.25297331  0.62363982  1
  V  V2  1  0.11748417  0.00965921  0.62979592  1
  V  V3  1  0.75845790  0.12866895  0.37372734  1
  V  V4  1  0.86654631  0.12064024  0.74640003  1
  V  V5  1  0.00117654  0.51065699  -0.00082734  1
  V  V6  1  0.74813334  0.87131130  0.11827973  1
  V  V7  1  0.36277463  0.25595775  0.11858214  1
  V  V8  1  0.38535263  0.13314329  0.75268939  1
  V  V9  1  -0.00729539  0.25243952  0.24965696  1
  V  V10  1  0.61841119  0.74101240  0.87651498  1
  V  V11  1  0.25860936  0.86504057  0.13007254  1
  V  V12  1  0.61792611  0.74833004  0.37671578  1
  V  V13  1  0.24310428  0.01246044  0.23704932  1
  V  V14  1  0.36918853  0.00727406  0.37873327  1
  V  V15  1  0.35879644  0.36875800  0.49844915  1
  V  V16  1  0.00281278  0.76149353  0.25135779  1
  V  V17  1  0.12406430  0.37626285  0.24575155  1
  V  V18  1  0.24908842  0.77412740  -0.02692006  1
  V  V19  1  0.87390925  0.49938452  0.87327126  1
  V  V20  1  0.25430293  0.49233772  0.71910742  1
  V  V21  1  -0.00065491  0.24062574  0.74472765  1
  V  V22  1  0.62426889  0.11433449  0.50199650  1
  V  V23  1  0.86920104  0.12916469  0.24614650  1
  V  V24  1  0.50411785  0.25085729  0.24737908  1
  V  V25  1  0.62354082  0.50908368  0.10764544  1
  V  V26  1  0.12464735  0.50582551  0.12465685  1
  V  V27  1  0.12820031  0.25290124  0.87819419  1
  V  V28  1  0.50024170  0.87975628  0.88697490  1
  V  V29  1  0.37830240  0.12712430  0.25911728  1
  V  V30  1  0.00075965  0.37666549  0.87500781  1
  V  V31  1  0.62775206  0.25206262  0.37991667  1
  V  V32  1  0.75139194  0.36729548  0.12078184  1
  V  V33  1  0.76030191  0.74828508  0.51126647  1
  V  V34  1  0.61919307  0.87077362  0.24970526  1
  V  V35  1  0.62474303  0.87733531  0.74768639  1
  V  V36  1  0.37926105  0.88575386  0.50654253  1
  V  V37  1  0.01154565  0.87320877  0.87782436  1
  V  V38  1  0.76189797  0.25361838  0.50132848  1
  V  V39  1  -0.01366181  0.38557801  0.38258272  1
  V  V40  1  0.24161271  0.62622980  0.37418948  1
  V  V41  1  0.62734987  0.37888278  0.24620398  1
  V  V42  1  0.25033269  0.13121261  0.88040297  1
  V  V43  1  -0.00239186  0.13173147  0.12594579  1
  V  V44  1  0.62669548  0.48734887  0.62840308  1
  V  V45  1  0.48639162  0.62596494  0.12077377  1
  V  V46  1  0.00325654  0.00241157  0.00943381  1
  V  V47  1  0.62394057  -0.00306475  0.10684506  1
  V  V48  1  0.87797081  0.86709388  0.00443085  1
  V  V49  1  0.25557005  0.50008546  0.24786632  1
  V  V50  1  -0.00317488  0.63447045  0.12029227  1
  V  V51  1  0.74895180  0.74266833  -0.00035264  1
  V  V52  1  0.12650544  0.37828218  0.72936821  1
  V  V53  1  0.87390290  0.62944238  0.24314426  1
  V  V54  1  0.50195991  0.49490869  0.50123175  1
  V  V55  1  0.87290940  0.36457247  0.00699126  1
  V  V56  1  0.25042487  0.00595387  0.75428171  1
  V  V57  1  0.75326636  0.50171229  0.25076056  1
  V  V58  1  0.24965795  0.58575649  0.87818602  1
  V  V59  1  0.12615558  0.13157746  0.00623344  1
  V  V60  1  0.24957445  0.87979189  0.62931967  1
  V  V61  1  0.60500639  0.25785040  0.87394467  1
  V  V62  1  0.50132728  0.88651050  0.38066280  1
  V  V63  1  0.74600081  0.49047439  0.75238815  1
  V  V64  1  0.62320572  0.62038275  0.50292123  1
  V  V65  1  0.75487855  0.62001963  0.37561580  1
  V  V66  1  0.75892238  0.36905128  0.62498431  1
  V  V67  1  0.74119387  0.61850824  0.87846165  1
  V  V68  1  0.14342697  0.12550716  0.49851787  1
  V  V69  1  0.11436497  0.60036253  0.50584650  1
  V  V70  1  0.76675260  -0.03289646  0.28287317  1
  V  V71  1  0.48420815  0.39624742  0.88134217  1
  V  V72  1  0.51279612  0.12082062  0.12298812  1
  V  V73  1  0.76256076  0.87438702  0.63198596  1
  V  V74  1  0.86884083  0.00120846  0.87821137  1
  V  V75  1  -0.02401381  -0.00033062  0.46406212  1
  V  V76  1  0.23635620  0.75647046  0.50309307  1
  V  V77  1  0.50211804  0.37686792  0.37625466  1
  V  V78  1  0.13519636  0.24575066  0.37640887  1
  Zn  Zn79  1  0.10318315  0.79040124  0.38002409  1
  Zn  Zn80  1  0.45764686  0.74455154  0.23502232  1
  Zn  Zn81  1  0.37803310  0.50530406  0.37113588  1
  Zn  Zn82  1  0.50331906  0.12374332  0.62513803  1
  Zn  Zn83  1  0.49796985  0.74214635  0.74351696  1
  Zn  Zn84  1  0.62192375  -0.00655916  0.62113345  1
  Zn  Zn85  1  -0.00854088  0.64859829  0.61407251  1
  Zn  Zn86  1  0.37216656  0.62098240  0.74484841  1
  Zn  Zn87  1  0.87683854  0.63378190  0.74002875  1
  Zn  Zn88  1  0.16255912  0.82768326  0.80281271  1
  Zn  Zn89  1  0.37946576  0.74132780  0.61566877  1
  Zn  Zn90  1  0.00280981  0.74969772  0.74066399  1
  Zn  Zn91  1  0.37548212  -0.01039253  0.89524634  1
  Zn  Zn92  1  0.88222221  0.24054532  0.61893044  1
  Zn  Zn93  1  0.49474046  0.61948340  0.62788719  1
  Zn  Zn94  1  0.18705167  0.18706577  0.19074261  1
  Zn  Zn95  1  0.18861085  0.19184551  0.68670877  1
  Zn  Zn96  1  0.18235258  0.68970965  0.19071420  1
  Zn  Zn97  1  0.18291723  0.68126625  0.68371432  1
  Zn  Zn98  1  0.68640370  0.18842954  0.18564581  1
  Zn  Zn99  1  0.68733765  0.18837858  0.69380685  1
  Zn  Zn100  1  0.67926642  0.68766043  0.18650051  1
  Zn  Zn101  1  0.68685108  0.68133325  0.69258100  1
  Zn  Zn102  1  0.31477462  0.31678123  0.30651053  1
  Zn  Zn103  1  0.31417466  0.31690657  0.80840452  1
  Zn  Zn104  1  0.28196680  0.83007775  0.32108007  1
  Zn  Zn105  1  0.33199559  0.81386755  0.80170688  1
  Zn  Zn106  1  0.81320373  0.31398382  0.30878413  1
  Zn  Zn107  1  0.81108960  0.30753518  0.81129580  1
  Zn  Zn108  1  0.80864231  0.79803131  0.31218609  1
  Zn  Zn109  1  0.81641507  0.80929752  0.81357833  1
  Zn  Zn110  1  0.17719314  0.43606765  0.42934639  1
  Zn  Zn111  1  0.18194915  0.44564548  0.93415727  1
  Zn  Zn112  1  0.18933315  0.94602992  0.43930038  1
  Zn  Zn113  1  0.19149596  0.94914222  0.95436394  1
  Zn  Zn114  1  0.69340549  0.43506311  0.43895720  1
  Zn  Zn115  1  0.68074770  0.42249846  0.93531755  1
  Zn  Zn116  1  0.70413507  0.92910972  0.43890022  1
  Zn  Zn117  1  0.68740483  0.93276490  0.93159279  1
  Zn  Zn118  1  0.32588511  0.07062894  0.06323812  1
  Zn  Zn119  1  0.31297854  0.06594420  0.56705510  1
  Zn  Zn120  1  0.30752758  0.61126218  0.06303130  1
  Zn  Zn121  1  0.31149708  0.56258481  0.55171064  1
  Zn  Zn122  1  0.81393986  0.05690465  0.06741734  1
  Zn  Zn123  1  0.80840554  0.05640052  0.56175927  1
  Zn  Zn124  1  0.81499263  0.55737472  0.06157050  1
  Zn  Zn125  1  0.81266704  0.56316578  0.57003935  1
  Zn  Zn126  1  0.43993518  0.44118938  0.17891128  1
  Zn  Zn127  1  0.44250430  0.42525517  0.69057624  1
  Zn  Zn128  1  0.43411968  0.93822380  0.18688872  1
  Zn  Zn129  1  0.44326202  0.94506564  0.69342634  1
  Zn  Zn130  1  0.93791004  0.44082551  0.18863866  1
  Zn  Zn131  1  0.93496419  0.43351426  0.69059334  1
  Zn  Zn132  1  0.93376024  0.94315484  0.18607482  1
  Zn  Zn133  1  0.94119065  0.93786288  0.69465586  1
  Zn  Zn134  1  0.06067125  0.06470609  0.31500687  1
  Zn  Zn135  1  0.06084282  0.06027973  0.81868239  1
  Zn  Zn136  1  0.05954653  0.56538265  0.31287871  1
  Zn  Zn137  1  0.07504175  0.57454097  0.79695333  1
  Zn  Zn138  1  0.57382357  0.05977612  0.30996356  1
  Zn  Zn139  1  0.57187667  0.06106342  0.81851009  1
  Zn  Zn140  1  0.56214992  0.56608051  0.30557561  1
  Zn  Zn141  1  0.55461012  0.55329703  0.81216838  1
  Zn  Zn142  1  0.44055353  0.19094632  0.44228651  1
  Zn  Zn143  1  0.43493624  0.17249504  0.94680358  1
  Zn  Zn144  1  0.40118566  0.71639082  0.39906917  1
  Zn  Zn145  1  0.42526540  0.67734869  0.93284909  1
  Zn  Zn146  1  0.94792652  0.18072184  0.43532478  1
  Zn  Zn147  1  0.93713833  0.18717262  0.93311475  1
  Zn  Zn148  1  0.93918774  0.68740568  0.43148335  1
  Zn  Zn149  1  0.93030258  0.69756009  0.91029828  1
  Zn  Zn150  1  0.06051784  0.31563322  0.06350646  1
  Zn  Zn151  1  0.05767731  0.30618957  0.55613859  1
  Zn  Zn152  1  0.07978946  0.81420869  0.06375234  1
  Zn  Zn153  1  0.05434403  0.83037530  0.56669475  1
  Zn  Zn154  1  0.56791597  0.31206065  0.04860083  1
  Zn  Zn155  1  0.56104369  0.30492986  0.57195081  1
  Zn  Zn156  1  0.56007320  0.80273656  0.06243430  1
  Zn  Zn157  1  0.56297192  0.80756984  0.56187510  1
  O  O158  1  0.11264483  0.13611777  0.11633264  1
  O  O159  1  0.13028852  0.12163476  0.61129481  1
  O  O160  1  0.11242369  0.61458843  0.13077990  1
  O  O161  1  0.11673130  0.62464323  0.60660027  1
  O  O162  1  0.62113234  0.10783586  0.14213428  1
  O  O163  1  0.63421123  0.12499528  0.60889076  1
  O  O164  1  0.62696218  0.61201568  0.11994235  1
  O  O165  1  0.63033359  0.60877775  0.61446252  1
  O  O166  1  0.38580033  0.37270318  0.38433801  1
  O  O167  1  0.38266710  0.37144960  0.87471925  1
  O  O168  1  0.38304452  0.89186609  0.38794121  1
  O  O169  1  0.39425431  0.87826553  0.87140928  1
  O  O170  1  0.88637279  0.37367697  0.36808941  1
  O  O171  1  0.88234248  0.37989859  0.88267306  1
  O  O172  1  0.79791322  0.90030948  0.36054082  1
  O  O173  1  0.88511894  0.88351039  0.88840208  1
  O  O174  1  0.26671252  0.00509411  0.36160799  1
  O  O175  1  0.25174856  0.01361164  0.87122265  1
  O  O176  1  0.24530582  0.50588461  0.36385909  1
  O  O177  1  0.24821338  0.48604697  0.84984588  1
  O  O178  1  0.73806620  0.02636007  0.37506913  1
  O  O179  1  0.76428026  0.00489028  0.88375901  1
  O  O180  1  0.74267499  0.50894410  0.36446225  1
  O  O181  1  0.75213169  0.49822174  0.87050928  1
  O  O182  1  0.23780752  0.51666327  0.14391731  1
  O  O183  1  0.24426398  0.49311799  0.62024920  1
  O  O184  1  0.25568159  1.02149745  0.13526058  1
  O  O185  1  0.24734116  1.00027226  0.63847325  1
  O  O186  1  0.74140238  0.49395986  0.13053764  1
  O  O187  1  0.74617959  0.48817431  0.63137991  1
  O  O188  1  0.73939181  0.98273922  0.11987622  1
  O  O189  1  0.74224334  0.97727554  0.61893773  1
  O  O190  1  0.00415034  0.36892933  0.25389262  1
  O  O191  1  0.00696537  0.36888587  0.75757335  1
  O  O192  1  -0.00872057  0.85903152  0.23284274  1
  O  O193  1  -0.00220934  0.87720358  0.77598864  1
  O  O194  1  0.50667423  0.37067221  0.25946381  1
  O  O195  1  0.49838582  0.37957076  0.77399200  1
  O  O196  1  0.50887352  0.87374305  0.25900170  1
  O  O197  1  0.51435568  0.86762081  0.75714031  1
  O  O198  1  0.50129559  0.13506023  0.25193798  1
  O  O199  1  0.48463586  0.12082071  0.76220434  1
  O  O200  1  0.50685148  0.63317871  0.23653451  1
  O  O201  1  0.49335938  0.62075185  0.74558008  1
  O  O202  1  0.99094455  0.13233940  0.24384542  1
  O  O203  1  0.98977552  0.13470661  0.76329012  1
  O  O204  1  0.99029650  0.63148652  0.24170387  1
  O  O205  1  0.99672861  0.62212600  0.73588068  1
  O  O206  1  0.37624773  0.24096771  0.02109117  1
  O  O207  1  0.37445661  0.26126061  0.50233285  1
  O  O208  1  0.32919979  0.71432362  0.00201921  1
  O  O209  1  0.35753545  0.76903503  0.49727116  1
  O  O210  1  0.88603283  0.26680872  -0.00127114  1
  O  O211  1  0.86569432  0.23514805  0.50073696  1
  O  O212  1  0.86417759  0.75921124  -0.00919330  1
  O  O213  1  0.85721711  0.74366664  0.49197996  1
  O  O214  1  0.11972902  0.23756872  0.48655849  1
  O  O215  1  0.11455667  0.24440238  0.98949945  1
  O  O216  1  0.13247416  0.76818392  0.49722180  1
  O  O217  1  0.15903514  0.74608485  1.00774847  1
  O  O218  1  0.63532009  0.24551583  0.49082237  1
  O  O219  1  0.63312792  0.25328637  0.97600123  1
  O  O220  1  0.63334339  0.73647883  0.49490135  1
  O  O221  1  0.63706906  0.75313013  0.98643305  1
  O  O222  1  0.51776468  0.24253605  0.14119605  1
  O  O223  1  0.48359713  0.23767109  0.61673885  1
  O  O224  1  0.50099301  0.73621380  0.12970754  1
  O  O225  1  0.49977474  0.73851433  0.62218021  1
  O  O226  1  1.00238161  0.24379778  0.13680742  1
  O  O227  1  0.99771704  0.25097267  0.63906077  1
  O  O228  1  1.00948832  0.73963375  0.12717293  1
  O  O229  1  0.99029511  0.76514055  0.62636167  1
  O  O230  1  0.00743090  0.25332870  0.36197517  1
  O  O231  1  0.00657773  0.25930367  0.86667520  1
  O  O232  1  -0.00514254  0.75802625  0.35909905  1
  O  O233  1  0.01593578  0.77477028  0.89979819  1
  O  O234  1  0.51003542  0.25929827  0.36942719  1
  O  O235  1  0.50608371  0.23625269  0.87975839  1
  O  O236  1  0.51321072  0.75898282  0.38166511  1
  O  O237  1  0.50654034  0.75178858  0.87730865  1
  O  O238  1  0.24265811  0.12940280  0.49659371  1
  O  O239  1  0.23590297  0.12553400  0.98992143  1
  O  O240  1  0.22877345  0.63303297  0.49876140  1
  O  O241  1  0.25262116  0.56649897  0.97981738  1
  O  O242  1  0.74322779  0.13486491  0.49176815  1
  O  O243  1  0.75961054  0.12419047  0.99441664  1
  O  O244  1  0.74333099  0.62527497  0.49460120  1
  O  O245  1  0.75775450  0.63129262  0.99053874  1
  O  O246  1  0.26642819  0.38869395  0.00819271  1
  O  O247  1  0.26150510  0.37852696  0.49019624  1
  O  O248  1  0.26538401  0.87388451  0.00183956  1
  O  O249  1  0.25874832  0.87693512  0.51288674  1
  O  O250  1  0.76621161  0.38031472  0.00462311  1
  O  O251  1  0.75064551  0.36379962  0.50819700  1
  O  O252  1  0.75721875  0.86471357  0.00030420  1
  O  O253  1  0.74343118  0.85546514  0.51822398  1
  O  O254  1  0.12622119  0.49318979  0.24328403  1
  O  O255  1  0.12497964  0.48109131  0.74233700  1
  O  O256  1  0.14527752  1.02459439  0.25073535  1
  O  O257  1  0.13565078  1.01584832  0.73954784  1
  O  O258  1  0.63706892  0.49626531  0.24266942  1
  O  O259  1  0.63643276  0.50419862  0.73870985  1
  O  O260  1  0.64717504  0.97935154  0.25822095  1
  O  O261  1  0.63126915  0.97838256  0.75554107  1
  O  O262  1  0.37526733  0.01354695  0.25813708  1
  O  O263  1  0.36559729  0.01797930  0.75711104  1
  O  O264  1  0.35895998  0.49022615  0.25183520  1
  O  O265  1  0.35591257  0.48963058  0.73116732  1
  O  O266  1  0.85624402  0.00870269  0.24365201  1
  O  O267  1  0.88561856  0.01358499  0.76485773  1
  O  O268  1  0.86098739  0.51138437  0.24299535  1
  O  O269  1  0.86515497  0.49488890  0.76124586  1
  O  O270  1  0.11275732  0.36319803  0.36477065  1
  O  O271  1  0.11375698  0.36940033  0.87499886  1
  O  O272  1  0.17845722  0.86886167  0.36273735  1
  O  O273  1  0.11501296  0.89700821  0.88157869  1
  O  O274  1  0.62171389  0.36950627  0.37008824  1
  O  O275  1  0.60808981  0.36668707  0.87063681  1
  O  O276  1  0.62002420  0.86782598  0.37313586  1
  O  O277  1  0.62135294  0.86201393  0.86572623  1
  O  O278  1  0.39715530  0.13908419  0.14079755  1
  O  O279  1  0.37538278  0.13205893  0.63814445  1
  O  O280  1  0.38712213  0.61166681  0.13843873  1
  O  O281  1  0.37665144  0.62304000  0.61947447  1
  O  O282  1  0.88231866  0.12316713  0.13600170  1
  O  O283  1  0.86585287  0.11937817  0.64261609  1
  O  O284  1  0.88317784  0.62228584  0.13149728  1
  O  O285  1  0.87695937  0.63090809  0.62632718  1
  O  O286  1  0.26326024  0.24988460  0.13425396  1
  O  O287  1  0.26730820  0.24436820  0.62076122  1
  O  O288  1  0.25731892  0.76413899  0.14669414  1
  O  O289  1  0.24738436  0.76464495  0.61764305  1
  O  O290  1  0.74291972  0.26826876  0.12898391  1
  O  O291  1  0.75018021  0.25427817  0.61734799  1
  O  O292  1  0.73639504  0.75975014  0.11129852  1
  O  O293  1  0.74829134  0.74927524  0.61713303  1
  O  O294  1  0.23318545  0.25843497  0.36646457  1
  O  O295  1  0.23460649  0.24741816  0.86714199  1
  O  O296  1  0.24279996  0.73083033  0.38702277  1
  O  O297  1  0.24572506  0.77559348  0.86985348  1
  O  O298  1  0.74544449  0.24860360  0.38118632  1
  O  O299  1  0.75702093  0.23767553  0.88143441  1
  O  O300  1  0.73837535  0.73829033  0.38715970  1
  O  O301  1  0.74159644  0.73711501  0.88042105  1
  O  O302  1  0.00239118  0.12304164  0.00805454  1
  O  O303  1  0.01318558  0.10008045  0.48648940  1
  O  O304  1  -0.01113315  0.61548189  0.00321362  1
  O  O305  1  0.01305218  0.62868462  0.49328131  1
  O  O306  1  0.51742354  0.13682821  0.02747039  1
  O  O307  1  0.52285958  0.12789173  0.49388914  1
  O  O308  1  0.48745493  0.63103048  0.01846552  1
  O  O309  1  0.51363977  0.60489139  0.49659097  1
  O  O310  1  0.50554622  0.37943437  0.48922023  1
  O  O311  1  0.49904176  0.37112213  0.98321399  1
  O  O312  1  0.49096044  0.87290075  0.49335204  1
  O  O313  1  0.50766321  0.86902273  0.98580902  1
  O  O314  1  0.99966337  0.36495374  0.48060492  1
  O  O315  1  0.99046553  0.38388220  0.99402382  1
  O  O316  1  1.01715632  0.91121227  0.49468635  1
  O  O317  1  0.99722995  0.88507501  1.00463646  1
  O  O318  1  0.50188889  0.49077310  0.37935082  1
  O  O319  1  0.49232545  0.49800548  0.88613181  1
  O  O320  1  0.49840031  0.99036229  0.36925130  1
  O  O321  1  0.50937645  0.98121490  0.87314038  1
  O  O322  1  1.00182079  0.48478094  0.36929811  1
  O  O323  1  0.99384375  0.49250920  0.87984833  1
  O  O324  1  0.98528389  0.99638157  0.36197640  1
  O  O325  1  0.99153679  0.99680337  0.89095015  1
  O  O326  1  -0.00496555  0.01523857  0.11840445  1
  O  O327  1  0.01840809  0.00066342  0.63513925  1
  O  O328  1  0.00372271  0.51064167  0.11867711  1
  O  O329  1  -0.03473127  0.49401404  0.59080027  1
  O  O330  1  0.50989948  0.01293449  0.13528071  1
  O  O331  1  0.51098685  0.01133009  0.63361757  1
  O  O332  1  0.51590586  0.50964322  0.12905170  1
  O  O333  1  0.51102511  0.49088853  0.61515112  1
  O  O334  1  0.23693235  0.39023821  0.25623739  1
  O  O335  1  0.23347141  0.37596295  0.74238498  1
  O  O336  1  0.25777539  0.90425423  0.23326954  1
  O  O337  1  0.25272372  0.89003526  0.74644692  1
  O  O338  1  0.74787533  0.38406100  0.24177056  1
  O  O339  1  0.75271638  0.38271458  0.74434753  1
  O  O340  1  0.74310215  0.86534823  0.23044100  1
  O  O341  1  0.73988561  0.85885461  0.74107279  1
  O  O342  1  0.26960118  0.12521020  0.25052617  1
  O  O343  1  0.25186277  0.12194099  0.75932069  1
  O  O344  1  0.23939706  0.61576017  0.26654869  1
  O  O345  1  0.24457827  0.59851817  0.74094599  1
  O  O346  1  0.75841355  0.13482883  0.25810523  1
  O  O347  1  0.76524586  0.12545056  0.76393686  1
  O  O348  1  0.75365182  0.62210946  0.25467464  1
  O  O349  1  0.75457125  0.61134709  0.76185892  1
  O  O350  1  0.39016533  0.11906510  0.36958389  1
  O  O351  1  0.35823184  0.15144163  0.85565413  1
  O  O352  1  0.34767973  0.61335616  0.39871725  1
  O  O353  1  0.34606039  0.63058310  0.86166031  1
  O  O354  1  0.86741587  0.13257669  0.36100103  1
  O  O355  1  0.86743672  0.11852192  0.87311834  1
  O  O356  1  0.86110278  0.62731981  0.36431284  1
  O  O357  1  0.86348573  0.60518132  0.87983404  1
  O  O358  1  0.11641024  0.38619187  0.13703685  1
  O  O359  1  0.11707892  0.36734041  0.63185109  1
  O  O360  1  0.15763801  0.88590441  0.10798115  1
  O  O361  1  0.14035970  0.89960958  0.62121256  1
  O  O362  1  0.63134949  0.38619186  0.12686635  1
  O  O363  1  0.63585433  0.38128668  0.62013274  1
  O  O364  1  0.62435248  0.88050834  0.13154558  1
  O  O365  1  0.62865416  0.86863895  0.63915880  1
  O  O366  1  0.11673708  0.25503132  0.25736677  1
  O  O367  1  0.11758647  0.25841248  0.75636631  1
  O  O368  1  0.10525648  0.74608238  0.25472417  1
  O  O369  1  0.11734462  0.75109928  0.74122779  1
  O  O370  1  0.62254788  0.25691009  0.26216349  1
  O  O371  1  0.63173799  0.23970962  0.77373543  1
  O  O372  1  0.63210204  0.76109406  0.26274640  1
  O  O373  1  0.62364223  0.75087235  0.76282750  1
  O  O374  1  0.38899800  0.24501416  0.25200654  1
  O  O375  1  0.37262184  0.24450667  0.73428885  1
  O  O376  1  0.36937716  0.76094133  0.29728320  1
  O  O377  1  0.37947318  0.74347428  0.73368704  1
  O  O378  1  0.88296117  0.24304962  0.24884314  1
  O  O379  1  0.88221971  0.23620590  0.75131089  1
  O  O380  1  0.88215421  0.73809976  0.24970214  1
  O  O381  1  0.89797410  0.73502472  0.79579191  1
  O  O382  1  0.38627247  0.48122941  0.49927494  1
  O  O383  1  0.33177226  0.42283667  1.00738498  1
  O  O384  1  0.36804699  0.99629411  0.49375521  1
  O  O385  1  0.39107663  1.06236777  0.97606549  1
  O  O386  1  0.91015803  0.49107785  0.53651719  1
  O  O387  1  0.88356822  0.48966663  0.99190397  1
  O  O388  1  0.87800580  1.00301238  0.49100481  1
  O  O389  1  0.88484461  0.99141703  0.99743996  1
  O  O390  1  0.11254031  0.01981471  -0.00174529  1
  O  O391  1  0.13773278  0.01604398  0.51204175  1
  O  O392  1  0.10992509  0.48910883  0.01237099  1
  O  O393  1  0.12086288  0.50102304  0.50341049  1
  O  O394  1  0.62399216  -0.00727347  0.00821959  1
  O  O395  1  0.63674822  0.01276125  0.49511483  1
  O  O396  1  0.63271827  0.49744344  0.01001318  1
  O  O397  1  0.62274576  0.50089733  0.50648457  1
  O  O398  1  0.38729120  0.35303587  0.13575604  1
  O  O399  1  0.37991757  0.36248517  0.60939817  1
  O  O400  1  0.36053258  0.89057891  0.11803068  1
  O  O401  1  0.36601610  0.88563473  0.62108932  1
  O  O402  1  0.86970308  0.38157122  0.11327810  1
  O  O403  1  0.86224057  0.36349438  0.63195322  1
  O  O404  1  0.86228360  0.88029055  0.11221747  1
  O  O405  1  0.86133079  0.87690747  0.64030328  1
  O  O406  1  0.12696939  0.13742201  0.38111944  1
  O  O407  1  0.12929779  0.13520865  0.88216350  1
  O  O408  1  0.13127297  0.61792937  0.38899993  1
  O  O409  1  0.15180572  0.61716103  0.86800918  1
  O  O410  1  0.63362810  0.13768999  0.37995966  1
  O  O411  1  0.64533169  0.12212185  0.87812381  1
  O  O412  1  0.63213374  0.62896014  0.38244762  1
  O  O413  1  0.63444741  0.62572639  0.87108848  1
