# generated using pymatgen
data_V79Zn79O256
_symmetry_space_group_name_H-M   'P 1'
_cell_length_a   16.87719321
_cell_length_b   16.89331166
_cell_length_c   16.88482221
_cell_angle_alpha   89.98542463
_cell_angle_beta   89.99065338
_cell_angle_gamma   90.05084914
_symmetry_Int_Tables_number   1
_chemical_formula_structural   V79Zn79O256
_chemical_formula_sum   'V79 Zn79 O256'
_cell_volume   4814.05799211
_cell_formula_units_Z   1
loop_
 _symmetry_equiv_pos_site_id
 _symmetry_equiv_pos_as_xyz
  1  'x, y, z'
loop_
 _atom_site_type_symbol
 _atom_site_label
 _atom_site_symmetry_multiplicity
 _atom_site_fract_x
 _atom_site_fract_y
 _atom_site_fract_z
 _atom_site_occupancy
  V  V0  1  0.36980722  0.50732788  0.87787093  1
  V  V1  1  0.37429031  0.37358114  0.50475391  1
  V  V2  1  0.25746642  0.00172595  0.24818188  1
  V  V3  1  0.13234460  0.38971982  0.73962271  1
  V  V4  1  0.87530821  0.48896948  0.37824889  1
  V  V5  1  0.50204391  0.50085970  0.00654746  1
  V  V6  1  0.24743703  0.25813502  0.00415288  1
  V  V7  1  -0.01413657  0.12648468  0.62868639  1
  V  V8  1  0.86339958  0.86971904  0.49988111  1
  V  V9  1  0.51582312  0.36692943  0.37287916  1
  V  V10  1  0.87042996  0.75127094  0.61853287  1
  V  V11  1  0.38623430  0.75216380  0.62928828  1
  V  V12  1  0.38538411  -0.00069906  0.37710775  1
  V  V13  1  0.72910437  0.37166287  0.12402226  1
  V  V14  1  0.12521679  0.87068878  0.75320461  1
  V  V15  1  0.23630462  0.75225613  -0.00365250  1
  V  V16  1  0.63897459  0.62297415  0.50627556  1
  V  V17  1  0.37947312  0.63282584  0.75559723  1
  V  V18  1  0.87882896  0.62882941  0.74611559  1
  V  V19  1  -0.00400036  0.37994318  0.88429107  1
  V  V20  1  0.74083779  0.12834227  0.37594911  1
  V  V21  1  0.76039570  0.62639898  0.37466925  1
  V  V22  1  -0.00499013  0.37458780  0.38820679  1
  V  V23  1  0.12825134  0.74480120  0.37741295  1
  V  V24  1  0.62483828  0.62536287  0.00591068  1
  V  V25  1  0.12807570  -0.00336994  0.62561414  1
  V  V26  1  0.50725261  0.49658468  0.50896920  1
  V  V27  1  0.25127038  0.48226464  0.24697223  1
  V  V28  1  0.49926920  0.11395943  0.63175553  1
  V  V29  1  0.37308942  0.24422700  0.63231697  1
  V  V30  1  0.25631310  0.12370889  0.36943641  1
  V  V31  1  0.23650760  0.63070526  0.87524882  1
  V  V32  1  0.00413815  0.52241201  0.00640244  1
  V  V33  1  -0.00336673  0.00197556  -0.00093592  1
  V  V34  1  0.74592979  0.63088563  0.87260642  1
  V  V35  1  0.73492738  0.49625851  0.74471318  1
  V  V36  1  0.37658608  0.00972907  0.87502023  1
  V  V37  1  0.24778459  0.12725961  0.86593652  1
  V  V38  1  0.25853384  0.87678518  0.11873042  1
  V  V39  1  0.12742237  0.00145039  0.12362558  1
  V  V40  1  0.50923899  0.26133807  0.74846631  1
  V  V41  1  0.87102095  0.50046074  0.88300659  1
  V  V42  1  0.61354235  0.12736226  -0.00134565  1
  V  V43  1  0.37885762  0.75275876  0.12187511  1
  V  V44  1  0.00447245  0.87077718  0.37309909  1
  V  V45  1  0.37948667  0.24716517  0.13223877  1
  V  V46  1  0.24961265  0.25380112  0.50436277  1
  V  V47  1  0.87427400  0.12214707  0.24919287  1
  V  V48  1  0.11999265  0.25552616  0.87129764  1
  V  V49  1  0.74716657  0.25259916  -0.01302194  1
  V  V50  1  0.86745028  -0.00001701  0.85936324  1
  V  V51  1  0.74649383  0.76313509  0.00999871  1
  V  V52  1  -0.00063773  0.12600120  0.12105544  1
  V  V53  1  0.74435151  0.48877035  0.24536691  1
  V  V54  1  0.38822598  0.87671261  0.49846952  1
  V  V55  1  0.12407905  0.12462190  0.49806153  1
  V  V56  1  0.36898525  0.38048319  0.00613349  1
  V  V57  1  0.11361698  0.61263947  0.51520191  1
  V  V58  1  0.50392045  0.62252340  0.62942883  1
  V  V59  1  0.74604558  0.36379068  0.61971223  1
  V  V60  1  0.12083100  0.12844246  -0.00186749  1
  V  V61  1  0.61886091  0.75828801  0.86097528  1
  V  V62  1  0.62012603  0.74389679  0.36755725  1
  V  V63  1  0.50300350  0.62863554  0.13139573  1
  V  V64  1  0.50323345  0.37717710  0.86787093  1
  V  V65  1  0.37835994  0.63056339  0.25289093  1
  V  V66  1  0.25361560  0.74726369  0.50255593  1
  V  V67  1  0.86941095  0.87660735  0.01076799  1
  V  V68  1  0.63260967  -0.00408193  0.12429915  1
  V  V69  1  0.87540308  0.25905503  0.11491601  1
  V  V70  1  0.38054833  0.50012937  0.37686969  1
  V  V71  1  0.48739121  0.86803471  0.87242220  1
  V  V72  1  0.00147057  -0.00518891  0.49548571  1
  V  V73  1  0.00189705  0.26114424  0.24337857  1
  V  V74  1  0.74251393  0.11842371  0.86446615  1
  V  V75  1  0.61844514  0.11976759  0.50723009  1
  V  V76  1  -0.00750745  0.73180942  0.24156741  1
  V  V77  1  0.00040610  0.86991753  0.87311956  1
  V  V78  1  0.12550460  0.25645832  0.36752011  1
  Zn  Zn79  1  0.48517307  -0.01041973  0.01043593  1
  Zn  Zn80  1  0.48917059  0.11742646  0.14890018  1
  Zn  Zn81  1  0.12282712  0.49889188  0.12936825  1
  Zn  Zn82  1  -0.01334488  0.25574366  0.73843653  1
  Zn  Zn83  1  0.53075034  0.25443458  0.25235146  1
  Zn  Zn84  1  0.62985479  0.85488248  0.23324684  1
  Zn  Zn85  1  0.75329872  -0.01148266  0.24503983  1
  Zn  Zn86  1  0.87145487  -0.00416511  0.37134941  1
  Zn  Zn87  1  0.00795511  0.74380629  0.74658927  1
  Zn  Zn88  1  0.25143963  0.62035062  0.37777186  1
  Zn  Zn89  1  0.76101835  0.24700122  0.50252059  1
  Zn  Zn90  1  0.25587114  0.87577949  0.62747171  1
  Zn  Zn91  1  0.12733094  0.86907243  0.24485471  1
  Zn  Zn92  1  0.50418319  0.86887220  0.36558885  1
  Zn  Zn93  1  0.25537775  0.00445971  0.74572407  1
  Zn  Zn94  1  0.19032460  0.19130388  0.18533971  1
  Zn  Zn95  1  0.17758853  0.19377509  0.68655072  1
  Zn  Zn96  1  0.18292540  0.68039258  0.19051273  1
  Zn  Zn97  1  0.19363534  0.68546525  0.68833511  1
  Zn  Zn98  1  0.68737432  0.18156254  0.18170576  1
  Zn  Zn99  1  0.68100485  0.18865133  0.68537258  1
  Zn  Zn100  1  0.71249715  0.67842953  0.18498368  1
  Zn  Zn101  1  0.68971614  0.69641009  0.68345431  1
  Zn  Zn102  1  0.32205481  0.31034465  0.32081471  1
  Zn  Zn103  1  0.31252941  0.31793028  0.81453152  1
  Zn  Zn104  1  0.31349269  0.81467314  0.31072150  1
  Zn  Zn105  1  0.30964035  0.81587018  0.81205502  1
  Zn  Zn106  1  0.80935889  0.30706176  0.30590167  1
  Zn  Zn107  1  0.82066628  0.32318449  0.78132489  1
  Zn  Zn108  1  0.81210848  0.81047305  0.30647780  1
  Zn  Zn109  1  0.80707278  0.81708602  0.80864530  1
  Zn  Zn110  1  0.18817700  0.43734443  0.43523255  1
  Zn  Zn111  1  0.18268893  0.44333123  0.93671515  1
  Zn  Zn112  1  0.19391869  0.93270702  0.43786340  1
  Zn  Zn113  1  0.18889902  0.93892081  0.93706643  1
  Zn  Zn114  1  0.69397769  0.43674249  0.44696944  1
  Zn  Zn115  1  0.68661374  0.43802186  0.93400642  1
  Zn  Zn116  1  0.68414259  0.94063943  0.43197116  1
  Zn  Zn117  1  0.67776645  0.94179789  0.93246496  1
  Zn  Zn118  1  0.31042395  0.06814527  0.05551707  1
  Zn  Zn119  1  0.31526556  0.06344757  0.55803856  1
  Zn  Zn120  1  0.28097911  0.57919952  0.08115353  1
  Zn  Zn121  1  0.30627227  0.56125337  0.56883497  1
  Zn  Zn122  1  0.81185299  0.06782984  0.05416702  1
  Zn  Zn123  1  0.80463147  0.05004446  0.56445194  1
  Zn  Zn124  1  0.81458228  0.56664442  0.06679770  1
  Zn  Zn125  1  0.86078435  0.52640681  0.58606999  1
  Zn  Zn126  1  0.43999742  0.43548381  0.18977566  1
  Zn  Zn127  1  0.40662173  0.44591845  0.68224543  1
  Zn  Zn128  1  0.44905662  0.93354213  0.19300141  1
  Zn  Zn129  1  0.44068833  0.93414858  0.69603998  1
  Zn  Zn130  1  0.93097415  0.44644786  0.18526406  1
  Zn  Zn131  1  0.93823281  0.42895446  0.69518018  1
  Zn  Zn132  1  0.94174076  0.93344164  0.18887047  1
  Zn  Zn133  1  0.93682004  0.93436536  0.68321667  1
  Zn  Zn134  1  0.06478614  0.06450766  0.30717277  1
  Zn  Zn135  1  0.05979949  0.05987864  0.81154233  1
  Zn  Zn136  1  0.06716362  0.55859437  0.31821662  1
  Zn  Zn137  1  0.06006244  0.55842300  0.81138839  1
  Zn  Zn138  1  0.56352530  0.06852436  0.30684684  1
  Zn  Zn139  1  0.55995688  0.06156989  0.80729984  1
  Zn  Zn140  1  0.56817682  0.55666477  0.31465542  1
  Zn  Zn141  1  0.55812606  0.56510003  0.81777977  1
  Zn  Zn142  1  0.44053977  0.18564959  0.43814838  1
  Zn  Zn143  1  0.43187759  0.19438072  0.93245390  1
  Zn  Zn144  1  0.44353942  0.68544098  0.44335750  1
  Zn  Zn145  1  0.43524010  0.69139509  0.94563927  1
  Zn  Zn146  1  0.93310683  0.18831984  0.43565265  1
  Zn  Zn147  1  0.91256901  0.20620076  0.90241973  1
  Zn  Zn148  1  0.93968038  0.68278872  0.43610817  1
  Zn  Zn149  1  0.93069212  0.69333321  0.93973660  1
  Zn  Zn150  1  0.06282417  0.32451693  0.06239992  1
  Zn  Zn151  1  0.05776450  0.31301908  0.56414443  1
  Zn  Zn152  1  0.05968460  0.81436005  0.06360950  1
  Zn  Zn153  1  0.05973891  0.80362398  0.56689204  1
  Zn  Zn154  1  0.55643222  0.30912123  0.05481769  1
  Zn  Zn155  1  0.57302911  0.30632058  0.56209643  1
  Zn  Zn156  1  0.55987329  0.81334932  0.05497587  1
  Zn  Zn157  1  0.57418141  0.81117392  0.55661844  1
  O  O158  1  0.12104732  0.12207387  0.11774949  1
  O  O159  1  0.11986434  0.11693724  0.61209411  1
  O  O160  1  0.16894355  0.60218883  0.11428335  1
  O  O161  1  0.13083509  0.62784097  0.61473261  1
  O  O162  1  0.61899309  0.11854292  0.10993561  1
  O  O163  1  0.61249385  0.12170038  0.61910667  1
  O  O164  1  0.61848387  0.63288507  0.11405372  1
  O  O165  1  0.62056030  0.63180887  0.61359385  1
  O  O166  1  0.38742355  0.38081741  0.38822264  1
  O  O167  1  0.37859257  0.38796815  0.88322770  1
  O  O168  1  0.37809660  0.88132273  0.38065247  1
  O  O169  1  0.38189175  0.88170233  0.87586370  1
  O  O170  1  0.88604957  0.37542388  0.36877350  1
  O  O171  1  0.88160928  0.39411243  0.86725610  1
  O  O172  1  0.88824517  0.87149233  0.38511454  1
  O  O173  1  0.87963423  0.88700678  0.88179588  1
  O  O174  1  0.25455523  0.00547638  0.36746530  1
  O  O175  1  0.25524844  0.01145187  0.87511092  1
  O  O176  1  0.26741679  0.50031564  0.37333131  1
  O  O177  1  0.25765842  0.52170512  0.88843875  1
  O  O178  1  0.75345829  0.01317532  0.36797340  1
  O  O179  1  0.75595185  0.00684778  0.87545373  1
  O  O180  1  0.75993715  0.49089765  0.36626430  1
  O  O181  1  0.75169130  0.51483286  0.87532983  1
  O  O182  1  0.27542603  0.48489540  0.14757017  1
  O  O183  1  0.30146191  0.48029141  0.64055548  1
  O  O184  1  0.25017628  0.99709974  0.12878683  1
  O  O185  1  0.24044816  1.00092423  0.62307831  1
  O  O186  1  0.75508074  0.47969214  0.13100317  1
  O  O187  1  0.75827887  0.49160757  0.64155907  1
  O  O188  1  0.73683263  1.00734845  0.12004954  1
  O  O189  1  0.73372397  0.99057442  0.62378008  1
  O  O190  1  -0.00490555  0.36243095  0.24903014  1
  O  O191  1  0.01019574  0.37393439  0.76596881  1
  O  O192  1  0.00640604  0.86877677  0.26161430  1
  O  O193  1  0.00731196  0.87745920  0.75720435  1
  O  O194  1  0.49917524  0.37356083  0.26790409  1
  O  O195  1  0.48479780  0.36914896  0.75256639  1
  O  O196  1  0.51841294  0.87129216  0.25392971  1
  O  O197  1  0.50348428  0.87856135  0.77164759  1
  O  O198  1  0.49993832  0.14532640  0.25759467  1
  O  O199  1  0.50279652  0.13989718  0.73856502  1
  O  O200  1  0.49415159  0.61232715  0.23948992  1
  O  O201  1  0.49208230  0.62401511  0.74128569  1
  O  O202  1  0.99446484  0.13357040  0.24146541  1
  O  O203  1  1.00310196  0.11861477  0.73028390  1
  O  O204  1  1.00591380  0.63219019  0.25558218  1
  O  O205  1  0.98194237  0.62761866  0.76271075  1
  O  O206  1  0.36613408  0.26218140  0.00147960  1
  O  O207  1  0.36616425  0.25401049  0.50277671  1
  O  O208  1  0.36640529  0.74970707  0.01682103  1
  O  O209  1  0.37213779  0.75515382  0.50582519  1
  O  O210  1  0.85722290  0.24158203  0.00243066  1
  O  O211  1  0.87447181  0.24857875  0.50490994  1
  O  O212  1  0.85490269  0.76056607  -0.00480974  1
  O  O213  1  0.88077847  0.75800211  0.50699156  1
  O  O214  1  0.13004974  0.24310955  0.49062454  1
  O  O215  1  0.13195025  0.24946578  0.99389225  1
  O  O216  1  0.13511785  0.74374812  0.49720112  1
  O  O217  1  0.13714147  0.75210034  1.00300094  1
  O  O218  1  0.63954955  0.22899948  0.50519330  1
  O  O219  1  0.63373543  0.23831401  1.00230922  1
  O  O220  1  0.62584427  0.72756014  0.48770194  1
  O  O221  1  0.63191789  0.74464273  0.98854793  1
  O  O222  1  0.48717109  0.25163646  0.12701959  1
  O  O223  1  0.49298916  0.24645219  0.63484583  1
  O  O224  1  0.49353219  0.73929147  0.11885052  1
  O  O225  1  0.49303510  0.73801366  0.61425399  1
  O  O226  1  0.99500714  0.24617442  0.12495834  1
  O  O227  1  1.00086026  0.23130211  0.62235268  1
  O  O228  1  1.00967701  0.75192370  0.14306413  1
  O  O229  1  0.98168164  0.75411184  0.63279485  1
  O  O230  1  0.00561637  0.25809442  0.36547523  1
  O  O231  1  0.01394553  0.26214448  0.89160532  1
  O  O232  1  0.01073812  0.75409021  0.37167538  1
  O  O233  1  -0.00883821  0.76687031  0.87187444  1
  O  O234  1  0.49876292  0.26490511  0.38066438  1
  O  O235  1  0.48592438  0.26140622  0.85621921  1
  O  O236  1  0.51670957  0.73836661  0.37098639  1
  O  O237  1  0.50620527  0.75781710  0.87969483  1
  O  O238  1  0.24057069  0.13041661  0.48984893  1
  O  O239  1  0.24017506  0.13684040  0.98857320  1
  O  O240  1  0.25202239  0.63565059  0.50031211  1
  O  O241  1  0.25749613  0.64304633  0.98605544  1
  O  O242  1  0.74875577  0.12014391  0.48663694  1
  O  O243  1  0.73714443  0.13498357  0.99280018  1
  O  O244  1  0.73975134  0.60906225  0.49038346  1
  O  O245  1  0.74164134  0.63872471  0.99103109  1
  O  O246  1  0.25793696  0.37041404  -0.00966984  1
  O  O247  1  0.25907537  0.36237165  0.49089932  1
  O  O248  1  0.24885530  0.86619500  0.00714714  1
  O  O249  1  0.26137696  0.86243524  0.50311741  1
  O  O250  1  0.73998572  0.36151977  0.00548650  1
  O  O251  1  0.75836098  0.37314043  0.51631797  1
  O  O252  1  0.75325558  0.86864301  -0.01153639  1
  O  O253  1  0.76618775  0.87674082  0.48876315  1
  O  O254  1  0.14938305  0.50707074  0.25579674  1
  O  O255  1  0.12358678  0.49014080  0.74926459  1
  O  O256  1  0.13748010  0.99975905  0.24213918  1
  O  O257  1  0.12559857  0.99327691  0.73868418  1
  O  O258  1  0.64361193  0.49549730  0.25281071  1
  O  O259  1  0.63703561  0.51947138  0.75010783  1
  O  O260  1  0.62755333  1.00922674  0.22956486  1
  O  O261  1  0.61442824  0.97879309  0.75823918  1
  O  O262  1  0.36350931  -0.00466226  0.25863691  1
  O  O263  1  0.37047349  -0.00312854  0.76750077  1
  O  O264  1  0.37543578  0.50363588  0.26285822  1
  O  O265  1  0.37983745  0.51650480  0.77143580  1
  O  O266  1  0.87721307  0.00992471  0.24684755  1
  O  O267  1  0.87762620  -0.00176449  0.76061707  1
  O  O268  1  0.86020017  0.49310269  0.26149691  1
  O  O269  1  0.86088280  0.51795834  0.76433156  1
  O  O270  1  0.11251947  0.36439537  0.37934504  1
  O  O271  1  0.11721783  0.37186523  0.87077264  1
  O  O272  1  0.12093234  0.86293845  0.37700951  1
  O  O273  1  0.11329167  0.88739564  0.86504660  1
  O  O274  1  0.61434742  0.37820109  0.38637332  1
  O  O275  1  0.60242873  0.38214365  0.87886407  1
  O  O276  1  0.62819163  0.84832681  0.38745020  1
  O  O277  1  0.61936615  0.86117281  0.87431179  1
  O  O278  1  0.37725717  0.14254818  0.11263795  1
  O  O279  1  0.38849321  0.13382422  0.61331070  1
  O  O280  1  0.38175127  0.63289729  0.13368236  1
  O  O281  1  0.38343405  0.63426512  0.63538743  1
  O  O282  1  0.87907424  0.13384450  0.12855091  1
  O  O283  1  0.88817827  0.11116099  0.61607189  1
  O  O284  1  0.81480390  0.64233971  0.14496421  1
  O  O285  1  0.86949383  0.63482181  0.63924547  1
  O  O286  1  0.25887111  0.24687913  0.11046592  1
  O  O287  1  0.25524621  0.23739934  0.61076496  1
  O  O288  1  0.25505312  0.75873692  0.11643339  1
  O  O289  1  0.26636959  0.75101936  0.61787795  1
  O  O290  1  0.75551142  0.25910927  0.11399315  1
  O  O291  1  0.74862599  0.25783673  0.62845698  1
  O  O292  1  0.73102145  0.76738689  0.10703864  1
  O  O293  1  0.76901664  0.75127437  0.62503476  1
  O  O294  1  0.24447270  0.24179545  0.38099804  1
  O  O295  1  0.24095545  0.24622224  0.88237143  1
  O  O296  1  0.24509594  0.74925724  0.38384363  1
  O  O297  1  0.25250322  0.74785483  0.88770919  1
  O  O298  1  0.76033479  0.23177382  0.37546268  1
  O  O299  1  0.75029939  0.23858874  0.88496257  1
  O  O300  1  0.75277455  0.72836746  0.37605198  1
  O  O301  1  0.73662292  0.74629884  0.87589112  1
  O  O302  1  0.00405763  0.11954304  0.00399165  1
  O  O303  1  0.00867562  0.11449999  0.50071994  1
  O  O304  1  -0.00374006  0.62258364  -0.00244550  1
  O  O305  1  0.01433072  0.62584491  0.50012776  1
  O  O306  1  0.51112531  0.13305164  -0.00953569  1
  O  O307  1  0.51072276  0.13078285  0.51211765  1
  O  O308  1  0.50504332  0.61986487  0.00915873  1
  O  O309  1  0.50752202  0.61388370  0.51010421  1
  O  O310  1  0.49696616  0.37977595  0.49701221  1
  O  O311  1  0.48973601  0.38270359  0.99169550  1
  O  O312  1  0.49116640  0.86493382  0.49147996  1
  O  O313  1  0.50597080  0.88016013  0.98012794  1
  O  O314  1  0.99660340  0.37096831  0.48686978  1
  O  O315  1  0.99683040  0.38870470  0.98814131  1
  O  O316  1  1.00163285  0.87976470  0.49105333  1
  O  O317  1  0.99220194  0.88097432  0.99280497  1
  O  O318  1  0.49690844  0.49114208  0.38519100  1
  O  O319  1  0.49025418  0.49892572  0.88638737  1
  O  O320  1  0.48702540  1.00254559  0.36907140  1
  O  O321  1  0.48424293  0.99938373  0.87806359  1
  O  O322  1  0.99089805  0.48237233  0.36527973  1
  O  O323  1  0.98944371  0.50058802  0.88480338  1
  O  O324  1  1.00525438  0.99053857  0.38098678  1
  O  O325  1  0.98612754  0.99657447  0.87937696  1
  O  O326  1  0.00715849  0.00520511  0.11927273  1
  O  O327  1  0.00902936  0.00425840  0.61281805  1
  O  O328  1  -0.00563265  0.50410931  0.10997568  1
  O  O329  1  -0.03448459  0.50252428  0.61935742  1
  O  O330  1  0.50619358  0.00628141  0.12229967  1
  O  O331  1  0.49167569  0.01539150  0.63286607  1
  O  O332  1  0.49400710  0.50898664  0.11377048  1
  O  O333  1  0.49158099  0.50987165  0.61825995  1
  O  O334  1  0.25288314  0.38413360  0.26845071  1
  O  O335  1  0.23101340  0.37075025  0.75756603  1
  O  O336  1  0.24756281  0.88381933  0.23982604  1
  O  O337  1  0.23967924  0.88096109  0.74729617  1
  O  O338  1  0.75004369  0.37646216  0.23477091  1
  O  O339  1  0.73355135  0.39740506  0.77233274  1
  O  O340  1  0.73978080  0.87663573  0.25658093  1
  O  O341  1  0.75917885  0.89634615  0.74841047  1
  O  O342  1  0.24578716  0.11748372  0.26023873  1
  O  O343  1  0.23852976  0.12740496  0.76209912  1
  O  O344  1  0.26921469  0.61474853  0.25674656  1
  O  O345  1  0.26402205  0.63775871  0.76771222  1
  O  O346  1  0.76119733  0.12330522  0.25556978  1
  O  O347  1  0.73659573  0.12908892  0.76631942  1
  O  O348  1  0.74724256  0.60389890  0.27192863  1
  O  O349  1  0.75461687  0.62376034  0.75839502  1
  O  O350  1  0.36261746  0.11565891  0.38638037  1
  O  O351  1  0.36347615  0.11865255  0.87604977  1
  O  O352  1  0.38381169  0.61605903  0.37022509  1
  O  O353  1  0.37591762  0.62611685  0.87126095  1
  O  O354  1  0.87537638  0.11976230  0.36144417  1
  O  O355  1  0.85722866  0.10658587  0.88167064  1
  O  O356  1  0.86643221  0.60981202  0.38114686  1
  O  O357  1  0.86159569  0.62623482  0.86937697  1
  O  O358  1  0.12812809  0.38725942  0.12397578  1
  O  O359  1  0.11850328  0.36705698  0.64095637  1
  O  O360  1  0.13793718  0.88425873  0.12339539  1
  O  O361  1  0.12434934  0.88421251  0.62990360  1
  O  O362  1  0.63043687  0.37432761  0.11946997  1
  O  O363  1  0.64314141  0.37441856  0.62663399  1
  O  O364  1  0.62004418  0.89253642  0.11584488  1
  O  O365  1  0.64544074  0.85886235  0.62426057  1
  O  O366  1  0.11696264  0.24260151  0.25924380  1
  O  O367  1  0.11371138  0.25386113  0.76233682  1
  O  O368  1  0.12329367  0.74747619  0.26285836  1
  O  O369  1  0.12541815  0.76546752  0.74195262  1
  O  O370  1  0.64157521  0.25981649  0.24367587  1
  O  O371  1  0.60763559  0.25865418  0.74818068  1
  O  O372  1  0.64084146  0.73552853  0.26464881  1
  O  O373  1  0.62236962  0.74386655  0.76247432  1
  O  O374  1  0.36573573  0.25464727  0.23148210  1
  O  O375  1  0.37094103  0.25293121  0.73545677  1
  O  O376  1  0.37019409  0.74005655  0.24073176  1
  O  O377  1  0.37532572  0.74706324  0.74065084  1
  O  O378  1  0.88323243  0.24132790  0.23731921  1
  O  O379  1  0.89001830  0.23916424  0.79303250  1
  O  O380  1  0.89438423  0.74872033  0.25955780  1
  O  O381  1  0.87203625  0.74071381  0.74540748  1
  O  O382  1  0.38600860  0.49281757  0.49333120  1
  O  O383  1  0.38222995  0.49673460  0.99437887  1
  O  O384  1  0.36838779  0.98694080  0.48976073  1
  O  O385  1  0.37024964  1.00212518  0.98397146  1
  O  O386  1  0.86861845  0.49162083  0.47753522  1
  O  O387  1  0.87947645  0.51279775  0.99046521  1
  O  O388  1  0.88675195  0.98488908  0.49745249  1
  O  O389  1  0.87880330  0.99353553  0.99380248  1
  O  O390  1  0.11897405  0.00763730  0.00370095  1
  O  O391  1  0.12174815  0.00432920  0.50322307  1
  O  O392  1  0.10561769  0.50611909  -0.00621373  1
  O  O393  1  0.13471881  0.51462785  0.49713868  1
  O  O394  1  0.62004445  0.01279779  0.00612213  1
  O  O395  1  0.62627436  0.01823805  0.49302464  1
  O  O396  1  0.61435662  0.51356806  -0.00748598  1
  O  O397  1  0.61572086  0.50988193  0.49758688  1
  O  O398  1  0.38215353  0.36527303  0.11222000  1
  O  O399  1  0.38398796  0.35638446  0.60911454  1
  O  O400  1  0.36667505  0.86834373  0.13317785  1
  O  O401  1  0.38033499  0.86898675  0.61805074  1
  O  O402  1  0.87266662  0.36050451  0.12361812  1
  O  O403  1  0.84609647  0.36525126  0.66987745  1
  O  O404  1  0.87728669  0.88003228  0.11052812  1
  O  O405  1  0.87687723  0.86788856  0.60920428  1
  O  O406  1  0.13079572  0.13237532  0.38164329  1
  O  O407  1  0.12617166  0.13371403  0.87915154  1
  O  O408  1  0.12963821  0.63362459  0.38873555  1
  O  O409  1  0.13824029  0.62847078  0.86550547  1
  O  O410  1  0.63651968  0.12526435  0.38093244  1
  O  O411  1  0.63358059  0.11513547  0.88632316  1
  O  O412  1  0.63542818  0.62481660  0.38421941  1
  O  O413  1  0.62615201  0.63683659  0.88447494  1
