# generated using pymatgen
data_V79Zn79O256
_symmetry_space_group_name_H-M   'P 1'
_cell_length_a   16.91111874
_cell_length_b   16.93740902
_cell_length_c   16.93658075
_cell_angle_alpha   90.20022023
_cell_angle_beta   90.06462720
_cell_angle_gamma   89.93062134
_symmetry_Int_Tables_number   1
_chemical_formula_structural   V79Zn79O256
_chemical_formula_sum   'V79 Zn79 O256'
_cell_volume   4851.11764862
_cell_formula_units_Z   1
loop_
 _symmetry_equiv_pos_site_id
 _symmetry_equiv_pos_as_xyz
  1  'x, y, z'
loop_
 _atom_site_type_symbol
 _atom_site_label
 _atom_site_symmetry_multiplicity
 _atom_site_fract_x
 _atom_site_fract_y
 _atom_site_fract_z
 _atom_site_occupancy
  V  V0  1  0.48773620  0.11951379  0.62229975  1
  V  V1  1  0.62932005  0.63204331  -0.00044452  1
  V  V2  1  0.61783768  0.87361458  0.75951745  1
  V  V3  1  0.87974563  0.37496614  0.00236181  1
  V  V4  1  0.37458695  0.27107764  0.62127733  1
  V  V5  1  0.12567488  0.61242540  -0.00265352  1
  V  V6  1  0.50413839  0.62078354  0.14257730  1
  V  V7  1  0.87249736  0.00106407  0.87200777  1
  V  V8  1  0.25475737  0.86385431  0.62265084  1
  V  V9  1  0.62176675  0.36318799  0.76330872  1
  V  V10  1  0.01561315  0.25172130  0.25340405  1
  V  V11  1  0.00029914  0.87347797  0.87383721  1
  V  V12  1  0.24909677  0.86857465  0.10224242  1
  V  V13  1  0.35492723  0.61846435  0.24876970  1
  V  V14  1  0.25871925  0.12548454  0.87048424  1
  V  V15  1  0.75916462  0.36851368  0.12866543  1
  V  V16  1  0.62109796  0.76045169  0.35461578  1
  V  V17  1  0.49279876  0.48715713  -0.00881531  1
  V  V18  1  0.13119564  0.63226135  0.48591204  1
  V  V19  1  0.26637286  0.61685780  0.87529024  1
  V  V20  1  0.12678137  0.25105160  0.87166193  1
  V  V21  1  0.50142751  0.25249660  0.24259823  1
  V  V22  1  0.38297192  0.87811193  0.49584561  1
  V  V23  1  0.75062612  0.25041463  0.50388943  1
  V  V24  1  0.49934056  0.38172723  0.38706246  1
  V  V25  1  0.62576480  0.25113438  0.37534394  1
  V  V26  1  0.87323984  0.86466706  0.00786202  1
  V  V27  1  0.62118430  0.11962589  0.50231300  1
  V  V28  1  0.12776176  0.87161863  0.75304213  1
  V  V29  1  0.74085772  0.75454102  0.49454157  1
  V  V30  1  0.38753354  0.73539412  0.62672671  1
  V  V31  1  0.87132377  0.38422409  0.50009925  1
  V  V32  1  0.00080795  0.38330587  0.87891365  1
  V  V33  1  0.11372926  -0.01259566  0.14802802  1
  V  V34  1  0.11992317  0.49696987  0.14115742  1
  V  V35  1  0.74996831  0.24937826  -0.00175980  1
  V  V36  1  0.87922708  0.13265501  0.24559899  1
  V  V37  1  0.37472591  0.25669605  0.12255013  1
  V  V38  1  -0.00110179  0.63840193  0.12154778  1
  V  V39  1  0.74999134  0.63519125  0.88113841  1
  V  V40  1  0.74879244  0.86568808  0.12226096  1
  V  V41  1  0.37502581  0.13598562  0.25281726  1
  V  V42  1  0.75342141  0.87581637  0.61915939  1
  V  V43  1  0.26275591  0.49979898  0.73982181  1
  V  V44  1  0.00267865  0.25047325  0.74653588  1
  V  V45  1  0.50265691  0.73804206  0.76457446  1
  V  V46  1  0.74495785  0.00183488  0.74714780  1
  V  V47  1  0.63202785  0.38255721  0.24881346  1
  V  V48  1  0.25059667  0.26585353  0.50312357  1
  V  V49  1  0.26086079  -0.01296951  0.25794090  1
  V  V50  1  0.73838079  0.12977344  0.87250536  1
  V  V51  1  0.87476028  0.12648657  0.74885645  1
  V  V52  1  0.01181088  0.37294993  0.37067913  1
  V  V53  1  0.63274261  0.49501979  0.12390705  1
  V  V54  1  0.49366496  0.25136087  0.75835668  1
  V  V55  1  0.13259289  0.74571483  0.88284357  1
  V  V56  1  0.25395222  0.12938062  0.37675605  1
  V  V57  1  0.25233964  0.26492367  -0.00270245  1
  V  V58  1  0.87236493  0.25207758  0.62295748  1
  V  V59  1  0.74787985  0.61721018  0.36272543  1
  V  V60  1  0.00025786  0.00536106  -0.00692362  1
  V  V61  1  0.88072315  0.00058010  0.37497588  1
  V  V62  1  0.74759539  0.49036334  0.74823328  1
  V  V63  1  0.37840540  0.74860096  0.11717738  1
  V  V64  1  0.74736948  0.00042766  0.24031074  1
  V  V65  1  0.88489383  0.63296173  0.24783826  1
  V  V66  1  0.61412081  0.12077682  0.00823441  1
  V  V67  1  0.00572819  0.61608614  0.62605258  1
  V  V68  1  0.38141787  -0.01377633  0.88540255  1
  V  V69  1  0.36868568  0.49455362  0.38180518  1
  V  V70  1  0.12884527  0.12487003  0.49385824  1
  V  V71  1  0.24860190  0.38231057  0.14625687  1
  V  V72  1  0.12894342  0.12415796  -0.00037996  1
  V  V73  1  -0.00312972  0.13623183  0.12123645  1
  V  V74  1  0.25782472  0.00128594  0.75080625  1
  V  V75  1  0.87748611  0.75164434  0.63123024  1
  V  V76  1  0.93517258  0.82257236  0.43966003  1
  V  V77  1  0.12755114  0.38471823  0.73406913  1
  V  V78  1  0.00160682  -0.00101436  0.49628680  1
  Zn  Zn79  1  0.00508511  0.12216027  0.62296596  1
  Zn  Zn80  1  0.00858079  0.49461341  0.50219953  1
  Zn  Zn81  1  0.75239452  0.12349033  0.37382491  1
  Zn  Zn82  1  0.43726219  -0.06589489  0.06115520  1
  Zn  Zn83  1  0.12923712  -0.00278399  0.62209786  1
  Zn  Zn84  1  0.60555773  -0.00263071  0.12309456  1
  Zn  Zn85  1  0.51276719  0.89264980  0.37952033  1
  Zn  Zn86  1  0.23579249  0.60475609  0.36637839  1
  Zn  Zn87  1  0.53964978  0.59788438  0.56615382  1
  Zn  Zn88  1  0.86876011  0.48840502  0.35036438  1
  Zn  Zn89  1  0.61525010  -0.00618114  0.61648419  1
  Zn  Zn90  1  0.87339714  0.50114764  0.88061587  1
  Zn  Zn91  1  -0.00193083  0.74643598  0.75272203  1
  Zn  Zn92  1  0.87143567  0.62171928  0.75178896  1
  Zn  Zn93  1  0.61756987  0.46770928  0.61923455  1
  Zn  Zn94  1  0.18901882  0.18634444  0.18341480  1
  Zn  Zn95  1  0.19056876  0.18716991  0.68174800  1
  Zn  Zn96  1  0.18120690  0.69486849  0.18799421  1
  Zn  Zn97  1  0.19060430  0.68240642  0.69225184  1
  Zn  Zn98  1  0.69013119  0.18796868  0.18425952  1
  Zn  Zn99  1  0.68068328  0.19165388  0.68529391  1
  Zn  Zn100  1  0.69129029  0.68526426  0.18584020  1
  Zn  Zn101  1  0.68438368  0.68809220  0.69505213  1
  Zn  Zn102  1  0.30999964  0.31267997  0.31968221  1
  Zn  Zn103  1  0.31487388  0.32035099  0.80934458  1
  Zn  Zn104  1  0.36340435  0.82520736  0.29125271  1
  Zn  Zn105  1  0.31731830  0.80505889  0.81263800  1
  Zn  Zn106  1  0.81587059  0.30928952  0.31412756  1
  Zn  Zn107  1  0.81401833  0.31266373  0.81575738  1
  Zn  Zn108  1  0.80958682  0.81048756  0.30207709  1
  Zn  Zn109  1  0.80746057  0.81667789  0.81475168  1
  Zn  Zn110  1  0.18437290  0.44669874  0.44585697  1
  Zn  Zn111  1  0.18780169  0.44107298  0.92950378  1
  Zn  Zn112  1  0.19575358  0.93306924  0.43440470  1
  Zn  Zn113  1  0.18941340  0.93964434  0.93364175  1
  Zn  Zn114  1  0.68695593  0.43721430  0.43884313  1
  Zn  Zn115  1  0.68806983  0.44026527  0.93737515  1
  Zn  Zn116  1  0.69367124  0.93804599  0.43204257  1
  Zn  Zn117  1  0.56495904  0.93538359  0.93733441  1
  Zn  Zn118  1  0.31063178  0.06405303  0.06938227  1
  Zn  Zn119  1  0.31255209  0.05700827  0.56149310  1
  Zn  Zn120  1  0.31039058  0.55858547  0.05897159  1
  Zn  Zn121  1  0.30795388  0.56364446  0.55755867  1
  Zn  Zn122  1  0.81205336  0.06360788  0.05769667  1
  Zn  Zn123  1  0.81383670  0.06502231  0.56122126  1
  Zn  Zn124  1  0.81679201  0.55861086  0.06572225  1
  Zn  Zn125  1  0.72095384  0.57716560  0.55542657  1
  Zn  Zn126  1  0.44077112  0.43998957  0.18921785  1
  Zn  Zn127  1  0.44488155  0.44491610  0.68703241  1
  Zn  Zn128  1  0.46412753  0.96371258  0.23822086  1
  Zn  Zn129  1  0.43416688  0.93649036  0.68999652  1
  Zn  Zn130  1  0.93918535  0.44145398  0.18652072  1
  Zn  Zn131  1  0.93172509  0.43782060  0.68962742  1
  Zn  Zn132  1  0.93902871  0.94480792  0.18489868  1
  Zn  Zn133  1  0.93933601  0.93854234  0.68537720  1
  Zn  Zn134  1  0.06618267  0.05221758  0.30737150  1
  Zn  Zn135  1  0.06737508  0.06291800  0.81013365  1
  Zn  Zn136  1  0.05194401  0.56044674  0.31523730  1
  Zn  Zn137  1  0.06366990  0.56357668  0.80843966  1
  Zn  Zn138  1  0.56556565  0.06993744  0.31423024  1
  Zn  Zn139  1  0.55697959  0.06717175  0.80641393  1
  Zn  Zn140  1  0.54008630  0.59093611  0.36388624  1
  Zn  Zn141  1  0.56727838  0.55575488  0.81301714  1
  Zn  Zn142  1  0.43690967  0.19167822  0.43989752  1
  Zn  Zn143  1  0.43193930  0.18817634  0.94106193  1
  Zn  Zn144  1  0.42697405  0.69883099  0.43843087  1
  Zn  Zn145  1  0.44721507  0.68164897  0.94445281  1
  Zn  Zn146  1  0.94105891  0.18729968  0.43386672  1
  Zn  Zn147  1  0.93363912  0.19345612  0.93323776  1
  Zn  Zn148  1  0.89770221  0.64664793  0.47012758  1
  Zn  Zn149  1  0.94177589  0.68518915  0.93748349  1
  Zn  Zn150  1  0.06802104  0.31627614  0.06288120  1
  Zn  Zn151  1  0.06150412  0.30917178  0.55651005  1
  Zn  Zn152  1  0.06298597  0.81245295  0.05737517  1
  Zn  Zn153  1  0.06895575  0.80792933  0.56659150  1
  Zn  Zn154  1  0.56713866  0.30880212  0.05618550  1
  Zn  Zn155  1  0.56471002  0.30988598  0.57117811  1
  Zn  Zn156  1  0.56571930  0.80879383  0.07507744  1
  Zn  Zn157  1  0.56303221  0.80916461  0.56428149  1
  O  O158  1  0.11940865  0.11390443  0.11553388  1
  O  O159  1  0.12749896  0.11706236  0.61167886  1
  O  O160  1  0.12109045  0.61655968  0.12004678  1
  O  O161  1  0.10854608  0.63207807  0.62505696  1
  O  O162  1  0.62986182  0.12183636  0.11245393  1
  O  O163  1  0.61511223  0.12616264  0.61469438  1
  O  O164  1  0.62516300  0.61387688  0.12238277  1
  O  O165  1  0.63838502  0.63625161  0.60967238  1
  O  O166  1  0.38857180  0.38326405  0.37046652  1
  O  O167  1  0.37033392  0.37086876  0.88979034  1
  O  O168  1  0.35365029  0.85105585  0.40233398  1
  O  O169  1  0.36815987  0.88767188  0.87800995  1
  O  O170  1  0.87792245  0.37455252  0.38662593  1
  O  O171  1  0.88573286  0.37313221  0.88300088  1
  O  O172  1  0.87828777  0.88196047  0.37174670  1
  O  O173  1  0.87874440  0.88166890  0.88453616  1
  O  O174  1  0.25435693  0.00811574  0.36299350  1
  O  O175  1  0.25851265  0.00656673  0.87034208  1
  O  O176  1  0.26415762  0.48818144  0.37137591  1
  O  O177  1  0.24854475  0.51079132  0.86459321  1
  O  O178  1  0.76291936  0.00074713  0.36133688  1
  O  O179  1  0.75608403  0.01172569  0.85626815  1
  O  O180  1  0.75057374  0.51458707  0.37577058  1
  O  O181  1  0.75006442  0.50863725  0.86690969  1
  O  O182  1  0.24212520  0.48758495  0.12440311  1
  O  O183  1  0.25258091  0.50877808  0.64014724  1
  O  O184  1  0.24447727  0.98145590  0.12937788  1
  O  O185  1  0.25261315  0.98717426  0.63653244  1
  O  O186  1  0.74109165  0.48551766  0.11981761  1
  O  O187  1  0.74985593  0.50795816  0.64862654  1
  O  O188  1  0.75706320  0.99812630  0.13457159  1
  O  O189  1  0.75337005  0.99492134  0.63329792  1
  O  O190  1  -0.00678177  0.36631878  0.26219678  1
  O  O191  1  0.00729810  0.36755880  0.75544589  1
  O  O192  1  0.04562992  0.95486642  0.22546320  1
  O  O193  1  0.01151986  0.87794242  0.75635941  1
  O  O194  1  0.51154008  0.36671121  0.25609711  1
  O  O195  1  0.51038491  0.36274630  0.74991000  1
  O  O196  1  0.46885521  0.85920272  0.27571144  1
  O  O197  1  0.51500062  0.87518160  0.74382809  1
  O  O198  1  0.49075625  0.14512071  0.25486354  1
  O  O199  1  0.50522120  0.14067858  0.73195617  1
  O  O200  1  0.50301069  0.61759317  0.24370057  1
  O  O201  1  0.51535239  0.63963515  0.75521507  1
  O  O202  1  0.99850508  0.13080639  0.24105542  1
  O  O203  1  0.99739625  0.13485584  0.74912825  1
  O  O204  1  0.99436051  0.62539461  0.23705551  1
  O  O205  1  0.99383244  0.62595964  0.73970412  1
  O  O206  1  0.36302086  0.24564480  0.01225735  1
  O  O207  1  0.36411365  0.25125582  0.51038341  1
  O  O208  1  0.37049477  0.72781350  0.02025674  1
  O  O209  1  0.37625482  0.75993813  0.52186357  1
  O  O210  1  0.86322469  0.25892936  -0.00289207  1
  O  O211  1  0.86888031  0.25012162  0.50533786  1
  O  O212  1  0.88544745  0.76656296  -0.00068555  1
  O  O213  1  0.87275875  0.76280833  0.50405809  1
  O  O214  1  0.14184699  0.23839422  0.51055209  1
  O  O215  1  0.13335250  0.24157606  0.99496050  1
  O  O216  1  0.12077774  0.73177385  0.50317068  1
  O  O217  1  0.12400929  0.73938874  0.98842890  1
  O  O218  1  0.63270159  0.24548640  0.49376919  1
  O  O219  1  0.64104542  0.23883172  1.00210830  1
  O  O220  1  0.63876413  0.75298207  0.49097108  1
  O  O221  1  0.62752825  0.72955551  1.01463146  1
  O  O222  1  0.48874873  0.26247027  0.13260900  1
  O  O223  1  0.48539692  0.24421153  0.62718885  1
  O  O224  1  0.48611861  0.73721598  0.12640709  1
  O  O225  1  0.49356295  0.74553575  0.63178653  1
  O  O226  1  1.00884768  0.24093606  0.13120797  1
  O  O227  1  0.99303273  0.24728120  0.63286339  1
  O  O228  1  1.01282965  0.73725400  0.12720144  1
  O  O229  1  0.99154131  0.74954391  0.63075460  1
  O  O230  1  -0.00075210  0.26234497  0.36868591  1
  O  O231  1  0.00537592  0.25599742  0.86200509  1
  O  O232  1  -0.01566395  0.75691947  0.38988832  1
  O  O233  1  0.01115631  0.75566585  0.87226723  1
  O  O234  1  0.50819421  0.26164740  0.36839599  1
  O  O235  1  0.48480390  0.24240082  0.85586531  1
  O  O236  1  0.52226233  0.74389559  0.37394227  1
  O  O237  1  0.49282588  0.74960332  0.86396649  1
  O  O238  1  0.24715718  0.12331930  0.49139092  1
  O  O239  1  0.24116223  0.13090085  0.99475274  1
  O  O240  1  0.23703541  0.62438125  0.48754256  1
  O  O241  1  0.24132867  0.61738414  0.98431767  1
  O  O242  1  0.74268141  0.13497975  0.49707394  1
  O  O243  1  0.74633785  0.13023821  0.99057761  1
  O  O244  1  0.77404258  0.64248935  0.47681801  1
  O  O245  1  0.74151172  0.61590365  0.99436485  1
  O  O246  1  0.24228447  0.36571250  -0.00019552  1
  O  O247  1  0.24218972  0.36389091  0.50201963  1
  O  O248  1  0.25033882  0.87151487  0.00361198  1
  O  O249  1  0.24773231  0.87235238  0.52072414  1
  O  O250  1  0.75609281  0.36638457  0.00616809  1
  O  O251  1  0.76264159  0.36189720  0.49429594  1
  O  O252  1  0.76972734  0.87903872  0.01291377  1
  O  O253  1  0.74991661  0.87087121  0.50948532  1
  O  O254  1  0.12523231  0.50629569  0.23960002  1
  O  O255  1  0.12660309  0.48677793  0.74916945  1
  O  O256  1  0.16317291  1.02998962  0.24145658  1
  O  O257  1  0.13562612  0.98723287  0.75262298  1
  O  O258  1  0.62469110  0.48424605  0.24041415  1
  O  O259  1  0.63368306  0.48264977  0.75258051  1
  O  O260  1  0.64594331  1.01163725  0.24681992  1
  O  O261  1  0.63118816  0.99525401  0.74225738  1
  O  O262  1  0.35700427  0.02404092  0.23712923  1
  O  O263  1  0.36403829  -0.00495383  0.76373694  1
  O  O264  1  0.37768416  0.51272383  0.25610202  1
  O  O265  1  0.36087865  0.48549470  0.75234953  1
  O  O266  1  0.87340956  0.01103656  0.25698623  1
  O  O267  1  0.86838819  0.00613018  0.75166025  1
  O  O268  1  0.87595778  0.51823501  0.24069138  1
  O  O269  1  0.86160055  0.49909209  0.75750980  1
  O  O270  1  0.10977049  0.38061545  0.38198484  1
  O  O271  1  0.11738586  0.36820935  0.86746270  1
  O  O272  1  0.13162040  0.85869738  0.36348311  1
  O  O273  1  0.12328186  0.86634172  0.87132062  1
  O  O274  1  0.61982279  0.36945376  0.36846131  1
  O  O275  1  0.63083678  0.36984383  0.86368100  1
  O  O276  1  0.62818426  0.86523508  0.37394998  1
  O  O277  1  0.62998553  0.88562169  0.85730782  1
  O  O278  1  0.35878158  0.14668659  0.13856083  1
  O  O279  1  0.38579196  0.12830938  0.61814334  1
  O  O280  1  0.38028866  0.62189544  0.13640153  1
  O  O281  1  0.37210573  0.63756365  0.62095887  1
  O  O282  1  0.88897582  0.11924112  0.13068934  1
  O  O283  1  0.87995241  0.13509832  0.63023456  1
  O  O284  1  0.89094023  0.62407476  0.12735160  1
  O  O285  1  0.88617114  0.64322829  0.62320634  1
  O  O286  1  0.25042641  0.26628701  0.11837167  1
  O  O287  1  0.26516903  0.24763505  0.61696035  1
  O  O288  1  0.25163207  0.76430158  0.12816523  1
  O  O289  1  0.26363510  0.76028427  0.64193332  1
  O  O290  1  0.75023726  0.25988050  0.11568783  1
  O  O291  1  0.76092933  0.24410359  0.61610612  1
  O  O292  1  0.75304206  0.76698933  0.13135100  1
  O  O293  1  0.75953269  0.75745095  0.61471578  1
  O  O294  1  0.25588239  0.24474211  0.39540434  1
  O  O295  1  0.24658714  0.24265852  0.87885027  1
  O  O296  1  0.16677496  0.79537696  0.32844125  1
  O  O297  1  0.24134748  0.73198675  0.86361886  1
  O  O298  1  0.74015826  0.24847107  0.38242363  1
  O  O299  1  0.75481128  0.23765060  0.88061294  1
  O  O300  1  0.74401243  0.75040687  0.37658018  1
  O  O301  1  0.75223897  0.73470071  0.87482451  1
  O  O302  1  0.00789691  0.12644442  -0.00012903  1
  O  O303  1  0.01166605  0.11872473  0.49827716  1
  O  O304  1  0.00867901  0.62576610  0.01331788  1
  O  O305  1  0.00053961  0.62091363  0.51352279  1
  O  O306  1  0.51664374  0.14022092  -0.00237921  1
  O  O307  1  0.50830097  0.13454666  0.51156942  1
  O  O308  1  0.51629071  0.61529870  0.01311973  1
  O  O309  1  0.49764032  0.61801019  0.46693550  1
  O  O310  1  0.50958601  0.36976415  0.48498137  1
  O  O311  1  0.50783957  0.38747407  1.00386484  1
  O  O312  1  0.48933723  0.87145879  0.49494662  1
  O  O313  1  0.50525857  0.86731474  1.00159048  1
  O  O314  1  0.98935064  0.37177798  0.48945695  1
  O  O315  1  0.99317967  0.36195294  0.98946318  1
  O  O316  1  1.00248877  0.88039706  0.49801368  1
  O  O317  1  0.99523801  0.88707757  0.99439995  1
  O  O318  1  0.49360083  0.48457354  0.36804337  1
  O  O319  1  0.50573509  0.50602019  0.89279241  1
  O  O320  1  0.48900928  0.99927145  0.34723078  1
  O  O321  1  0.48513188  1.00304102  0.87157096  1
  O  O322  1  0.99001446  0.48428272  0.37710788  1
  O  O323  1  0.99937820  0.48594771  0.86957476  1
  O  O324  1  0.99359292  1.00214134  0.38381629  1
  O  O325  1  0.99565506  0.99735963  0.87807446  1
  O  O326  1  0.00489443  0.01526783  0.10339608  1
  O  O327  1  0.00260292  -0.00031759  0.61022720  1
  O  O328  1  0.01706938  0.50419293  0.12508224  1
  O  O329  1  -0.00800694  0.51320327  0.62598760  1
  O  O330  1  0.49358511  -0.00421315  0.13729790  1
  O  O331  1  0.49762988  0.01569914  0.63071286  1
  O  O332  1  0.51326991  0.50388019  0.12184820  1
  O  O333  1  0.51276453  0.51102504  0.63324063  1
  O  O334  1  0.24458324  0.37139789  0.24427700  1
  O  O335  1  0.23479278  0.38410582  0.75082457  1
  O  O336  1  0.26650744  0.88688152  0.25246713  1
  O  O337  1  0.24521919  0.88051495  0.74710673  1
  O  O338  1  0.74416340  0.36411102  0.24189470  1
  O  O339  1  0.74394072  0.38236079  0.75612811  1
  O  O340  1  0.76381311  0.89178449  0.23465537  1
  O  O341  1  0.74045254  0.88290391  0.74206524  1
  O  O342  1  0.26059004  0.14632711  0.26514274  1
  O  O343  1  0.24037843  0.11431888  0.75983755  1
  O  O344  1  0.25083601  0.62163550  0.24944680  1
  O  O345  1  0.24625990  0.61020443  0.76178409  1
  O  O346  1  0.76222175  0.11800079  0.24757317  1
  O  O347  1  0.75166574  0.12235987  0.75202887  1
  O  O348  1  0.76279090  0.62804469  0.25707780  1
  O  O349  1  0.74569326  0.61694949  0.76749582  1
  O  O350  1  0.36821048  0.13504641  0.36560948  1
  O  O351  1  0.36165193  0.11667824  0.88027588  1
  O  O352  1  0.36671085  0.61817610  0.36025021  1
  O  O353  1  0.36422442  0.62718335  0.87990330  1
  O  O354  1  0.87602762  0.11767853  0.36477759  1
  O  O355  1  0.86781142  0.12063979  0.86679149  1
  O  O356  1  0.87076004  0.61906669  0.35929036  1
  O  O357  1  0.86391017  0.62170648  0.88045036  1
  O  O358  1  0.13451710  0.38727208  0.12467273  1
  O  O359  1  0.11644285  0.37369969  0.63566646  1
  O  O360  1  0.13648432  0.88195893  0.11497564  1
  O  O361  1  0.13828510  0.87247658  0.63600607  1
  O  O362  1  0.63572004  0.37638679  0.13135601  1
  O  O363  1  0.63277158  0.35936571  0.64655037  1
  O  O364  1  0.64601540  0.88280370  0.11836287  1
  O  O365  1  0.63696550  0.87702561  0.62917161  1
  O  O366  1  0.11510281  0.24580315  0.24998833  1
  O  O367  1  0.11979236  0.25789633  0.75006557  1
  O  O368  1  0.12470415  0.76881601  0.26590950  1
  O  O369  1  0.12525380  0.76014816  0.75882658  1
  O  O370  1  0.62080234  0.25446614  0.25712449  1
  O  O371  1  0.61164405  0.25343256  0.75428935  1
  O  O372  1  0.63054879  0.75416545  0.25500754  1
  O  O373  1  0.61585522  0.76497083  0.74988146  1
  O  O374  1  0.38300740  0.25353574  0.24505589  1
  O  O375  1  0.38290565  0.25887229  0.73384031  1
  O  O376  1  0.36668160  0.72579108  0.23512785  1
  O  O377  1  0.39362775  0.75693385  0.73974798  1
  O  O378  1  0.88501355  0.23654035  0.25430113  1
  O  O379  1  0.88279534  0.24847499  0.74208511  1
  O  O380  1  0.87551450  0.73364810  0.24893938  1
  O  O381  1  0.87283438  0.74794267  0.74341574  1
  O  O382  1  0.37365575  0.50678349  0.48034942  1
  O  O383  1  0.39458613  0.50354955  1.00950127  1
  O  O384  1  0.36766217  0.97790853  0.50115391  1
  O  O385  1  0.37121044  1.00259624  0.99132944  1
  O  O386  1  0.87226268  0.48288467  0.50426112  1
  O  O387  1  0.87180528  0.48015146  0.99889305  1
  O  O388  1  0.88506960  1.00753349  0.48729677  1
  O  O389  1  0.88631024  0.99996101  0.99103414  1
  O  O390  1  0.11609571  0.01039590  -0.00664176  1
  O  O391  1  0.11880028  0.00283848  0.49590439  1
  O  O392  1  0.12727566  0.50907097  0.00530007  1
  O  O393  1  0.12074006  0.52091550  0.50145340  1
  O  O394  1  0.61969441  0.01626484  0.00130533  1
  O  O395  1  0.63289875  0.01511741  0.49700429  1
  O  O396  1  0.62022029  0.50372952  0.01131587  1
  O  O397  1  0.64074133  0.50400968  0.51297205  1
  O  O398  1  0.35917374  0.36964884  0.13412035  1
  O  O399  1  0.38114855  0.36893096  0.61924349  1
  O  O400  1  0.36344753  0.85755225  0.11905076  1
  O  O401  1  0.36674725  0.86986601  0.62061196  1
  O  O402  1  0.86791291  0.37730332  0.11897803  1
  O  O403  1  0.88300264  0.36244634  0.61135333  1
  O  O404  1  0.87723576  0.88137448  0.11405857  1
  O  O405  1  0.86338534  0.86752374  0.63385104  1
  O  O406  1  0.13756673  0.11987429  0.38500623  1
  O  O407  1  0.13313579  0.13025772  0.88216392  1
  O  O408  1  0.12080546  0.62677805  0.37959847  1
  O  O409  1  0.12384107  0.62946208  0.88206782  1
  O  O410  1  0.62621658  0.13826290  0.38294404  1
  O  O411  1  0.63394730  0.11841974  0.88219253  1
  O  O412  1  0.64538605  0.63884943  0.36582898  1
  O  O413  1  0.63504584  0.62215088  0.89203270  1
