# generated using pymatgen
data_V79Zn79O256
_symmetry_space_group_name_H-M   'P 1'
_cell_length_a   16.86902258
_cell_length_b   16.89484018
_cell_length_c   16.91296159
_cell_angle_alpha   90.14373368
_cell_angle_beta   89.91089545
_cell_angle_gamma   89.75460106
_symmetry_Int_Tables_number   1
_chemical_formula_structural   V79Zn79O256
_chemical_formula_sum   'V79 Zn79 O256'
_cell_volume   4820.11929879
_cell_formula_units_Z   1
loop_
 _symmetry_equiv_pos_site_id
 _symmetry_equiv_pos_as_xyz
  1  'x, y, z'
loop_
 _atom_site_type_symbol
 _atom_site_label
 _atom_site_symmetry_multiplicity
 _atom_site_fract_x
 _atom_site_fract_y
 _atom_site_fract_z
 _atom_site_occupancy
  V  V0  1  0.36384179  0.86792535  0.01220140  1
  V  V1  1  0.13504516  0.37467496  0.75251758  1
  V  V2  1  0.37302964  0.51523212  0.37409261  1
  V  V3  1  0.88741589  0.36444928  0.50123396  1
  V  V4  1  0.61884951  0.50319460  0.12753358  1
  V  V5  1  0.49382179  0.49150337  -0.00203183  1
  V  V6  1  -0.00143773  0.00259926  -0.00245765  1
  V  V7  1  0.74280741  0.63870483  0.87833865  1
  V  V8  1  0.88421972  -0.00439959  0.37459899  1
  V  V9  1  0.00001088  0.25675801  0.25462974  1
  V  V10  1  0.37982288  0.12856546  0.73303157  1
  V  V11  1  0.74972801  0.12822764  0.39031340  1
  V  V12  1  0.24799002  0.25152278  -0.00327089  1
  V  V13  1  0.74534849  0.24798461  -0.01502491  1
  V  V14  1  0.88295086  0.49539041  0.37702465  1
  V  V15  1  0.00694673  0.12309850  0.62818596  1
  V  V16  1  0.50488850  0.49976327  0.50362649  1
  V  V17  1  0.74648674  0.37461582  0.12663724  1
  V  V18  1  0.87459174  0.12537567  0.24890218  1
  V  V19  1  0.36482433  0.00223356  0.37979871  1
  V  V20  1  0.00325486  -0.00669720  0.52027253  1
  V  V21  1  0.13978618  0.62317769  0.49167141  1
  V  V22  1  0.73563899  0.37397659  0.61025379  1
  V  V23  1  0.00239348  0.12969017  0.12278737  1
  V  V24  1  0.86893508  0.75778164  0.13498184  1
  V  V25  1  0.62123992  0.64254085  0.00138495  1
  V  V26  1  0.50051905  0.23844352  0.25006656  1
  V  V27  1  0.62369691  0.13057169  -0.01407655  1
  V  V28  1  0.86979702  0.25071325  0.12387282  1
  V  V29  1  0.48017917  0.74952699  0.24690619  1
  V  V30  1  0.74878889  -0.00125412  0.24675336  1
  V  V31  1  0.49547752  0.00853313  0.00847108  1
  V  V32  1  0.62053153  0.01133611  0.13064660  1
  V  V33  1  0.62805754  0.86639288  0.24855449  1
  V  V34  1  0.51360787  0.75276230  0.75249434  1
  V  V35  1  0.12219427  0.85527079  0.74820159  1
  V  V36  1  0.74826156  0.50207366  0.25002708  1
  V  V37  1  0.87796934  0.86787398  0.49761200  1
  V  V38  1  0.50725417  0.24715393  0.75156535  1
  V  V39  1  0.86693201  0.00941477  0.87406332  1
  V  V40  1  0.74756844  0.62972495  0.37421836  1
  V  V41  1  0.13097668  0.64583764  0.00390427  1
  V  V42  1  0.25795524  0.24274107  0.50101417  1
  V  V43  1  0.62624749  0.62736145  0.49786067  1
  V  V44  1  0.50059058  0.86900635  0.38516976  1
  V  V45  1  0.85765975  0.87313087  -0.00084674  1
  V  V46  1  0.37405625  0.49376886  0.87509696  1
  V  V47  1  0.75150516  0.87452882  0.62502019  1
  V  V48  1  0.12421905  0.37842925  0.25611198  1
  V  V49  1  0.00101973  0.25658827  0.74905095  1
  V  V50  1  0.51124396  0.62440201  0.62664654  1
  V  V51  1  0.25479423  0.50450732  0.25414746  1
  V  V52  1  0.62745199  0.24728656  0.38824679  1
  V  V53  1  0.75342863  0.74673995  0.50558817  1
  V  V54  1  0.01006080  0.50547661  0.01023229  1
  V  V55  1  0.50357319  0.01501585  0.50204677  1
  V  V56  1  0.13394404  0.50236607  0.63335281  1
  V  V57  1  0.86880010  0.50528303  0.87728366  1
  V  V58  1  0.74735600  0.00906227  0.74989473  1
  V  V59  1  0.12077914  0.77258571  0.34134376  1
  V  V60  1  0.37074038  0.75771079  0.62113541  1
  V  V61  1  0.24103389  -0.00249378  0.23596733  1
  V  V62  1  0.12526452  0.13117656  -0.00768139  1
  V  V63  1  0.74315031  0.49899669  0.75052496  1
  V  V64  1  0.37296358  0.00535655  0.87448702  1
  V  V65  1  0.50454158  0.87386345  0.87620633  1
  V  V66  1  0.00271127  0.86496265  0.87247963  1
  V  V67  1  0.23782995  0.00045119  0.74435961  1
  V  V68  1  0.00287042  0.37446037  0.87678452  1
  V  V69  1  0.86976244  0.13040718  0.75279161  1
  V  V70  1  0.89019187  0.62505514  0.24697016  1
  V  V71  1  0.38128869  0.24358198  0.12037045  1
  V  V72  1  0.62402364  0.01616878  0.61904452  1
  V  V73  1  0.00450995  0.50278064  0.50357404  1
  V  V74  1  0.37076140  0.62503620  0.75442019  1
  V  V75  1  0.61977252  0.37552627  0.77982594  1
  V  V76  1  0.87266595  0.37611798  0.00175540  1
  V  V77  1  0.25121173  0.37595938  0.12183430  1
  V  V78  1  0.49593778  0.37372548  0.37320439  1
  Zn  Zn79  1  0.24654745  0.63863159  0.87936119  1
  Zn  Zn80  1  0.87048548  0.24670867  0.61536923  1
  Zn  Zn81  1  0.62618100  0.87868161  0.75179553  1
  Zn  Zn82  1  0.48341988  0.63329682  0.12789691  1
  Zn  Zn83  1  0.13164741  0.12078457  0.49418943  1
  Zn  Zn84  1  0.24631516  0.13239935  0.86901046  1
  Zn  Zn85  1  0.36403059  0.12807319  0.25743278  1
  Zn  Zn86  1  0.13371671  0.24472071  0.37590226  1
  Zn  Zn87  1  0.37645310  0.36970051  0.51098788  1
  Zn  Zn88  1  0.12468099  -0.01411514  0.12272731  1
  Zn  Zn89  1  0.26024886  0.36899323  0.62962176  1
  Zn  Zn90  1  0.98290392  0.64745332  0.65514331  1
  Zn  Zn91  1  0.24372321  0.88037267  0.61489636  1
  Zn  Zn92  1  0.25352228  0.75185291  0.48495318  1
  Zn  Zn93  1  0.62443408  0.37202958  0.25123755  1
  Zn  Zn94  1  0.18896194  0.18489982  0.18911569  1
  Zn  Zn95  1  0.19064223  0.18895629  0.68278654  1
  Zn  Zn96  1  0.19090088  0.68036699  0.17914064  1
  Zn  Zn97  1  0.18875294  0.68319549  0.68626329  1
  Zn  Zn98  1  0.68679060  0.18702662  0.19146581  1
  Zn  Zn99  1  0.68601205  0.19748840  0.68613028  1
  Zn  Zn100  1  0.69403214  0.68719561  0.18150811  1
  Zn  Zn101  1  0.80855309  0.68003408  0.69632534  1
  Zn  Zn102  1  0.31199334  0.31074217  0.31602495  1
  Zn  Zn103  1  0.32479207  0.30896053  0.81461648  1
  Zn  Zn104  1  0.30415930  0.81931204  0.31863123  1
  Zn  Zn105  1  0.31870908  0.81538779  0.81467809  1
  Zn  Zn106  1  0.81220015  0.31212273  0.31545534  1
  Zn  Zn107  1  0.81365851  0.32126117  0.80716475  1
  Zn  Zn108  1  0.81207529  0.81096737  0.31585378  1
  Zn  Zn109  1  0.80580866  0.82162480  0.82012883  1
  Zn  Zn110  1  0.19050418  0.42976296  0.44018746  1
  Zn  Zn111  1  0.19028558  0.44543765  0.93353880  1
  Zn  Zn112  1  0.17773315  0.92648330  0.43367272  1
  Zn  Zn113  1  0.18773668  0.93501956  0.93296050  1
  Zn  Zn114  1  0.68688141  0.43816073  0.43315199  1
  Zn  Zn115  1  0.68539070  0.44378868  0.94634520  1
  Zn  Zn116  1  0.68607872  0.93650632  0.43474750  1
  Zn  Zn117  1  0.68084603  0.94718524  0.93754511  1
  Zn  Zn118  1  0.31112732  0.06528903  0.06474728  1
  Zn  Zn119  1  0.31350306  0.05750165  0.55764820  1
  Zn  Zn120  1  0.29980107  0.55603857  0.05557583  1
  Zn  Zn121  1  0.32016347  0.55730121  0.56898450  1
  Zn  Zn122  1  0.80695583  0.06493887  0.06253232  1
  Zn  Zn123  1  0.82151553  0.05780759  0.56762015  1
  Zn  Zn124  1  0.80818168  0.56615096  0.06164069  1
  Zn  Zn125  1  0.81265212  0.55159630  0.56381941  1
  Zn  Zn126  1  0.43541206  0.43263271  0.18674100  1
  Zn  Zn127  1  0.44398615  0.43802829  0.69153940  1
  Zn  Zn128  1  0.43359400  0.93693350  0.19452477  1
  Zn  Zn129  1  0.43876101  0.94073299  0.68642349  1
  Zn  Zn130  1  0.93593039  0.43933661  0.18718810  1
  Zn  Zn131  1  0.95261848  0.47863597  0.70630041  1
  Zn  Zn132  1  0.93556203  0.94022065  0.18287323  1
  Zn  Zn133  1  0.93456932  0.82065470  0.68748819  1
  Zn  Zn134  1  0.06947114  0.06417355  0.31319724  1
  Zn  Zn135  1  0.05607139  0.06284659  0.81311834  1
  Zn  Zn136  1  0.06773861  0.56233429  0.31489585  1
  Zn  Zn137  1  0.06273665  0.57141811  0.82331529  1
  Zn  Zn138  1  0.56457622  0.06096109  0.32168228  1
  Zn  Zn139  1  0.55885564  0.06109033  0.81168707  1
  Zn  Zn140  1  0.55907585  0.56903233  0.31335533  1
  Zn  Zn141  1  0.56212669  0.56602789  0.81612209  1
  Zn  Zn142  1  0.43597732  0.18677796  0.43692368  1
  Zn  Zn143  1  0.43764374  0.19179773  0.93208671  1
  Zn  Zn144  1  0.43944503  0.69100775  0.43762837  1
  Zn  Zn145  1  0.43931436  0.69031868  0.93924324  1
  Zn  Zn146  1  0.96017079  0.17607977  0.42801674  1
  Zn  Zn147  1  0.93648008  0.19325539  0.93579617  1
  Zn  Zn148  1  0.94949708  0.68741184  0.43679234  1
  Zn  Zn149  1  0.93368540  0.68667797  0.94770906  1
  Zn  Zn150  1  0.06622523  0.31810005  0.06587779  1
  Zn  Zn151  1  0.06784650  0.31121235  0.56457032  1
  Zn  Zn152  1  0.04153010  0.80110879  0.06208352  1
  Zn  Zn153  1  0.06928318  0.80795244  0.55959074  1
  Zn  Zn154  1  0.56140723  0.31214161  0.06076708  1
  Zn  Zn155  1  0.55056332  0.30723929  0.56669596  1
  Zn  Zn156  1  0.55324565  0.82349049  0.07084021  1
  Zn  Zn157  1  0.56882602  0.80992778  0.56813432  1
  O  O158  1  0.11198196  0.12608087  0.11476327  1
  O  O159  1  0.10951097  0.12855754  0.62291419  1
  O  O160  1  0.12505915  0.62557505  0.10437755  1
  O  O161  1  0.12424130  0.60863832  0.62504713  1
  O  O162  1  0.62387921  0.11565489  0.12268247  1
  O  O163  1  0.63097152  0.11584896  0.62506063  1
  O  O164  1  0.62662647  0.61663876  0.11559097  1
  O  O165  1  0.61403129  0.62357053  0.61269570  1
  O  O166  1  0.38858676  0.37857601  0.37811500  1
  O  O167  1  0.37667579  0.39493060  0.86647115  1
  O  O168  1  0.39284566  0.88886688  0.37058534  1
  O  O169  1  0.38395535  0.88951779  0.88057562  1
  O  O170  1  0.86382321  0.38700511  0.38782538  1
  O  O171  1  0.88045094  0.38231997  0.88367065  1
  O  O172  1  0.86764001  0.88388016  0.38555812  1
  O  O173  1  0.88045865  0.89103696  0.88233192  1
  O  O174  1  0.26346447  -0.00516157  0.38249951  1
  O  O175  1  0.25727438  0.00338809  0.86231365  1
  O  O176  1  0.26531195  0.49108231  0.36734769  1
  O  O177  1  0.27079814  0.51040379  0.88440544  1
  O  O178  1  0.75641381  0.01085744  0.36842084  1
  O  O179  1  0.75591130  -0.00005721  0.86386353  1
  O  O180  1  0.75892278  0.51041543  0.37101152  1
  O  O181  1  0.75224754  0.50255168  0.87309636  1
  O  O182  1  0.26261311  0.48384755  0.13906114  1
  O  O183  1  0.23618771  0.49398983  0.62130774  1
  O  O184  1  0.24430068  0.99877056  0.13065983  1
  O  O185  1  0.25797502  0.99587091  0.64135102  1
  O  O186  1  0.73919474  0.49536121  0.12882525  1
  O  O187  1  0.75206788  0.48341482  0.63969358  1
  O  O188  1  0.74225091  1.00483841  0.13982520  1
  O  O189  1  0.74416589  0.99601274  0.63009201  1
  O  O190  1  0.01640136  0.37148984  0.23511731  1
  O  O191  1  0.00375662  0.37362428  0.75815154  1
  O  O192  1  0.02680177  0.87280899  0.20643293  1
  O  O193  1  0.00923122  0.87573374  0.76306468  1
  O  O194  1  0.50138871  0.36574654  0.25914382  1
  O  O195  1  0.51765338  0.37212525  0.75137368  1
  O  O196  1  0.50904375  0.86599121  0.25691390  1
  O  O197  1  0.49968841  0.87162128  0.75851509  1
  O  O198  1  0.50091518  0.13619506  0.25814561  1
  O  O199  1  0.49105551  0.13411737  0.75235738  1
  O  O200  1  0.50173938  0.64478074  0.25023093  1
  O  O201  1  0.50076209  0.63307590  0.74405838  1
  O  O202  1  0.99491385  0.13519200  0.23887262  1
  O  O203  1  0.99284765  0.13511522  0.74699771  1
  O  O204  1  0.98901111  0.61665572  0.25036519  1
  O  O205  1  0.98701384  0.58268137  0.74685052  1
  O  O206  1  0.37005138  0.24530556  0.01413510  1
  O  O207  1  0.36521279  0.24852169  0.49958996  1
  O  O208  1  0.38153620  0.76915592  -0.00233411  1
  O  O209  1  0.37158905  0.73976025  0.51689079  1
  O  O210  1  0.86475382  0.25428566  0.00509539  1
  O  O211  1  0.88933723  0.26146712  0.49252148  1
  O  O212  1  0.86052174  0.77374309  -0.01594807  1
  O  O213  1  0.86985237  0.75812507  0.49007383  1
  O  O214  1  0.13516677  0.24885131  0.49716383  1
  O  O215  1  0.13452253  0.24318243  1.00630483  1
  O  O216  1  0.13024155  0.72661640  0.50704682  1
  O  O217  1  0.11820302  0.74622324  0.99910076  1
  O  O218  1  0.61555078  0.25046066  0.48712459  1
  O  O219  1  0.62750802  0.23810597  1.00264353  1
  O  O220  1  0.63755140  0.73789935  0.50235456  1
  O  O221  1  0.61682846  0.74098565  1.01273773  1
  O  O222  1  0.48780539  0.25757071  0.13332021  1
  O  O223  1  0.49507408  0.25679524  0.64894221  1
  O  O224  1  0.49496118  0.75361432  0.14203583  1
  O  O225  1  0.49297244  0.74391575  0.63080861  1
  O  O226  1  0.99178250  0.24490708  0.12735267  1
  O  O227  1  0.99456637  0.24383906  0.63430973  1
  O  O228  1  0.95698980  0.72846987  0.09021239  1
  O  O229  1  0.99566644  0.75208922  0.62266667  1
  O  O230  1  -0.01588230  0.26390842  0.35300540  1
  O  O231  1  -0.00475859  0.26478093  0.86633302  1
  O  O232  1  0.02940054  0.73584544  0.37322603  1
  O  O233  1  -0.00858195  0.76745319  0.88298773  1
  O  O234  1  0.50603897  0.25540248  0.36948573  1
  O  O235  1  0.47969219  0.25876536  0.85206400  1
  O  O236  1  0.49696743  0.76246219  0.36609338  1
  O  O237  1  0.49469178  0.76413809  0.86592476  1
  O  O238  1  0.24734144  0.13386163  0.50604970  1
  O  O239  1  0.24037866  0.13341939  1.00040220  1
  O  O240  1  0.24272593  0.62138654  0.50903697  1
  O  O241  1  0.23821518  0.63112944  0.99967606  1
  O  O242  1  0.76178622  0.12064134  0.48835744  1
  O  O243  1  0.73482492  0.13312819  1.00329377  1
  O  O244  1  0.74610217  0.62648947  0.49494261  1
  O  O245  1  0.73264674  0.62094536  0.99154565  1
  O  O246  1  0.24280137  0.37040444  0.01502075  1
  O  O247  1  0.25511673  0.36220663  0.50374203  1
  O  O248  1  0.26399213  0.88373542  -0.00275058  1
  O  O249  1  0.23594295  0.86433969  0.50540873  1
  O  O250  1  0.75115334  0.36747020  0.00758511  1
  O  O251  1  0.75741018  0.38339734  0.50727493  1
  O  O252  1  0.75969662  0.89425879  -0.00027478  1
  O  O253  1  0.75448367  0.86665829  0.50299420  1
  O  O254  1  0.13822737  0.48657654  0.25654555  1
  O  O255  1  0.12577986  0.48733939  0.74075896  1
  O  O256  1  0.13428401  1.00437341  0.24444484  1
  O  O257  1  0.13661193  1.00590165  0.75238661  1
  O  O258  1  0.62660782  0.50314978  0.24107252  1
  O  O259  1  0.62930096  0.48552009  0.76253795  1
  O  O260  1  0.63028930  0.99817225  0.24715182  1
  O  O261  1  0.63168878  1.00354105  0.74052276  1
  O  O262  1  0.36811181  0.00490522  0.26210304  1
  O  O263  1  0.37210215  0.00958195  0.75665979  1
  O  O264  1  0.36780482  0.49524865  0.26231339  1
  O  O265  1  0.39312875  0.51623309  0.76510003  1
  O  O266  1  0.86842715  0.00092162  0.25475577  1
  O  O267  1  0.86401067  0.01390675  0.75888591  1
  O  O268  1  0.87112118  0.50741485  0.25792798  1
  O  O269  1  0.85464279  0.48364871  0.76832588  1
  O  O270  1  0.12774032  0.37028091  0.35920743  1
  O  O271  1  0.11615594  0.38599580  0.86249662  1
  O  O272  1  0.11281592  0.87274997  0.35721328  1
  O  O273  1  0.10902815  0.88206037  0.86737182  1
  O  O274  1  0.61631502  0.36763352  0.37320410  1
  O  O275  1  0.62159286  0.37342228  0.87837616  1
  O  O276  1  0.61244386  0.88247354  0.36001845  1
  O  O277  1  0.60981454  0.88666408  0.87334942  1
  O  O278  1  0.37186869  0.14034457  0.13117817  1
  O  O279  1  0.37970143  0.11494856  0.63555606  1
  O  O280  1  0.35310308  0.63808273  0.12771574  1
  O  O281  1  0.38781553  0.62875168  0.63735297  1
  O  O282  1  0.88157590  0.13048265  0.12800794  1
  O  O283  1  0.88251078  0.12714130  0.63864655  1
  O  O284  1  0.86634679  0.62136575  0.14635846  1
  O  O285  1  0.87291783  0.61683454  0.62897161  1
  O  O286  1  0.25912873  0.25615680  0.11946851  1
  O  O287  1  0.24702847  0.25350754  0.61057013  1
  O  O288  1  0.30785964  0.70203022  0.13577345  1
  O  O289  1  0.26638671  0.75022034  0.63296024  1
  O  O290  1  0.75164515  0.25587254  0.12010488  1
  O  O291  1  0.75501017  0.26970480  0.62988331  1
  O  O292  1  0.77110596  0.73940923  0.11469000  1
  O  O293  1  0.75276381  0.75862227  0.61238366  1
  O  O294  1  0.25115613  0.24849816  0.38918634  1
  O  O295  1  0.26163876  0.25133932  0.89302964  1
  O  O296  1  0.22639438  0.75502351  0.37178227  1
  O  O297  1  0.24694994  0.74953411  0.86356824  1
  O  O298  1  0.74506436  0.23645867  0.37233587  1
  O  O299  1  0.75421147  0.25647051  0.88655856  1
  O  O300  1  0.75529413  0.73715057  0.38589725  1
  O  O301  1  0.74433000  0.73717564  0.87330518  1
  O  O302  1  0.00386575  0.12373271  0.00307197  1
  O  O303  1  -0.01591534  0.10728863  0.51799447  1
  O  O304  1  0.01033942  0.60992195  -0.01134653  1
  O  O305  1  0.01398824  0.61102054  0.50097898  1
  O  O306  1  0.51048938  0.12068729  -0.00483154  1
  O  O307  1  0.50353521  0.11355997  0.49856908  1
  O  O308  1  0.50878671  0.62291499  0.00757572  1
  O  O309  1  0.50764527  0.62168615  0.50390257  1
  O  O310  1  0.50013517  0.38433675  0.49174360  1
  O  O311  1  0.49819085  0.39220435  1.00671246  1
  O  O312  1  0.50910954  0.87037376  0.48667223  1
  O  O313  1  0.49342708  0.88973454  0.99403336  1
  O  O314  1  0.99273786  0.38235702  0.50020092  1
  O  O315  1  0.99396573  0.37897278  0.99538466  1
  O  O316  1  0.99150403  0.88445515  0.50898176  1
  O  O317  1  0.98818800  0.88733259  0.99011869  1
  O  O318  1  0.49102779  0.49525103  0.37762997  1
  O  O319  1  0.49406258  0.50752196  0.89206111  1
  O  O320  1  0.49931960  0.99149644  0.38834740  1
  O  O321  1  0.49171259  0.99711178  0.88424614  1
  O  O322  1  0.99004013  0.50178853  0.38245732  1
  O  O323  1  0.98748012  0.48879544  0.88730761  1
  O  O324  1  0.98519897  1.00341002  0.37426556  1
  O  O325  1  0.98786265  0.99804336  0.88262215  1
  O  O326  1  -0.00616829  0.01517821  0.11206357  1
  O  O327  1  0.00031445  0.00399885  0.62086865  1
  O  O328  1  -0.01080728  0.49975687  0.10809052  1
  O  O329  1  0.01658095  0.49103955  0.61178607  1
  O  O330  1  0.50404463  0.00000634  0.11598772  1
  O  O331  1  0.50870311  -0.00698360  0.60999740  1
  O  O332  1  0.49916561  0.50873957  0.12031830  1
  O  O333  1  0.49565387  0.51086903  0.61176140  1
  O  O334  1  0.24176232  0.37643587  0.24407816  1
  O  O335  1  0.23647071  0.36332725  0.75588875  1
  O  O336  1  0.25573104  0.89895790  0.25360903  1
  O  O337  1  0.23616870  0.88724817  0.75496825  1
  O  O338  1  0.74842284  0.38376775  0.24519256  1
  O  O339  1  0.73050925  0.37763887  0.74782897  1
  O  O340  1  0.73742857  0.88504952  0.26097941  1
  O  O341  1  0.74847015  0.89118490  0.74255143  1
  O  O342  1  0.24847086  0.10989112  0.25120131  1
  O  O343  1  0.25817476  0.11694958  0.74900034  1
  O  O344  1  0.24320655  0.60183316  0.24925579  1
  O  O345  1  0.26960399  0.62205628  0.74719293  1
  O  O346  1  0.75736849  0.11658316  0.25667708  1
  O  O347  1  0.75770156  0.12129516  0.74272962  1
  O  O348  1  0.75342812  0.62098271  0.25977487  1
  O  O349  1  0.74121096  0.61208460  0.76962853  1
  O  O350  1  0.38127876  0.10631884  0.37544416  1
  O  O351  1  0.37171364  0.11536920  0.86899813  1
  O  O352  1  0.37702528  0.61425754  0.37468983  1
  O  O353  1  0.37859329  0.62614476  0.86300869  1
  O  O354  1  0.86788296  0.11769345  0.36823193  1
  O  O355  1  0.87932743  0.12009214  0.86615230  1
  O  O356  1  0.87030536  0.61857339  0.36538375  1
  O  O357  1  0.85548946  0.61603661  0.89064492  1
  O  O358  1  0.14235682  0.36840081  0.13818803  1
  O  O359  1  0.12668021  0.38163562  0.63970276  1
  O  O360  1  0.08011046  0.87546349  0.14227958  1
  O  O361  1  0.12360330  0.87130305  0.64595333  1
  O  O362  1  0.62652437  0.38757506  0.12637763  1
  O  O363  1  0.63510493  0.37408121  0.61462980  1
  O  O364  1  0.61921761  0.89193813  0.14168565  1
  O  O365  1  0.63883275  0.88491994  0.62520893  1
  O  O366  1  0.11713022  0.25741214  0.25091024  1
  O  O367  1  0.11243965  0.26254291  0.74547785  1
  O  O368  1  0.13100541  0.75071703  0.24201699  1
  O  O369  1  0.12769952  0.75638564  0.75381290  1
  O  O370  1  0.61722696  0.25099345  0.25952558  1
  O  O371  1  0.61623329  0.25887322  0.75746380  1
  O  O372  1  0.63019101  0.76516185  0.24233804  1
  O  O373  1  0.61297658  0.75672301  0.74447513  1
  O  O374  1  0.38247845  0.24725659  0.24444788  1
  O  O375  1  0.37167505  0.23176302  0.74500685  1
  O  O376  1  0.38192923  0.75750942  0.25710193  1
  O  O377  1  0.38662346  0.73945174  0.74172763  1
  O  O378  1  0.87790979  0.24744468  0.24109960  1
  O  O379  1  0.88264946  0.24589117  0.75038479  1
  O  O380  1  0.87569993  0.74203342  0.24339776  1
  O  O381  1  0.86665519  0.75822265  0.75190179  1
  O  O382  1  0.38602410  0.50232917  0.48582857  1
  O  O383  1  0.38614882  0.50995267  0.99235959  1
  O  O384  1  0.39096958  0.99835158  0.49193010  1
  O  O385  1  0.38073795  1.00213492  0.99359403  1
  O  O386  1  0.88592755  0.49364872  0.49308611  1
  O  O387  1  0.87568318  0.49492219  0.99419588  1
  O  O388  1  0.88426996  0.98925142  0.49386102  1
  O  O389  1  0.87898889  1.00089331  0.99374034  1
  O  O390  1  0.11332198  0.00633333  0.00203692  1
  O  O391  1  0.10344415  0.00093539  0.49274256  1
  O  O392  1  0.11028581  0.48882880  0.00493383  1
  O  O393  1  0.12370064  0.50174257  0.50828885  1
  O  O394  1  0.61737331  0.01334352  0.00952057  1
  O  O395  1  0.61455880  -0.00303861  0.50462003  1
  O  O396  1  0.61060004  0.50758191  0.01076392  1
  O  O397  1  0.61341044  0.51044696  0.49150133  1
  O  O398  1  0.36100444  0.35986044  0.13294599  1
  O  O399  1  0.37092643  0.39310377  0.62346485  1
  O  O400  1  0.37810173  0.88314633  0.11110967  1
  O  O401  1  0.37539952  0.85993914  0.63146844  1
  O  O402  1  0.86639173  0.37066806  0.12068213  1
  O  O403  1  0.86885236  0.37428581  0.60470278  1
  O  O404  1  0.87500688  0.86653833  0.11288665  1
  O  O405  1  0.86026048  0.88133772  0.61135312  1
  O  O406  1  0.07857158  0.14290919  0.39182081  1
  O  O407  1  0.12433176  0.12280718  0.88799518  1
  O  O408  1  0.13545842  0.61185780  0.39127978  1
  O  O409  1  0.13343316  0.60968067  0.89521970  1
  O  O410  1  0.64239076  0.12936905  0.37572422  1
  O  O411  1  0.62603442  0.12002789  0.88733534  1
  O  O412  1  0.63594279  0.62163265  0.38420809  1
  O  O413  1  0.62912173  0.62586258  0.89121126  1
