# generated using pymatgen
data_V79Zn79O256
_symmetry_space_group_name_H-M   'P 1'
_cell_length_a   16.95026992
_cell_length_b   16.94636786
_cell_length_c   16.92573258
_cell_angle_alpha   90.00678060
_cell_angle_beta   89.99503867
_cell_angle_gamma   90.25942144
_symmetry_Int_Tables_number   1
_chemical_formula_structural   V79Zn79O256
_chemical_formula_sum   'V79 Zn79 O256'
_cell_volume   4861.79079107
_cell_formula_units_Z   1
loop_
 _symmetry_equiv_pos_site_id
 _symmetry_equiv_pos_as_xyz
  1  'x, y, z'
loop_
 _atom_site_type_symbol
 _atom_site_label
 _atom_site_symmetry_multiplicity
 _atom_site_fract_x
 _atom_site_fract_y
 _atom_site_fract_z
 _atom_site_occupancy
  V  V0  1  0.12482914  0.50807904  0.61980514  1
  V  V1  1  0.75562478  0.87137931  0.10975907  1
  V  V2  1  0.36815579  0.75181177  0.12291839  1
  V  V3  1  0.06802490  0.32478342  0.32097611  1
  V  V4  1  0.38556550  0.63491934  0.74872699  1
  V  V5  1  0.12548222  -0.01310375  0.62586074  1
  V  V6  1  0.12320827  0.37194238  0.74954878  1
  V  V7  1  0.63347094  0.37759914  0.75118163  1
  V  V8  1  0.00204826  0.37343567  0.87379511  1
  V  V9  1  0.24505978  0.12367943  0.87532808  1
  V  V10  1  0.75601616  0.50975176  0.74864631  1
  V  V11  1  0.62848421  0.50068477  0.12333864  1
  V  V12  1  0.37660952  0.49909798  0.87819749  1
  V  V13  1  0.37438096  0.87743697  0.00372968  1
  V  V14  1  0.48872620  0.87483716  0.37832970  1
  V  V15  1  0.61619580  0.50312878  0.62686675  1
  V  V16  1  0.49914977  0.86917755  0.87406818  1
  V  V17  1  0.86977614  0.00608386  0.36938139  1
  V  V18  1  0.75052473  0.63528358  0.39114243  1
  V  V19  1  0.86731206  0.48601584  0.37901583  1
  V  V20  1  0.87590136  0.74599848  0.62834920  1
  V  V21  1  0.00107919  0.62889197  0.60946574  1
  V  V22  1  0.62002344  0.86815580  0.25157726  1
  V  V23  1  0.61864171  0.37162195  0.25111314  1
  V  V24  1  0.26352325  0.63156933  0.38510273  1
  V  V25  1  0.87181843  0.26594912  0.63682908  1
  V  V26  1  0.61556542  0.24541384  0.38989879  1
  V  V27  1  0.24853391  0.37422440  0.62554256  1
  V  V28  1  0.61643299  0.12121667  -0.01170624  1
  V  V29  1  0.13523631  0.75934870  0.87071670  1
  V  V30  1  0.36987939  0.76419981  0.61046588  1
  V  V31  1  0.74731073  0.01020351  0.24998607  1
  V  V32  1  0.23474043  -0.02077607  0.24026291  1
  V  V33  1  0.75320869  0.36855088  0.12569629  1
  V  V34  1  -0.00143972  0.86867595  0.36865176  1
  V  V35  1  0.00445153  0.50226501  0.01154855  1
  V  V36  1  0.87626308  0.02260440  0.87151559  1
  V  V37  1  0.38433672  0.37551134  0.48970668  1
  V  V38  1  0.09219586  0.69849423  0.36461193  1
  V  V39  1  0.75503281  0.01120153  0.75072435  1
  V  V40  1  0.74664474  0.12436097  0.39148866  1
  V  V41  1  0.50152691  0.24374444  0.24714143  1
  V  V42  1  0.62969741  0.75367656  0.86943298  1
  V  V43  1  0.25107430  0.50505009  0.75261426  1
  V  V44  1  -0.01052191  0.48310946  0.50233560  1
  V  V45  1  -0.00589257  0.00938382  0.49870393  1
  V  V46  1  0.75395162  0.50741703  0.25219465  1
  V  V47  1  0.49387848  0.01349048  0.50498433  1
  V  V48  1  0.87397383  0.86909408  0.50179168  1
  V  V49  1  0.00310642  -0.00215147  0.01127977  1
  V  V50  1  0.87725866  0.36935765  0.00565354  1
  V  V51  1  0.38374742  0.62558860  0.25265253  1
  V  V52  1  0.63280315  0.63477122  -0.00011360  1
  V  V53  1  0.25849710  0.49425218  0.25952820  1
  V  V54  1  0.12416188  0.24984688  0.87459468  1
  V  V55  1  0.13001614  0.12929548  0.49015688  1
  V  V56  1  0.13121808  0.50110313  0.12718281  1
  V  V57  1  -0.00609802  0.15011094  0.13885822  1
  V  V58  1  -0.00964933  0.13131623  0.63614458  1
  V  V59  1  0.37445968  0.12615719  0.74794788  1
  V  V60  1  0.50064286  0.37582134  0.87894608  1
  V  V61  1  0.37171067  0.24553332  0.62635163  1
  V  V62  1  0.49977426  0.25128254  0.74777951  1
  V  V63  1  0.35911152  0.12324886  0.25297588  1
  V  V64  1  0.50017297  0.49772611  0.00163296  1
  V  V65  1  0.87551906  0.50487818  0.87572565  1
  V  V66  1  -0.01492493  0.87571199  0.86716354  1
  V  V67  1  0.24003259  0.24930635  0.48874123  1
  V  V68  1  0.61804529  0.00486452  0.12263794  1
  V  V69  1  0.75987310  0.27092000  0.50391073  1
  V  V70  1  0.00029604  0.74192477  0.74632155  1
  V  V71  1  0.13363346  0.62835302  0.00075864  1
  V  V72  1  0.50586249  0.63544062  0.12818210  1
  V  V73  1  0.25780561  0.25485892  -0.00033079  1
  V  V74  1  0.75409091  0.23925159  -0.00381179  1
  V  V75  1  0.24558725  -0.00963511  0.74514572  1
  V  V76  1  0.38451532  0.00196883  0.88010766  1
  V  V77  1  0.74087098  0.87092602  0.62399575  1
  V  V78  1  0.25844924  0.37689954  0.11954990  1
  Zn  Zn79  1  0.62144999  0.75230103  0.38502375  1
  Zn  Zn80  1  0.50198929  0.63952083  0.62214856  1
  Zn  Zn81  1  0.62177958  0.63774555  0.50686131  1
  Zn  Zn82  1  0.11078554  0.86334433  0.23851333  1
  Zn  Zn83  1  0.63269252  0.24690498  0.87164727  1
  Zn  Zn84  1  0.13031323  0.11494817  0.01994494  1
  Zn  Zn85  1  0.48486273  0.51199919  0.46993937  1
  Zn  Zn86  1  0.25519702  0.63294842  0.87858038  1
  Zn  Zn87  1  0.62527723  0.03310821  0.60478542  1
  Zn  Zn88  1  0.61686012  0.87666516  0.74401665  1
  Zn  Zn89  1  0.36161337  0.00323631  0.38150636  1
  Zn  Zn90  1  0.20342309  0.82319741  0.07351532  1
  Zn  Zn91  1  0.76151495  0.63877234  0.87961511  1
  Zn  Zn92  1  0.49467954  0.12170632  0.11994854  1
  Zn  Zn93  1  0.37895571  0.25229125  0.12059166  1
  Zn  Zn94  1  0.17727506  0.19652585  0.19107019  1
  Zn  Zn95  1  0.18198132  0.18163155  0.68091867  1
  Zn  Zn96  1  0.18381425  0.68151827  0.19830601  1
  Zn  Zn97  1  0.18907775  0.69338921  0.68707203  1
  Zn  Zn98  1  0.68888141  0.18499140  0.18423026  1
  Zn  Zn99  1  0.69050929  0.19070252  0.68360743  1
  Zn  Zn100  1  0.69796031  0.69227397  0.18668141  1
  Zn  Zn101  1  0.68909148  0.68878858  0.69101294  1
  Zn  Zn102  1  0.31558880  0.31181299  0.30965126  1
  Zn  Zn103  1  0.31219073  0.31567769  0.81498219  1
  Zn  Zn104  1  0.31243083  0.80915176  0.30734853  1
  Zn  Zn105  1  0.31694014  0.81645119  0.81229122  1
  Zn  Zn106  1  0.79782359  0.31390988  0.31828136  1
  Zn  Zn107  1  0.81484760  0.31370035  0.81596437  1
  Zn  Zn108  1  0.80201055  0.81940287  0.31297179  1
  Zn  Zn109  1  0.80985963  0.81418218  0.80556505  1
  Zn  Zn110  1  0.19398056  0.44399538  0.44443937  1
  Zn  Zn111  1  0.19004433  0.43810973  0.93990334  1
  Zn  Zn112  1  0.18226781  0.94781226  0.42616601  1
  Zn  Zn113  1  0.18773316  0.93870549  0.93522990  1
  Zn  Zn114  1  0.65941402  0.44637748  0.42731312  1
  Zn  Zn115  1  0.68969418  0.43834814  0.93777906  1
  Zn  Zn116  1  0.68048422  0.93813206  0.44137363  1
  Zn  Zn117  1  0.68866101  0.94476824  0.92993121  1
  Zn  Zn118  1  0.31252635  0.06309377  0.06677752  1
  Zn  Zn119  1  0.30880260  -0.05996430  0.55605826  1
  Zn  Zn120  1  0.31483449  0.56614683  0.06448638  1
  Zn  Zn121  1  0.32109330  0.56005342  0.56818105  1
  Zn  Zn122  1  0.82087379  0.05452328  0.06648435  1
  Zn  Zn123  1  0.81213128  0.06159301  0.56529557  1
  Zn  Zn124  1  0.81305760  0.55758525  0.05981422  1
  Zn  Zn125  1  0.81162320  0.56221133  0.56449889  1
  Zn  Zn126  1  0.43932356  0.43801319  0.18657383  1
  Zn  Zn127  1  0.43716011  0.43566561  0.68971372  1
  Zn  Zn128  1  0.43548355  0.93976743  0.19102424  1
  Zn  Zn129  1  0.43813964  0.93918090  0.68860226  1
  Zn  Zn130  1  0.93597800  0.33356474  0.19652874  1
  Zn  Zn131  1  0.93962589  0.44158178  0.69029503  1
  Zn  Zn132  1  0.92015900  0.82403636  0.18812981  1
  Zn  Zn133  1  0.93913901  0.93668926  0.68859877  1
  Zn  Zn134  1  0.06189678  0.05665284  0.30417831  1
  Zn  Zn135  1  0.06150736  0.06254946  0.80773749  1
  Zn  Zn136  1  0.05465385  0.51569688  0.30698433  1
  Zn  Zn137  1  0.06526557  0.56510010  0.81338320  1
  Zn  Zn138  1  0.56043323  0.06131003  0.31634890  1
  Zn  Zn139  1  0.58040912  0.07684139  0.77998647  1
  Zn  Zn140  1  0.56894135  0.56290647  0.31297985  1
  Zn  Zn141  1  0.56574345  0.56640525  0.81386092  1
  Zn  Zn142  1  0.42899892  0.18624703  0.43914968  1
  Zn  Zn143  1  0.43813748  0.18639728  0.93202390  1
  Zn  Zn144  1  0.44322300  0.69325768  0.43841587  1
  Zn  Zn145  1  0.44175288  0.68850832  0.94112815  1
  Zn  Zn146  1  0.92921288  0.19150823  0.31942391  1
  Zn  Zn147  1  0.94481566  0.18552971  0.94665302  1
  Zn  Zn148  1  0.92038537  0.67720842  0.31211862  1
  Zn  Zn149  1  0.96008030  0.67545678  0.92556769  1
  Zn  Zn150  1  0.07299894  0.31536610  0.06197017  1
  Zn  Zn151  1  0.00120139  0.26971327  0.49614964  1
  Zn  Zn152  1  0.04067339  0.80746680  0.04651239  1
  Zn  Zn153  1  0.21436928  0.77373775  0.50909769  1
  Zn  Zn154  1  0.56755893  0.30823228  0.06241849  1
  Zn  Zn155  1  0.56485221  0.31524920  0.57023631  1
  Zn  Zn156  1  0.56407170  0.81976454  0.05858254  1
  Zn  Zn157  1  0.55107868  0.81363814  0.55828152  1
  O  O158  1  0.10352901  0.13343450  0.13017919  1
  O  O159  1  0.10908360  0.12323338  0.61407529  1
  O  O160  1  0.13552889  0.61327775  0.11671862  1
  O  O161  1  0.11724589  0.61449963  0.63471406  1
  O  O162  1  0.62315282  0.11900398  0.11332336  1
  O  O163  1  0.60752426  0.11757286  0.67234901  1
  O  O164  1  0.62272184  0.62214496  0.11973956  1
  O  O165  1  0.62103228  0.61534284  0.63411191  1
  O  O166  1  0.37593925  0.37002907  0.39066413  1
  O  O167  1  0.38724545  0.38867867  0.86825204  1
  O  O168  1  0.38775662  0.88114303  0.35724014  1
  O  O169  1  0.38071079  0.88188589  0.88258076  1
  O  O170  1  0.85439981  0.38866420  0.38800975  1
  O  O171  1  0.88519021  0.38328673  0.88286719  1
  O  O172  1  0.87192401  0.88378357  0.38801104  1
  O  O173  1  0.88501260  0.87068937  0.87412638  1
  O  O174  1  0.25003529  -0.00128743  0.34740445  1
  O  O175  1  0.25258589  0.01048712  0.86649241  1
  O  O176  1  0.25891476  0.49917973  0.36197257  1
  O  O177  1  0.26053372  0.49767258  0.86754586  1
  O  O178  1  0.74917147  0.00812945  0.37286694  1
  O  O179  1  0.77058108  -0.00080456  0.86799916  1
  O  O180  1  0.74884302  0.50521584  0.37135204  1
  O  O181  1  0.76108636  0.50101325  0.87059877  1
  O  O182  1  0.24998849  0.49462591  0.12868296  1
  O  O183  1  0.24489772  0.49530786  0.63323470  1
  O  O184  1  0.24958320  1.00451317  0.14119624  1
  O  O185  1  0.23534032  0.99910565  0.63024987  1
  O  O186  1  0.74843530  0.49113181  0.13125854  1
  O  O187  1  0.74536980  0.50686197  0.64490896  1
  O  O188  1  0.73951970  0.99862335  0.13265242  1
  O  O189  1  0.74685713  0.99317767  0.63602160  1
  O  O190  1  0.01405821  0.38946163  0.25981327  1
  O  O191  1  0.01203749  0.38387751  0.76218212  1
  O  O192  1  -0.00905997  0.87660362  0.26425574  1
  O  O193  1  -0.00099060  0.86393219  0.76011854  1
  O  O194  1  0.51163530  0.36567522  0.24275439  1
  O  O195  1  0.50763663  0.37079187  0.76019696  1
  O  O196  1  0.51488974  0.88538709  0.25717744  1
  O  O197  1  0.50136908  0.88407922  0.76776608  1
  O  O198  1  0.49678260  0.13469915  0.24736312  1
  O  O199  1  0.48161964  0.13987981  0.76764519  1
  O  O200  1  0.49673790  0.61385927  0.23796235  1
  O  O201  1  0.48717161  0.62407944  0.75124241  1
  O  O202  1  0.99867080  0.13168324  0.24386327  1
  O  O203  1  1.00463801  0.13136872  0.73487696  1
  O  O204  1  1.02143697  0.62809875  0.31720776  1
  O  O205  1  0.99962622  0.63590304  0.74727656  1
  O  O206  1  0.36160392  0.24287731  -0.00163646  1
  O  O207  1  0.36385471  0.25666416  0.50920606  1
  O  O208  1  0.37772922  0.75524899  0.01367906  1
  O  O209  1  0.37332324  0.75324679  0.51113292  1
  O  O210  1  0.87001933  0.26235884  -0.00642558  1
  O  O211  1  0.86116856  0.26459887  0.50637768  1
  O  O212  1  0.89805350  0.70112645  0.06926180  1
  O  O213  1  0.87563341  0.76918761  0.51053368  1
  O  O214  1  0.12442726  0.23735607  0.49933775  1
  O  O215  1  0.13669628  0.25006001  0.98636919  1
  O  O216  1  0.12140702  0.73372991  0.45555801  1
  O  O217  1  0.12121332  0.74251046  0.98459131  1
  O  O218  1  0.62468691  0.25233575  0.49276712  1
  O  O219  1  0.63472597  0.23752593  0.99762314  1
  O  O220  1  0.62300449  0.75154282  0.50009413  1
  O  O221  1  0.61994686  0.74132663  0.99192167  1
  O  O222  1  0.49910036  0.24822047  0.13307417  1
  O  O223  1  0.48814103  0.25954404  0.64127692  1
  O  O224  1  0.49773622  0.73871920  0.12014323  1
  O  O225  1  0.47716763  0.75505736  0.62751476  1
  O  O226  1  0.99624535  0.25458556  0.12477036  1
  O  O227  1  0.97981492  0.23950008  0.61088417  1
  O  O228  1  0.96248560  0.74438476  0.10677320  1
  O  O229  1  0.99377923  0.74177221  0.63304030  1
  O  O230  1  0.00238248  0.26344223  0.37953318  1
  O  O231  1  0.01129204  0.26325856  0.88350093  1
  O  O232  1  -0.00678021  0.76580310  0.37777085  1
  O  O233  1  0.00447641  0.76016726  0.86826818  1
  O  O234  1  0.51263196  0.24401512  0.36926194  1
  O  O235  1  0.49912494  0.26234904  0.86714153  1
  O  O236  1  0.50054878  0.76962612  0.37277660  1
  O  O237  1  0.50873152  0.75977443  0.87850157  1
  O  O238  1  0.23283925  0.13636643  0.50300722  1
  O  O239  1  0.24474720  0.13086705  0.98991341  1
  O  O240  1  0.26730433  0.61140895  0.48353914  1
  O  O241  1  0.24014439  0.61968535  0.99482186  1
  O  O242  1  0.74664172  0.12871006  0.49491070  1
  O  O243  1  0.74938659  0.13591538  1.00802454  1
  O  O244  1  0.74231302  0.62038208  0.49365016  1
  O  O245  1  0.73693080  0.61753115  0.99634914  1
  O  O246  1  0.25180843  0.36666917  0.00394195  1
  O  O247  1  0.25722294  0.37081628  0.51110283  1
  O  O248  1  0.26421649  0.87656698  -0.00278976  1
  O  O249  1  0.24503690  0.87913694  0.48682652  1
  O  O250  1  0.75834545  0.37160514  0.00748777  1
  O  O251  1  0.73485033  0.36583530  0.49883582  1
  O  O252  1  0.74208593  0.88583539  0.01132238  1
  O  O253  1  0.76130338  0.88810983  0.51512410  1
  O  O254  1  0.14749059  0.50688201  0.23986120  1
  O  O255  1  0.13374758  0.49352921  0.74703440  1
  O  O256  1  0.13037455  0.98640391  0.24555900  1
  O  O257  1  0.13242176  1.00785868  0.73558268  1
  O  O258  1  0.63388788  0.48978712  0.24128135  1
  O  O259  1  0.63544385  0.49718372  0.74946996  1
  O  O260  1  0.63031136  0.99878607  0.24174668  1
  O  O261  1  0.65002596  0.98653847  0.77197013  1
  O  O262  1  0.36614933  0.01454678  0.24649240  1
  O  O263  1  0.36642308  0.01020228  0.75571266  1
  O  O264  1  0.36719242  0.51114683  0.23971213  1
  O  O265  1  0.36968598  0.50902590  0.75704466  1
  O  O266  1  0.85754428  -0.00830175  0.26728587  1
  O  O267  1  0.86721722  -0.00467298  0.76026709  1
  O  O268  1  0.86292383  0.49287690  0.27240831  1
  O  O269  1  0.86373308  0.49491475  0.76036103  1
  O  O270  1  0.12122827  0.38808385  0.37871295  1
  O  O271  1  0.12131360  0.37099188  0.86939461  1
  O  O272  1  0.09790983  0.88583202  0.37476676  1
  O  O273  1  0.11921210  0.86152598  0.87655631  1
  O  O274  1  0.63695863  0.34998666  0.35985280  1
  O  O275  1  0.61481833  0.37740605  0.86939297  1
  O  O276  1  0.62071101  0.87630745  0.36216873  1
  O  O277  1  0.61679472  0.86394267  0.88354043  1
  O  O278  1  0.37804943  0.13128539  0.13584634  1
  O  O279  1  0.36823448  0.14098576  0.63882776  1
  O  O280  1  0.38654157  0.63414299  0.12753258  1
  O  O281  1  0.37705649  0.63030903  0.63960129  1
  O  O282  1  0.89825466  0.12015607  0.12133369  1
  O  O283  1  0.88722403  0.12338266  0.62508270  1
  O  O284  1  0.88252238  0.63674624  0.11405244  1
  O  O285  1  0.88262654  0.63887083  0.61709916  1
  O  O286  1  0.24603333  0.26048664  0.11473845  1
  O  O287  1  0.25243745  0.25856601  0.62014628  1
  O  O288  1  0.26559839  0.74006683  0.12771099  1
  O  O289  1  0.25928368  0.74200439  0.61371620  1
  O  O290  1  0.74556766  0.26253093  0.11521851  1
  O  O291  1  0.75998056  0.24627095  0.61339276  1
  O  O292  1  0.74540873  0.77106252  0.12282159  1
  O  O293  1  0.75906592  0.76332919  0.63207311  1
  O  O294  1  0.25102734  0.25914099  0.39038931  1
  O  O295  1  0.24557694  0.24454756  0.87977127  1
  O  O296  1  0.26760559  0.73310000  0.38178917  1
  O  O297  1  0.23803298  0.75226845  0.86901210  1
  O  O298  1  0.74144254  0.24260043  0.39267939  1
  O  O299  1  0.74882129  0.25700910  0.89039288  1
  O  O300  1  0.75202759  0.73729637  0.37905535  1
  O  O301  1  0.73650448  0.75455557  0.87383851  1
  O  O302  1  0.00708166  0.11639268  0.01308646  1
  O  O303  1  0.00495832  0.11531552  0.50671362  1
  O  O304  1  0.01811903  0.61178007  -0.00347329  1
  O  O305  1  0.00513716  0.61216830  0.51183945  1
  O  O306  1  0.51318816  0.13097901  -0.00046799  1
  O  O307  1  0.49510995  0.11440474  0.49774322  1
  O  O308  1  0.51072785  0.61666300  0.00812550  1
  O  O309  1  0.50254171  0.62018225  0.50420645  1
  O  O310  1  0.48370617  0.36539631  0.50777581  1
  O  O311  1  0.50913426  0.38626067  0.99243815  1
  O  O312  1  0.49752678  0.88366432  0.48192160  1
  O  O313  1  0.48591983  0.87576645  0.99029580  1
  O  O314  1  0.99802331  0.38623725  0.51239529  1
  O  O315  1  0.99706496  0.38202771  0.99318243  1
  O  O316  1  0.98194958  0.89254073  0.49057537  1
  O  O317  1  1.00012984  0.88831944  0.97765417  1
  O  O318  1  0.55227203  0.48209353  0.38851953  1
  O  O319  1  0.49638384  0.49590636  0.88144102  1
  O  O320  1  0.49696084  0.99302932  0.38250316  1
  O  O321  1  0.48473271  0.99821192  0.87188435  1
  O  O322  1  0.98087878  0.49318114  0.39342906  1
  O  O323  1  0.99624200  0.49208861  0.88248027  1
  O  O324  1  0.98477063  0.99921500  0.37948250  1
  O  O325  1  0.98824789  0.98976105  0.86207898  1
  O  O326  1  0.00080899  -0.01388035  0.10649215  1
  O  O327  1  0.00408045  0.00969550  0.62098897  1
  O  O328  1  0.01625648  0.49289393  0.11339258  1
  O  O329  1  0.00383509  0.50785061  0.62065887  1
  O  O330  1  0.51375520  0.00079751  0.12712975  1
  O  O331  1  0.50063311  -0.00886513  0.60900853  1
  O  O332  1  0.50724331  0.50624038  0.11645473  1
  O  O333  1  0.51271493  0.50250613  0.63306106  1
  O  O334  1  0.26016573  0.38962535  0.24232887  1
  O  O335  1  0.24540153  0.38539049  0.74603113  1
  O  O336  1  0.24432718  0.87570974  0.24129188  1
  O  O337  1  0.25260476  0.89203134  0.75639119  1
  O  O338  1  0.73960617  0.38153566  0.24077460  1
  O  O339  1  0.73913611  0.38778685  0.76192845  1
  O  O340  1  0.73376218  0.88997377  0.24724370  1
  O  O341  1  0.75300666  0.88273491  0.73295647  1
  O  O342  1  0.25954612  0.13514912  0.24649433  1
  O  O343  1  0.25668067  0.12281570  0.75764754  1
  O  O344  1  0.26654546  0.61525330  0.25767488  1
  O  O345  1  0.25785544  0.61391240  0.75273457  1
  O  O346  1  0.74383431  0.11564254  0.25909446  1
  O  O347  1  0.75369131  0.10981441  0.74699573  1
  O  O348  1  0.74573946  0.61078726  0.25190561  1
  O  O349  1  0.74787748  0.61329699  0.76162078  1
  O  O350  1  0.37706963  0.12545438  0.35661983  1
  O  O351  1  0.36272362  0.11952373  0.87048042  1
  O  O352  1  0.37887835  0.62497449  0.36250341  1
  O  O353  1  0.37592473  0.61873360  0.86626771  1
  O  O354  1  0.85983117  0.11627088  0.37543989  1
  O  O355  1  0.88649367  0.12102169  0.86827874  1
  O  O356  1  0.85337094  0.60906092  0.37948931  1
  O  O357  1  0.87676942  0.61133214  0.88675456  1
  O  O358  1  0.14244808  0.38968192  0.11880346  1
  O  O359  1  0.13733979  0.38658665  0.63722689  1
  O  O360  1  0.11121419  0.82382023  0.13223042  1
  O  O361  1  0.11279634  0.89242323  0.62250271  1
  O  O362  1  0.63423913  0.38033219  0.12909076  1
  O  O363  1  0.62107967  0.38849880  0.64151943  1
  O  O364  1  0.62793296  0.88520657  0.13337379  1
  O  O365  1  0.63728221  0.87145573  0.62441418  1
  O  O366  1  0.12739026  0.26720891  0.26417826  1
  O  O367  1  0.13550766  0.26331116  0.76023907  1
  O  O368  1  0.13416128  0.74699129  0.28131100  1
  O  O369  1  0.11684561  0.74488520  0.76336441  1
  O  O370  1  0.61789389  0.25411892  0.24986612  1
  O  O371  1  0.61829009  0.26138893  0.75298109  1
  O  O372  1  0.62889147  0.76684154  0.24952183  1
  O  O373  1  0.62470829  0.75508308  0.76499828  1
  O  O374  1  0.38553726  0.24283094  0.24944555  1
  O  O375  1  0.37793311  0.24736594  0.74703518  1
  O  O376  1  0.37721237  0.73794921  0.23460268  1
  O  O377  1  0.36641095  0.73624125  0.74837608  1
  O  O378  1  0.87032222  0.26131689  0.25348844  1
  O  O379  1  0.86510389  0.25045627  0.73621917  1
  O  O380  1  0.86353469  0.74879951  0.25111117  1
  O  O381  1  0.88403319  0.75454059  0.73780144  1
  O  O382  1  0.38042100  0.48056666  0.50951481  1
  O  O383  1  0.38862299  0.51072713  0.98959681  1
  O  O384  1  0.38641507  0.99911902  0.49562913  1
  O  O385  1  0.36849577  0.99336194  0.99093532  1
  O  O386  1  0.88350052  0.49927359  0.50093778  1
  O  O387  1  0.88473122  0.48964685  0.99496756  1
  O  O388  1  0.87766012  0.99820420  0.49266041  1
  O  O389  1  0.89043878  1.00820034  0.98058841  1
  O  O390  1  0.10883560  0.00373216  -0.01465714  1
  O  O391  1  0.11664029  0.00931541  0.51080596  1
  O  O392  1  0.12270295  0.50621433  0.00447039  1
  O  O393  1  0.11416287  0.49518076  0.51462040  1
  O  O394  1  0.63242182  0.01671536  0.00433803  1
  O  O395  1  0.60779450  0.00118745  0.49866751  1
  O  O396  1  0.61780630  0.50859713  0.00268801  1
  O  O397  1  0.63432164  0.50060795  0.52776752  1
  O  O398  1  0.36426633  0.37287355  0.12525728  1
  O  O399  1  0.36282613  0.36591985  0.62841386  1
  O  O400  1  0.38353002  0.85998781  0.12101351  1
  O  O401  1  0.36620430  0.86734607  0.63046344  1
  O  O402  1  0.86690164  0.37977063  0.11415860  1
  O  O403  1  0.87782580  0.36537600  0.63231185  1
  O  O404  1  0.85434785  0.88969242  0.12374188  1
  O  O405  1  0.87106398  0.87212708  0.61639252  1
  O  O406  1  0.11649783  0.11216536  0.39227680  1
  O  O407  1  0.13309575  0.13583194  0.86665383  1
  O  O408  1  0.15819071  0.61314058  0.36860591  1
  O  O409  1  0.12829463  0.63546960  0.88127547  1
  O  O410  1  0.63371218  0.13983255  0.37068237  1
  O  O411  1  0.62263201  0.12527731  0.88512567  1
  O  O412  1  0.64074929  0.63189796  0.37240440  1
  O  O413  1  0.62233928  0.64065434  0.88192212  1
