# generated using pymatgen
data_V79Zn79O256
_symmetry_space_group_name_H-M   'P 1'
_cell_length_a   16.87663261
_cell_length_b   16.86438770
_cell_length_c   16.87706955
_cell_angle_alpha   89.88185593
_cell_angle_beta   90.11362065
_cell_angle_gamma   89.92729079
_symmetry_Int_Tables_number   1
_chemical_formula_structural   V79Zn79O256
_chemical_formula_sum   'V79 Zn79 O256'
_cell_volume   4803.42799733
_cell_formula_units_Z   1
loop_
 _symmetry_equiv_pos_site_id
 _symmetry_equiv_pos_as_xyz
  1  'x, y, z'
loop_
 _atom_site_type_symbol
 _atom_site_label
 _atom_site_symmetry_multiplicity
 _atom_site_fract_x
 _atom_site_fract_y
 _atom_site_fract_z
 _atom_site_occupancy
  V  V0  1  0.49745243  0.25073663  0.74610974  1
  V  V1  1  0.50297139  0.51739057  0.01499295  1
  V  V2  1  0.50334908  0.37506120  0.38175536  1
  V  V3  1  -0.00109249  0.24757448  0.24881776  1
  V  V4  1  0.75158245  0.50730459  0.75321082  1
  V  V5  1  0.75393173  0.38430231  0.11925712  1
  V  V6  1  0.50814771  -0.00222748  0.00391290  1
  V  V7  1  0.50845764  0.11932948  0.12802445  1
  V  V8  1  0.75921184  0.25013322  -0.00100002  1
  V  V9  1  0.25173830  0.24998556  -0.00048372  1
  V  V10  1  0.64102832  0.63371176  0.00946576  1
  V  V11  1  -0.00385705  -0.00735210  0.49099059  1
  V  V12  1  0.37737580  0.24946340  0.12479398  1
  V  V13  1  0.87800635  0.87410389  0.47524472  1
  V  V14  1  0.61612254  0.38175401  0.75926125  1
  V  V15  1  0.37734536  0.12911197  0.75156494  1
  V  V16  1  0.12613435  0.86871918  0.26950490  1
  V  V17  1  0.61823612  0.25714094  0.88115279  1
  V  V18  1  0.50742614  0.87366908  0.86804501  1
  V  V19  1  0.88401758  0.85566672  -0.00103400  1
  V  V20  1  0.51031748  0.74257158  0.24309953  1
  V  V21  1  0.12686646  0.37544172  0.24711105  1
  V  V22  1  0.87588663  0.10668932  0.25484017  1
  V  V23  1  0.49408095  0.86243832  0.37668341  1
  V  V24  1  0.23989682  0.63401261  0.37751248  1
  V  V25  1  0.37347101  0.12355659  0.24783951  1
  V  V26  1  0.24892928  0.75641370  0.00796546  1
  V  V27  1  0.24809910  0.50061180  0.24872471  1
  V  V28  1  0.62573100  0.38416184  0.24794978  1
  V  V29  1  0.23962656  0.74927976  0.51151985  1
  V  V30  1  0.74973753  0.62892699  0.39129136  1
  V  V31  1  0.51043987  0.25003068  0.25424684  1
  V  V32  1  0.12419579  0.60801832  0.00922585  1
  V  V33  1  0.53480221  -0.02213735  0.51719484  1
  V  V34  1  0.50312292  0.51013061  0.49922430  1
  V  V35  1  0.01108341  0.61938465  0.62883338  1
  V  V36  1  0.12118981  0.37870159  0.74486866  1
  V  V37  1  0.37917356  0.62670818  0.24485801  1
  V  V38  1  0.62547634  0.89077431  0.25196710  1
  V  V39  1  0.87723518  0.62244202  0.74891337  1
  V  V40  1  -0.00101540  0.75085784  0.26071172  1
  V  V41  1  0.24349813  0.12560822  0.37319081  1
  V  V42  1  0.37547915  -0.00081914  0.87412490  1
  V  V43  1  0.87618630  0.50044254  0.88702133  1
  V  V44  1  0.11562029  0.12889148  0.50681762  1
  V  V45  1  0.37513652  0.49651941  0.38107198  1
  V  V46  1  -0.00167221  0.38164249  0.89295297  1
  V  V47  1  0.24821412  0.12007644  0.87167291  1
  V  V48  1  0.62920204  0.14077265  0.51114707  1
  V  V49  1  0.47672698  0.62586415  0.63573169  1
  V  V50  1  0.63063187  0.12562219  -0.00041641  1
  V  V51  1  0.26319378  0.36904351  0.61869995  1
  V  V52  1  0.12711723  -0.01278722  0.12006649  1
  V  V53  1  0.12404990  0.86590214  0.74665229  1
  V  V54  1  0.25120457  -0.00569511  0.24416403  1
  V  V55  1  0.11460818  0.74673018  0.87598066  1
  V  V56  1  0.00318564  0.50825553  0.49821812  1
  V  V57  1  -0.01292367  0.38321329  0.36998288  1
  V  V58  1  0.73795399  0.12129695  0.36398511  1
  V  V59  1  0.74365671  0.75605394  0.50191784  1
  V  V60  1  0.38343045  0.49852513  0.87330942  1
  V  V61  1  0.24910223  0.37941535  0.12376497  1
  V  V62  1  0.12508200  -0.00084787  0.63357011  1
  V  V63  1  0.12052358  0.25072817  0.87119389  1
  V  V64  1  0.75807220  0.50468394  0.25994346  1
  V  V65  1  0.87963284  0.75963301  0.63268836  1
  V  V66  1  0.25356762  0.62364966  0.87203897  1
  V  V67  1  0.11745308  0.11841492  -0.00208853  1
  V  V68  1  0.74461858  0.36941559  0.62330906  1
  V  V69  1  0.36231976  0.87303604  0.52318430  1
  V  V70  1  0.75296517  0.87766708  0.11728747  1
  V  V71  1  0.86591811  0.01092974  0.88316504  1
  V  V72  1  0.25367348  0.49931541  0.74586467  1
  V  V73  1  0.73818575  -0.01190727  0.73267833  1
  V  V74  1  -0.00020536  0.11666073  0.11900213  1
  V  V75  1  0.38862102  0.37580531  -0.00268067  1
  V  V76  1  0.63511142  0.74479532  0.86901540  1
  V  V77  1  0.62516230  0.51610103  0.62408318  1
  V  V78  1  -0.00513561  0.61805954  0.12615093  1
  Zn  Zn79  1  -0.00235836  0.88360415  0.87363143  1
  Zn  Zn80  1  0.37558982  0.75503513  0.12607269  1
  Zn  Zn81  1  0.37536059  0.00001507  0.38437624  1
  Zn  Zn82  1  0.87778128  0.62681302  0.25348132  1
  Zn  Zn83  1  0.48457220  0.75445068  0.74484042  1
  Zn  Zn84  1  0.46123711  0.15072866  0.59017056  1
  Zn  Zn85  1  0.27797803  0.25087148  0.50448614  1
  Zn  Zn86  1  0.87937868  0.24946813  0.11700202  1
  Zn  Zn87  1  0.12648916  0.25394693  0.37935764  1
  Zn  Zn88  1  0.37267975  0.87996134  0.00759979  1
  Zn  Zn89  1  -0.06291778  0.22048304  0.65930045  1
  Zn  Zn90  1  0.85719676  0.11415904  0.73103369  1
  Zn  Zn91  1  0.75331942  0.25973783  0.48096984  1
  Zn  Zn92  1  0.89813810  0.35760029  0.53137631  1
  Zn  Zn93  1  0.30209588  -0.05533920  0.69441757  1
  Zn  Zn94  1  0.18535008  0.18679499  0.18359242  1
  Zn  Zn95  1  0.18727180  0.18956571  0.68722367  1
  Zn  Zn96  1  0.18289614  0.68704519  0.18874450  1
  Zn  Zn97  1  0.19365064  0.68768418  0.68995840  1
  Zn  Zn98  1  0.69321261  0.18916123  0.18591006  1
  Zn  Zn99  1  0.68991668  0.18381350  0.69917565  1
  Zn  Zn100  1  0.69339388  0.69733767  0.18879807  1
  Zn  Zn101  1  0.68937495  0.69767558  0.68999205  1
  Zn  Zn102  1  0.31698066  0.31000098  0.31448023  1
  Zn  Zn103  1  0.31186152  0.31374333  0.81324811  1
  Zn  Zn104  1  0.31454259  0.81135293  0.31085640  1
  Zn  Zn105  1  0.30908870  0.81284804  0.81746630  1
  Zn  Zn106  1  0.81207246  0.30539826  0.30387999  1
  Zn  Zn107  1  0.80609232  0.31982247  0.81245689  1
  Zn  Zn108  1  0.80191977  0.80582893  0.29664475  1
  Zn  Zn109  1  0.80984063  0.82238430  0.80827010  1
  Zn  Zn110  1  0.18455446  0.43914356  0.43806503  1
  Zn  Zn111  1  0.19327186  0.43523067  0.93423798  1
  Zn  Zn112  1  0.18896917  0.94233442  0.44262908  1
  Zn  Zn113  1  0.18397322  0.93520794  0.93136872  1
  Zn  Zn114  1  0.68352191  0.44138603  0.43739258  1
  Zn  Zn115  1  0.68504987  0.44630759  0.94003116  1
  Zn  Zn116  1  0.69582423  0.93583152  0.42061360  1
  Zn  Zn117  1  0.69206798  0.93425867  0.93577728  1
  Zn  Zn118  1  0.31325356  0.06181280  0.06062343  1
  Zn  Zn119  1  0.30968655  0.07072173  0.55542148  1
  Zn  Zn120  1  0.31403408  0.56471798  0.05969066  1
  Zn  Zn121  1  0.30442724  0.55864292  0.55938380  1
  Zn  Zn122  1  0.81319172  0.05377883  0.06689378  1
  Zn  Zn123  1  0.80949353  0.06607496  0.55740028  1
  Zn  Zn124  1  0.81200228  0.56716312  0.06817176  1
  Zn  Zn125  1  0.82508453  0.55211592  0.56305821  1
  Zn  Zn126  1  0.43660927  0.43859171  0.18920804  1
  Zn  Zn127  1  0.43708769  0.43866880  0.68493126  1
  Zn  Zn128  1  0.43635158  0.93243752  0.18734085  1
  Zn  Zn129  1  0.55355454  0.95030291  0.68420131  1
  Zn  Zn130  1  0.93593347  0.43826470  0.18057438  1
  Zn  Zn131  1  0.94604069  0.42426695  0.68193997  1
  Zn  Zn132  1  0.94219182  0.92805992  0.18123804  1
  Zn  Zn133  1  0.94182672  0.94991004  0.69167413  1
  Zn  Zn134  1  0.06301856  0.05757629  0.31025653  1
  Zn  Zn135  1  0.04630475  0.06611973  0.80448000  1
  Zn  Zn136  1  0.06253742  0.56157291  0.31117549  1
  Zn  Zn137  1  0.06390217  0.56005758  0.81505154  1
  Zn  Zn138  1  0.55312426  0.05691588  0.32829219  1
  Zn  Zn139  1  0.56876758  0.06954006  0.81774801  1
  Zn  Zn140  1  0.57045084  0.56480882  0.31413335  1
  Zn  Zn141  1  0.56188085  0.56836595  0.81720485  1
  Zn  Zn142  1  0.43887298  0.18447585  0.42738685  1
  Zn  Zn143  1  0.44138843  0.18722090  0.93708556  1
  Zn  Zn144  1  0.42532943  0.68713156  0.44095036  1
  Zn  Zn145  1  0.43362718  0.69059714  0.93124523  1
  Zn  Zn146  1  0.93329829  0.19046569  0.43696483  1
  Zn  Zn147  1  0.93170282  0.19644016  0.84137841  1
  Zn  Zn148  1  0.93248459  0.68728860  0.43469338  1
  Zn  Zn149  1  0.93565798  0.67981399  0.94156788  1
  Zn  Zn150  1  0.06458828  0.30768581  0.06199327  1
  Zn  Zn151  1  0.07177842  0.32025391  0.56079869  1
  Zn  Zn152  1  0.05982889  0.80049712  0.06605372  1
  Zn  Zn153  1  0.05894153  0.81113534  0.56382403  1
  Zn  Zn154  1  0.56651719  0.31435798  0.06935751  1
  Zn  Zn155  1  0.56677924  0.31816708  0.56478487  1
  Zn  Zn156  1  0.57048502  0.81214918  0.06403576  1
  Zn  Zn157  1  0.55089503  0.79811459  0.55814517  1
  O  O158  1  0.11961458  0.11695068  0.11681567  1
  O  O159  1  0.12599835  0.11825318  0.61459834  1
  O  O160  1  0.12718673  0.61806190  0.11336751  1
  O  O161  1  0.10947329  0.63176772  0.63049774  1
  O  O162  1  0.61488100  0.13136885  0.11890676  1
  O  O163  1  0.63048899  0.13067078  0.61018503  1
  O  O164  1  0.63266340  0.64031670  0.11043766  1
  O  O165  1  0.62018433  0.61770723  0.63222411  1
  O  O166  1  0.38762322  0.38665903  0.36647419  1
  O  O167  1  0.36855894  0.38409013  0.88897211  1
  O  O168  1  0.38713316  0.88257818  0.36389456  1
  O  O169  1  0.38608957  0.88520737  0.88483662  1
  O  O170  1  0.88864423  0.37378561  0.36154464  1
  O  O171  1  0.89017322  0.38539102  0.87209191  1
  O  O172  1  0.87715986  0.86873836  0.37787669  1
  O  O173  1  0.87679800  0.87202439  0.88740508  1
  O  O174  1  0.24737988  0.00996162  0.36239512  1
  O  O175  1  0.26015609  0.01119742  0.88605921  1
  O  O176  1  0.25757887  0.50467735  0.36927019  1
  O  O177  1  0.26012075  0.50469542  0.86961831  1
  O  O178  1  0.75724653  0.02223275  0.37695275  1
  O  O179  1  0.76022974  -0.01188553  0.86420400  1
  O  O180  1  0.75248489  0.50471648  0.36635401  1
  O  O181  1  0.76576830  0.49020748  0.86592419  1
  O  O182  1  0.26052002  0.48883241  0.13524836  1
  O  O183  1  0.25341941  0.48821492  0.63563629  1
  O  O184  1  0.24124804  1.00749833  0.13515239  1
  O  O185  1  0.23197587  1.00253627  0.62076432  1
  O  O186  1  0.75206090  0.48894160  0.13241023  1
  O  O187  1  0.73971391  0.49981508  0.63293670  1
  O  O188  1  0.75454989  0.97819745  0.13470570  1
  O  O189  1  0.75106209  0.99773472  0.63235230  1
  O  O190  1  0.00769617  0.37107729  0.25124685  1
  O  O191  1  0.01907963  0.38479740  0.76404372  1
  O  O192  1  0.01540729  0.86309394  0.24575120  1
  O  O193  1  0.01921723  0.87925803  0.75234130  1
  O  O194  1  0.50747014  0.37040660  0.25343065  1
  O  O195  1  0.50879160  0.36944905  0.74561434  1
  O  O196  1  0.50544132  0.86354050  0.25891133  1
  O  O197  1  0.50083356  0.88091985  0.76510764  1
  O  O198  1  0.49558129  0.13020095  0.24735741  1
  O  O199  1  0.49082583  0.13529007  0.75840396  1
  O  O200  1  0.49517080  0.63539665  0.25951973  1
  O  O201  1  0.49366137  0.61586279  0.73672520  1
  O  O202  1  0.99669307  0.12862496  0.24136017  1
  O  O203  1  0.98353977  0.14228549  0.74955250  1
  O  O204  1  1.00272561  0.63150252  0.24374914  1
  O  O205  1  0.99348987  0.61418280  0.73783621  1
  O  O206  1  0.37393953  0.25714023  0.00368636  1
  O  O207  1  0.37191527  0.18713048  0.51756976  1
  O  O208  1  0.35705354  0.74500170  0.00044035  1
  O  O209  1  0.36242984  0.76616270  0.49629517  1
  O  O210  1  0.85812518  0.24990964  -0.00435209  1
  O  O211  1  0.86634923  0.25589469  0.49668974  1
  O  O212  1  0.87086790  0.75561741  -0.00319267  1
  O  O213  1  0.87379157  0.76454344  0.50655461  1
  O  O214  1  0.12000217  0.23498899  0.50088998  1
  O  O215  1  0.13174422  0.24068977  0.99136551  1
  O  O216  1  0.13945589  0.75802289  0.50212095  1
  O  O217  1  0.13341940  0.73994938  0.99419048  1
  O  O218  1  0.63172646  0.24574431  0.49924303  1
  O  O219  1  0.62689336  0.24593803  0.99777268  1
  O  O220  1  0.64515152  0.75652213  0.50946365  1
  O  O221  1  0.62102294  0.74059554  0.98878215  1
  O  O222  1  0.49647198  0.24197522  0.13429409  1
  O  O223  1  0.50635046  0.24822045  0.63981182  1
  O  O224  1  0.50172987  0.75201220  0.14074815  1
  O  O225  1  0.49654732  0.73058275  0.62787136  1
  O  O226  1  1.00143438  0.23844109  0.13023830  1
  O  O227  1  0.97695849  0.31744251  0.62077697  1
  O  O228  1  1.01516520  0.73058967  0.14301945  1
  O  O229  1  0.98680425  0.73397016  0.61653421  1
  O  O230  1  0.00324906  0.26093724  0.36214018  1
  O  O231  1  0.01146096  0.26809223  0.88121002  1
  O  O232  1  0.00874131  0.73562390  0.36073449  1
  O  O233  1  0.01321063  0.74151124  0.87789828  1
  O  O234  1  0.49170094  0.26218866  0.36317355  1
  O  O235  1  0.51059704  0.25298721  0.86995602  1
  O  O236  1  0.49244952  0.75814910  0.37157295  1
  O  O237  1  0.50117717  0.76718566  0.87854556  1
  O  O238  1  0.22798851  0.11857681  0.48728556  1
  O  O239  1  0.24288168  0.13148946  0.99218655  1
  O  O240  1  0.25600804  0.63490141  0.48674605  1
  O  O241  1  0.23947910  0.62805286  0.99363074  1
  O  O242  1  0.73910941  0.12902768  0.48467284  1
  O  O243  1  0.74103893  0.13961781  1.01577227  1
  O  O244  1  0.76110698  0.63243222  0.49675954  1
  O  O245  1  0.73999323  0.62143134  0.99789943  1
  O  O246  1  0.25905804  0.37143012  0.00840573  1
  O  O247  1  0.24432754  0.37175478  0.51289763  1
  O  O248  1  0.24847987  0.85898295  -0.00800834  1
  O  O249  1  0.25512251  0.86319175  0.49598033  1
  O  O250  1  0.74045610  0.37060089  0.01361003  1
  O  O251  1  0.73838850  0.37738775  0.51623617  1
  O  O252  1  0.74757003  0.86455502  0.01474768  1
  O  O253  1  0.76403434  0.86563713  0.48962713  1
  O  O254  1  0.14009452  0.49110262  0.25270444  1
  O  O255  1  0.14016353  0.48603699  0.76294251  1
  O  O256  1  0.13005928  0.98739118  0.24185591  1
  O  O257  1  0.12031282  1.00020380  0.73783227  1
  O  O258  1  0.63754665  0.49228731  0.25041548  1
  O  O259  1  0.63047551  0.49978314  0.74944092  1
  O  O260  1  0.60306102  0.98833402  0.24956279  1
  O  O261  1  0.62831761  1.00130126  0.75068846  1
  O  O262  1  0.36581629  0.00686311  0.24713336  1
  O  O263  1  0.37324301  0.00808793  0.76773499  1
  O  O264  1  0.36787756  0.50591450  0.25814392  1
  O  O265  1  0.36584086  0.49000331  0.76209308  1
  O  O266  1  0.88731460  0.00786877  0.24617659  1
  O  O267  1  0.86002430  -0.00353567  0.75727642  1
  O  O268  1  0.86026617  0.49998165  0.24651583  1
  O  O269  1  0.86803031  0.50557096  0.75331811  1
  O  O270  1  0.12250098  0.37311045  0.35872278  1
  O  O271  1  0.11974793  0.36865894  0.87372215  1
  O  O272  1  0.12405973  0.87898717  0.36753137  1
  O  O273  1  0.11823731  0.86593840  0.86866345  1
  O  O274  1  0.61328494  0.38120814  0.36385966  1
  O  O275  1  0.62509529  0.37505315  0.86779876  1
  O  O276  1  0.60001169  0.87960659  0.37505830  1
  O  O277  1  0.61314667  0.86441167  0.88255871  1
  O  O278  1  0.38497952  0.13017081  0.12855850  1
  O  O279  1  0.36305351  0.11269046  0.65155278  1
  O  O280  1  0.36810218  0.62757958  0.14107485  1
  O  O281  1  0.37803298  0.61663373  0.62735769  1
  O  O282  1  0.88539857  0.12281050  0.13112392  1
  O  O283  1  0.87961171  0.12964355  0.61819763  1
  O  O284  1  0.88991685  0.62554777  0.12752145  1
  O  O285  1  0.88409393  0.62812952  0.63437690  1
  O  O286  1  0.25704752  0.25692235  0.12017204  1
  O  O287  1  0.24705936  0.26390580  0.62396576  1
  O  O288  1  0.24563959  0.74511077  0.11030665  1
  O  O289  1  0.25309236  0.74068480  0.61079763  1
  O  O290  1  0.75199583  0.26154370  0.11543801  1
  O  O291  1  0.73475831  0.26980341  0.63399544  1
  O  O292  1  0.76356937  0.78711349  0.17758813  1
  O  O293  1  0.76689085  0.74336944  0.61171484  1
  O  O294  1  0.25161534  0.24021055  0.38175303  1
  O  O295  1  0.24144176  0.24402501  0.88153892  1
  O  O296  1  0.25224387  0.73683081  0.37537325  1
  O  O297  1  0.23791372  0.73854533  0.88478375  1
  O  O298  1  0.75559209  0.23200662  0.36673093  1
  O  O299  1  0.73558796  0.26512232  0.89372655  1
  O  O300  1  0.75393211  0.74001964  0.38914373  1
  O  O301  1  0.73384471  0.75388682  0.86636655  1
  O  O302  1  0.01330334  0.12918653  0.00813022  1
  O  O303  1  0.01026444  0.11444785  0.49310083  1
  O  O304  1  0.01361817  0.62778348  0.01370535  1
  O  O305  1  -0.00839421  0.61393786  0.50707230  1
  O  O306  1  0.50905224  0.12000411  0.00855954  1
  O  O307  1  0.52430676  0.12940443  0.48741288  1
  O  O308  1  0.49497001  0.61887935  0.00430908  1
  O  O309  1  0.49153579  0.61649516  0.50966225  1
  O  O310  1  0.50493677  0.38596382  0.48965021  1
  O  O311  1  0.49275214  0.38443282  1.00813615  1
  O  O312  1  0.47761633  0.87066221  0.49053234  1
  O  O313  1  0.50496221  0.88687851  0.99700277  1
  O  O314  1  1.00872149  0.37649372  0.47387832  1
  O  O315  1  1.00595941  0.37926542  0.99291629  1
  O  O316  1  0.99025588  0.88059335  0.49878904  1
  O  O317  1  0.98787180  0.86493860  0.99983244  1
  O  O318  1  0.49571413  0.49747171  0.38081826  1
  O  O319  1  0.48798495  0.50629120  0.88562031  1
  O  O320  1  0.49547484  0.98986063  0.40360851  1
  O  O321  1  0.49694566  0.99351286  0.88376802  1
  O  O322  1  0.99853000  0.49193416  0.37785902  1
  O  O323  1  0.99177265  0.49064763  0.87654858  1
  O  O324  1  1.00677247  0.99790450  0.39132200  1
  O  O325  1  0.97521671  0.99883858  0.86603564  1
  O  O326  1  0.01237658  0.00916968  0.12819864  1
  O  O327  1  0.01565172  -0.00449647  0.61168699  1
  O  O328  1  0.00540207  0.51656296  0.13733554  1
  O  O329  1  0.00161905  0.50990781  0.61560678  1
  O  O330  1  0.49580267  0.01064393  0.11721043  1
  O  O331  1  0.49489917  0.02604257  0.59857817  1
  O  O332  1  0.49620533  0.50281467  0.11453050  1
  O  O333  1  0.50345492  0.50918273  0.61836490  1
  O  O334  1  0.24791846  0.37930204  0.24410625  1
  O  O335  1  0.24502952  0.37997347  0.74375220  1
  O  O336  1  0.23895530  0.88381771  0.25532688  1
  O  O337  1  0.23298960  0.88325072  0.76363768  1
  O  O338  1  0.74503919  0.38405432  0.24505711  1
  O  O339  1  0.73442732  0.38809279  0.74536669  1
  O  O340  1  0.72074974  0.88875905  0.28993584  1
  O  O341  1  0.74082010  0.88446454  0.74313553  1
  O  O342  1  0.25119595  0.11915495  0.25437860  1
  O  O343  1  0.25599245  0.13447577  0.76643942  1
  O  O344  1  0.25556547  0.61862951  0.25827979  1
  O  O345  1  0.24033465  0.61233482  0.76218075  1
  O  O346  1  0.76608691  0.12516212  0.25050951  1
  O  O347  1  0.74399372  0.10328080  0.75361349  1
  O  O348  1  0.75050877  0.61276282  0.25019363  1
  O  O349  1  0.76001507  0.61575869  0.74576624  1
  O  O350  1  0.36339328  0.11917283  0.36377730  1
  O  O351  1  0.36801698  0.12043437  0.87332851  1
  O  O352  1  0.36677216  0.61535094  0.36512427  1
  O  O353  1  0.36163831  0.61235093  0.88365529  1
  O  O354  1  0.88085149  0.12320815  0.35620800  1
  O  O355  1  0.86553483  0.11162603  0.88720064  1
  O  O356  1  0.85847596  0.62612780  0.36942815  1
  O  O357  1  0.88738378  0.60920158  0.86349851  1
  O  O358  1  0.13868875  0.36887489  0.13292751  1
  O  O359  1  0.13466223  0.37614643  0.64219627  1
  O  O360  1  0.12187032  0.88561225  0.12097721  1
  O  O361  1  0.12556829  0.88153200  0.63786597  1
  O  O362  1  0.63831964  0.37256857  0.13798174  1
  O  O363  1  0.62721847  0.39203427  0.63737705  1
  O  O364  1  0.63703441  0.87037318  0.14362939  1
  O  O365  1  0.58388106  0.90482593  0.58332022  1
  O  O366  1  0.11659653  0.25704640  0.24820640  1
  O  O367  1  0.13166069  0.26376961  0.76227431  1
  O  O368  1  0.12794707  0.76459086  0.25299602  1
  O  O369  1  0.13107054  0.75975578  0.75770973  1
  O  O370  1  0.61458167  0.25783054  0.24600103  1
  O  O371  1  0.61841064  0.25988266  0.76250732  1
  O  O372  1  0.61146336  0.75457646  0.25647234  1
  O  O373  1  0.61096988  0.74227583  0.76405565  1
  O  O374  1  0.38399340  0.24361809  0.24368560  1
  O  O375  1  0.38638727  0.24373103  0.76143968  1
  O  O376  1  0.38568016  0.74158989  0.25020310  1
  O  O377  1  0.37708011  0.73986167  0.77308925  1
  O  O378  1  0.88957053  0.24070228  0.24137222  1
  O  O379  1  0.86197055  0.23986342  0.75812441  1
  O  O380  1  0.89605112  0.75166258  0.25397194  1
  O  O381  1  0.86800058  0.73971426  0.73919904  1
  O  O382  1  0.38240644  0.50251149  0.48773567  1
  O  O383  1  0.38456114  0.49498754  0.99616909  1
  O  O384  1  0.36047189  0.97983938  0.50067636  1
  O  O385  1  0.38865352  1.00519000  0.99182871  1
  O  O386  1  0.89679322  0.47804130  0.50853373  1
  O  O387  1  0.86965924  0.50606834  0.98553913  1
  O  O388  1  0.88524605  0.98464782  0.50241262  1
  O  O389  1  0.86298846  0.98503186  0.98781488  1
  O  O390  1  0.13360449  0.00963783  0.00585261  1
  O  O391  1  0.11535448  0.00520305  0.50803389  1
  O  O392  1  0.12985468  0.50928812  -0.00399227  1
  O  O393  1  0.10489862  0.49490508  0.49734908  1
  O  O394  1  0.61844647  0.01161359  -0.00731603  1
  O  O395  1  0.62757702  0.01507523  0.48925542  1
  O  O396  1  0.61112049  0.51775250  -0.00529559  1
  O  O397  1  0.61374025  0.50170053  0.51026751  1
  O  O398  1  0.36870860  0.36950354  0.11848057  1
  O  O399  1  0.36346733  0.37369120  0.62461499  1
  O  O400  1  0.37444575  0.86964926  0.12005205  1
  O  O401  1  0.36827379  0.87679043  0.62277061  1
  O  O402  1  0.85975055  0.37020283  0.12813040  1
  O  O403  1  0.84430300  0.38793074  0.63804271  1
  O  O404  1  0.86958989  0.87758354  0.10724045  1
  O  O405  1  0.88677575  0.85940074  0.63182878  1
  O  O406  1  0.12930529  0.12828131  0.37864925  1
  O  O407  1  0.12811442  0.12957535  0.87802627  1
  O  O408  1  0.14182052  0.61893755  0.37153297  1
  O  O409  1  0.13076032  0.62694010  0.88537939  1
  O  O410  1  0.63565640  0.12703080  0.36432064  1
  O  O411  1  0.62372196  0.14093200  0.89085394  1
  O  O412  1  0.64872462  0.61983931  0.37596003  1
  O  O413  1  0.61928114  0.63874996  0.88659912  1
