# generated using pymatgen
data_V79Zn79O256
_symmetry_space_group_name_H-M   'P 1'
_cell_length_a   16.94749701
_cell_length_b   16.98708467
_cell_length_c   16.94612400
_cell_angle_alpha   90.16496920
_cell_angle_beta   90.11627371
_cell_angle_gamma   89.74389760
_symmetry_Int_Tables_number   1
_chemical_formula_structural   V79Zn79O256
_chemical_formula_sum   'V79 Zn79 O256'
_cell_volume   4878.51647038
_cell_formula_units_Z   1
loop_
 _symmetry_equiv_pos_site_id
 _symmetry_equiv_pos_as_xyz
  1  'x, y, z'
loop_
 _atom_site_type_symbol
 _atom_site_label
 _atom_site_symmetry_multiplicity
 _atom_site_fract_x
 _atom_site_fract_y
 _atom_site_fract_z
 _atom_site_occupancy
  V  V0  1  0.24939621  -0.00353699  0.24349657  1
  V  V1  1  0.87445429  0.51019800  0.87348307  1
  V  V2  1  0.12834090  0.24788677  0.87872234  1
  V  V3  1  0.87335649  0.87466063  -0.00026704  1
  V  V4  1  0.12482465  0.49788445  0.12505328  1
  V  V5  1  0.74231697  -0.00509157  0.74570896  1
  V  V6  1  0.37760568  0.64818064  0.75308621  1
  V  V7  1  0.12994034  0.76034575  0.87244868  1
  V  V8  1  0.75655700  0.37390504  0.62412717  1
  V  V9  1  0.86703428  0.37138287  0.00061309  1
  V  V10  1  0.12105805  0.11930422  0.50389580  1
  V  V11  1  0.00212222  0.50108786  0.00212587  1
  V  V12  1  0.87122269  0.00087625  0.87455377  1
  V  V13  1  0.24870722  0.12588256  0.37735464  1
  V  V14  1  0.75321043  0.50839347  0.74843896  1
  V  V15  1  0.61903292  0.50511429  0.11631388  1
  V  V16  1  0.25804693  0.49982378  0.25231043  1
  V  V17  1  0.50095303  0.87259540  0.86259448  1
  V  V18  1  -0.00572625  0.24445860  0.25079285  1
  V  V19  1  -0.00296251  -0.01704189  0.49508966  1
  V  V20  1  0.36387387  0.00607931  0.85929199  1
  V  V21  1  -0.02648265  0.75489895  0.74290921  1
  V  V22  1  0.38058912  -0.00180972  0.37522844  1
  V  V23  1  0.87558875  0.37469341  0.49000737  1
  V  V24  1  0.24434591  0.24449121  0.52948321  1
  V  V25  1  0.12477210  0.25013822  0.37498116  1
  V  V26  1  0.50702160  0.02582120  0.49395485  1
  V  V27  1  0.49866597  0.25813706  0.25621696  1
  V  V28  1  0.75268865  0.23789938  0.50157987  1
  V  V29  1  0.61464505  0.75336782  0.37008840  1
  V  V30  1  0.62489311  0.13360049  -0.00454342  1
  V  V31  1  0.62208110  -0.00068243  0.12149415  1
  V  V32  1  0.75553123  0.87259681  0.61408707  1
  V  V33  1  0.39101804  0.87399433  0.50070952  1
  V  V34  1  0.61638604  0.25658663  0.87240966  1
  V  V35  1  0.61989396  0.63432254  -0.00018785  1
  V  V36  1  0.25257884  0.75652944  0.51001070  1
  V  V37  1  -0.00330391  0.25112363  0.75002785  1
  V  V38  1  0.49594553  0.00009995  -0.00425518  1
  V  V39  1  0.87129356  0.74922977  0.12056374  1
  V  V40  1  0.00367224  0.75322493  0.25348386  1
  V  V41  1  0.24731004  0.60619620  0.87864687  1
  V  V42  1  0.13818381  0.38103259  0.74364416  1
  V  V43  1  0.75295190  0.01689962  0.24918125  1
  V  V44  1  0.37945497  0.63591557  0.24857883  1
  V  V45  1  0.61786670  0.00959052  0.62248020  1
  V  V46  1  0.75325467  0.63128975  0.87860227  1
  V  V47  1  -0.00054283  0.12679499  0.62547815  1
  V  V48  1  0.25674767  0.24832505  0.00977216  1
  V  V49  1  0.87007566  0.62605392  0.25731878  1
  V  V50  1  0.12290160  0.12569235  0.00033654  1
  V  V51  1  -0.00001352  0.62024364  0.12804524  1
  V  V52  1  0.48453706  0.52600499  0.49356969  1
  V  V53  1  0.62319902  0.38102877  0.25801336  1
  V  V54  1  0.12442966  0.75908174  0.37595174  1
  V  V55  1  0.76888175  0.75700858  0.48501055  1
  V  V56  1  0.37192709  0.13428732  0.24482618  1
  V  V57  1  0.74566750  0.13258745  0.87429405  1
  V  V58  1  -0.00416351  0.61935883  0.63437931  1
  V  V59  1  0.74630412  0.37451053  0.12380542  1
  V  V60  1  0.74655613  0.87442656  0.12242408  1
  V  V61  1  0.37870732  0.35290015  0.50179285  1
  V  V62  1  0.87072680  0.13028762  0.74499374  1
  V  V63  1  0.62063170  0.37685198  0.74900805  1
  V  V64  1  0.49074258  0.23938135  0.73453783  1
  V  V65  1  0.36988166  0.87033060  0.01289341  1
  V  V66  1  0.40713639  0.40917280  -0.00242052  1
  V  V67  1  0.63278380  0.23743605  0.37681325  1
  V  V68  1  0.75014373  0.50539883  0.25554103  1
  V  V69  1  0.12426973  -0.00569981  0.12490858  1
  V  V70  1  0.25344798  0.62585133  0.37751503  1
  V  V71  1  0.12523812  0.37424399  0.24916797  1
  V  V72  1  0.62645212  0.75790515  0.86467962  1
  V  V73  1  0.87047791  0.24761931  0.12812354  1
  V  V74  1  0.64117316  0.62726204  0.49955825  1
  V  V75  1  0.49343404  0.13568036  0.12087402  1
  V  V76  1  -0.00357766  -0.00224117  0.00502509  1
  V  V77  1  0.24829121  0.88656800  0.63681832  1
  V  V78  1  -0.00279810  0.37510617  0.87423471  1
  Zn  Zn79  1  0.48883148  0.77445123  0.23737578  1
  Zn  Zn80  1  -0.01181822  0.11903722  0.13171655  1
  Zn  Zn81  1  -0.00116880  0.50221095  0.50760523  1
  Zn  Zn82  1  0.87797078  0.00337591  0.37430405  1
  Zn  Zn83  1  0.00585649  0.38101247  0.37926230  1
  Zn  Zn84  1  0.62416735  0.50629987  0.62156355  1
  Zn  Zn85  1  0.13138216  0.87253740  0.24672925  1
  Zn  Zn86  1  0.12827511  0.62632556  0.50954291  1
  Zn  Zn87  1  0.48263401  0.63295938  0.10962854  1
  Zn  Zn88  1  0.12419930  -0.00694587  0.63402421  1
  Zn  Zn89  1  0.88018985  0.50715240  0.37762796  1
  Zn  Zn90  1  0.26839265  0.36664344  0.12781272  1
  Zn  Zn91  1  0.61896879  0.88479639  0.26332238  1
  Zn  Zn92  1  0.26170458  0.74044153  0.01284097  1
  Zn  Zn93  1  0.00409790  0.87990084  0.86033364  1
  Zn  Zn94  1  0.18139122  0.18187990  0.18438510  1
  Zn  Zn95  1  0.26437985  0.11553271  0.66968468  1
  Zn  Zn96  1  0.19146880  0.68359848  0.18799134  1
  Zn  Zn97  1  0.17882727  0.67461797  0.70317786  1
  Zn  Zn98  1  0.67847673  0.19430293  0.18015008  1
  Zn  Zn99  1  0.68138421  0.18925970  0.68297089  1
  Zn  Zn100  1  0.68488335  0.69018947  0.18583698  1
  Zn  Zn101  1  0.68646810  0.69342787  0.68281195  1
  Zn  Zn102  1  0.31272632  0.31751087  0.31892334  1
  Zn  Zn103  1  0.31902196  0.32003130  0.82268353  1
  Zn  Zn104  1  0.31152745  0.81360067  0.31672166  1
  Zn  Zn105  1  0.30906178  0.81726511  0.82413069  1
  Zn  Zn106  1  0.81488499  0.18434679  0.31105707  1
  Zn  Zn107  1  0.80897455  0.31665783  0.81248243  1
  Zn  Zn108  1  0.81335486  0.82529278  0.30989243  1
  Zn  Zn109  1  0.80844191  0.81570363  0.81180252  1
  Zn  Zn110  1  0.21995885  0.42674324  0.43441340  1
  Zn  Zn111  1  0.18937278  0.42926700  0.93906974  1
  Zn  Zn112  1  0.19051585  0.93791422  0.44114436  1
  Zn  Zn113  1  0.18817678  0.93811900  0.93766617  1
  Zn  Zn114  1  0.69226462  0.43475498  0.43425302  1
  Zn  Zn115  1  0.68339622  0.44215967  0.93578368  1
  Zn  Zn116  1  0.68632319  0.93960791  0.43515207  1
  Zn  Zn117  1  0.68679062  0.94116755  0.93697824  1
  Zn  Zn118  1  0.31000890  0.06259160  0.05640430  1
  Zn  Zn119  1  0.39583677  0.00461962  0.64809161  1
  Zn  Zn120  1  0.31028366  0.56100181  0.06239434  1
  Zn  Zn121  1  0.30782300  0.56576406  0.57268881  1
  Zn  Zn122  1  0.80789671  0.06316032  0.06134221  1
  Zn  Zn123  1  0.81741223  0.05602053  0.56205066  1
  Zn  Zn124  1  0.80886536  0.56194566  0.06250003  1
  Zn  Zn125  1  0.81501813  0.56602153  0.56426610  1
  Zn  Zn126  1  0.44043445  0.44130989  0.17993634  1
  Zn  Zn127  1  0.44610021  0.42618027  0.66235678  1
  Zn  Zn128  1  0.43854093  0.94546236  0.18796506  1
  Zn  Zn129  1  0.44264315  0.81019668  0.67841447  1
  Zn  Zn130  1  0.93463757  0.43258682  0.19293142  1
  Zn  Zn131  1  0.93727993  0.44109311  0.68530537  1
  Zn  Zn132  1  0.92541528  0.92857215  0.21007505  1
  Zn  Zn133  1  0.93396201  0.94175335  0.68167175  1
  Zn  Zn134  1  0.06144728  0.06000345  0.31430766  1
  Zn  Zn135  1  0.05728192  0.06515741  0.81795787  1
  Zn  Zn136  1  0.06617488  0.56460589  0.32045886  1
  Zn  Zn137  1  0.06685034  0.56792711  0.80978761  1
  Zn  Zn138  1  0.56164786  0.06638471  0.30639639  1
  Zn  Zn139  1  0.55603760  0.06290384  0.80730617  1
  Zn  Zn140  1  0.56493800  0.56242362  0.32397247  1
  Zn  Zn141  1  0.56973565  0.57726498  0.79821653  1
  Zn  Zn142  1  0.43391263  0.19275179  0.43534319  1
  Zn  Zn143  1  0.43406564  0.18894555  0.92420811  1
  Zn  Zn144  1  0.43908494  0.69219337  0.43575507  1
  Zn  Zn145  1  0.43563677  0.68735316  0.92928885  1
  Zn  Zn146  1  0.93616171  0.18488927  0.43915170  1
  Zn  Zn147  1  0.93475890  0.18625620  0.93946763  1
  Zn  Zn148  1  0.94716361  0.68597802  0.44258626  1
  Zn  Zn149  1  0.96897716  0.70153405  0.94778371  1
  Zn  Zn150  1  0.05806507  0.31251176  0.06442052  1
  Zn  Zn151  1  0.06222776  0.31088200  0.56731373  1
  Zn  Zn152  1  0.09597615  0.78747955  0.07177973  1
  Zn  Zn153  1  0.06759616  0.80615390  0.57564806  1
  Zn  Zn154  1  0.56004058  0.31674522  0.06283863  1
  Zn  Zn155  1  0.56737987  0.31277121  0.56112637  1
  Zn  Zn156  1  0.55653879  0.80892623  0.06031391  1
  Zn  Zn157  1  0.58070391  0.81544899  0.56270035  1
  O  O158  1  0.11368137  0.11558980  0.11577888  1
  O  O159  1  0.11504623  0.11995880  0.61214444  1
  O  O160  1  0.11038806  0.60641959  0.13681569  1
  O  O161  1  0.11087323  0.63378088  0.62538647  1
  O  O162  1  0.61551373  0.12138543  0.11311295  1
  O  O163  1  0.63217029  0.10893330  0.61807127  1
  O  O164  1  0.63689265  0.62082988  0.10699671  1
  O  O165  1  0.63153729  0.62696567  0.60655341  1
  O  O166  1  0.33763851  0.38516750  0.40853258  1
  O  O167  1  0.36538245  0.37280366  0.91241929  1
  O  O168  1  0.36832753  0.89120677  0.38536228  1
  O  O169  1  0.39084228  0.88206962  0.88538226  1
  O  O170  1  0.87922117  0.37792877  0.38909923  1
  O  O171  1  0.87737123  0.38339566  0.88293788  1
  O  O172  1  0.88979620  0.90380368  0.32071978  1
  O  O173  1  0.86822900  0.88338372  0.88532750  1
  O  O174  1  0.25655039  0.01159613  0.36948583  1
  O  O175  1  0.26548923  -0.00951916  0.87378687  1
  O  O176  1  0.23899658  0.51421362  0.36139031  1
  O  O177  1  0.24593944  0.50667235  0.87979916  1
  O  O178  1  0.74631232  -0.00413144  0.35086675  1
  O  O179  1  0.74819555  0.01056663  0.86428006  1
  O  O180  1  0.75545030  0.49593511  0.35774830  1
  O  O181  1  0.75606700  0.50870296  0.86818464  1
  O  O182  1  0.23752337  0.49849702  0.13244150  1
  O  O183  1  0.21160336  0.49961639  0.58253525  1
  O  O184  1  0.23935604  1.01219485  0.13457037  1
  O  O185  1  0.24892988  0.98886204  0.62638808  1
  O  O186  1  0.74101965  0.49480839  0.13111274  1
  O  O187  1  0.75090735  0.49644865  0.63573312  1
  O  O188  1  0.73639608  0.99818534  0.12566448  1
  O  O189  1  0.74211836  0.99771398  0.62784437  1
  O  O190  1  0.00859578  0.36540489  0.25558853  1
  O  O191  1  -0.01104876  0.36735508  0.76230462  1
  O  O192  1  0.01204549  0.85358834  0.23267160  1
  O  O193  1  -0.01152688  0.86267466  0.74364289  1
  O  O194  1  0.50918419  0.36725328  0.23976264  1
  O  O195  1  0.51847632  0.37266334  0.73662448  1
  O  O196  1  0.50681448  0.88446277  0.24940910  1
  O  O197  1  0.49837812  0.87379090  0.76492771  1
  O  O198  1  0.49065373  0.13500769  0.24052938  1
  O  O199  1  0.50083649  0.13938831  0.74647187  1
  O  O200  1  0.47795743  0.61539765  0.26313172  1
  O  O201  1  0.47822411  0.63011982  0.76856309  1
  O  O202  1  1.00797019  0.14030989  0.24896862  1
  O  O203  1  0.99058598  0.13149176  0.74647485  1
  O  O204  1  0.99148366  0.62788874  0.24331620  1
  O  O205  1  0.99941831  0.63538395  0.74285111  1
  O  O206  1  0.35517396  0.23467244  -0.00422140  1
  O  O207  1  0.35428504  0.24641581  0.50186144  1
  O  O208  1  0.37891203  0.76581050  -0.00103538  1
  O  O209  1  0.36548569  0.76660559  0.48866102  1
  O  O210  1  0.87939651  0.26566874  0.00695791  1
  O  O211  1  0.86141545  0.26115155  0.49405618  1
  O  O212  1  0.88704423  0.76034592  0.01279808  1
  O  O213  1  0.86757104  0.75206166  0.49253692  1
  O  O214  1  0.12780160  0.23955441  0.49494958  1
  O  O215  1  0.12133362  0.24222738  0.99760464  1
  O  O216  1  0.14014556  0.75553017  0.49362858  1
  O  O217  1  0.08366452  0.73998155  0.96919450  1
  O  O218  1  0.63700125  0.25818715  0.48377736  1
  O  O219  1  0.61695255  0.24014130  0.99104206  1
  O  O220  1  0.63934147  0.74564882  0.48608984  1
  O  O221  1  0.62847103  0.73856089  0.99109386  1
  O  O222  1  0.50795356  0.24058395  0.13503965  1
  O  O223  1  0.50474966  0.25380544  0.63523548  1
  O  O224  1  0.52118808  0.73583510  0.13616540  1
  O  O225  1  0.51230316  0.75175226  0.61881227  1
  O  O226  1  0.98818245  0.25199469  0.13452841  1
  O  O227  1  1.00266711  0.23676444  0.63780813  1
  O  O228  1  0.99787396  0.73409993  0.13122385  1
  O  O229  1  0.99884893  0.74285867  0.63872901  1
  O  O230  1  0.01269111  0.25276640  0.37126160  1
  O  O231  1  -0.00042536  0.25894330  0.87288472  1
  O  O232  1  0.01202228  0.74302985  0.36482862  1
  O  O233  1  -0.00493785  0.75549458  0.85198195  1
  O  O234  1  0.51086067  0.24557713  0.36230624  1
  O  O235  1  0.51260025  0.24889695  0.86401005  1
  O  O236  1  0.51193796  0.74907376  0.36601845  1
  O  O237  1  0.51276122  0.76522053  0.88227892  1
  O  O238  1  0.23754131  0.13449472  0.48888804  1
  O  O239  1  0.23214199  0.13354907  1.00489296  1
  O  O240  1  0.25610204  0.64508827  0.49515119  1
  O  O241  1  0.25842900  0.62698181  0.98446083  1
  O  O242  1  0.75865207  0.13992843  0.50704705  1
  O  O243  1  0.73548543  0.11820354  0.98628602  1
  O  O244  1  0.74991447  0.64573690  0.50360927  1
  O  O245  1  0.74268923  0.62145094  0.98495800  1
  O  O246  1  0.23833681  0.35420493  0.01020064  1
  O  O247  1  0.23517081  0.34440732  0.51595596  1
  O  O248  1  0.26914059  0.88061413  -0.00054489  1
  O  O249  1  0.26013609  0.86979425  0.50628044  1
  O  O250  1  0.75701536  0.38573975  0.01027993  1
  O  O251  1  0.75949252  0.37025706  0.50468757  1
  O  O252  1  0.76186797  0.88682101  0.00994700  1
  O  O253  1  0.75227627  0.86882672  0.50350112  1
  O  O254  1  0.12980005  0.49023442  0.24515880  1
  O  O255  1  0.11691146  0.47828736  0.76186816  1
  O  O256  1  0.13171559  1.00087792  0.24259403  1
  O  O257  1  0.14466882  1.03055148  0.74969759  1
  O  O258  1  0.63030707  0.49891628  0.24520943  1
  O  O259  1  0.63347747  0.49574730  0.74859156  1
  O  O260  1  0.62869402  1.00560053  0.23383246  1
  O  O261  1  0.62966962  1.00632498  0.73482280  1
  O  O262  1  0.36891446  0.01404975  0.25632803  1
  O  O263  1  0.38317134  -0.01009868  0.76217553  1
  O  O264  1  0.36132816  0.50101014  0.24495359  1
  O  O265  1  0.40397551  0.48309481  0.77226158  1
  O  O266  1  0.85087292  0.01868167  0.22319310  1
  O  O267  1  0.86483489  0.01189230  0.75492911  1
  O  O268  1  0.86851969  0.50898728  0.24875981  1
  O  O269  1  0.86416572  0.49454114  0.76260273  1
  O  O270  1  0.13263754  0.36496887  0.36627021  1
  O  O271  1  0.10979299  0.36685951  0.87553723  1
  O  O272  1  0.13458645  0.86309919  0.37097125  1
  O  O273  1  0.11947469  0.86673061  0.88075284  1
  O  O274  1  0.63087537  0.36857061  0.36085775  1
  O  O275  1  0.63687382  0.36590863  0.86327864  1
  O  O276  1  0.62781218  0.85898222  0.37882272  1
  O  O277  1  0.61870723  0.86596368  0.88051733  1
  O  O278  1  0.38225128  0.12067837  0.13390580  1
  O  O279  1  0.36427895  0.10870402  0.62796630  1
  O  O280  1  0.37062497  0.62304737  0.14288110  1
  O  O281  1  0.36387563  0.60799970  0.65973598  1
  O  O282  1  0.87063372  0.14428267  0.11172198  1
  O  O283  1  0.88410167  0.11936129  0.63709987  1
  O  O284  1  0.88023004  0.63107403  0.13033288  1
  O  O285  1  0.89477920  0.62502974  0.61965036  1
  O  O286  1  0.24685425  0.24631305  0.11613770  1
  O  O287  1  0.23929697  0.22816274  0.62577139  1
  O  O288  1  0.20154306  0.75460526  0.10515024  1
  O  O289  1  0.25175122  0.75870651  0.61037585  1
  O  O290  1  0.75427500  0.26541140  0.13031026  1
  O  O291  1  0.74086891  0.25907021  0.60942899  1
  O  O292  1  0.76094596  0.76081738  0.12861324  1
  O  O293  1  0.74381807  0.76863555  0.61647658  1
  O  O294  1  0.23745815  0.23861999  0.36955370  1
  O  O295  1  0.23247126  0.25372815  0.88939306  1
  O  O296  1  0.24277595  0.74498641  0.37965723  1
  O  O297  1  0.23462180  0.75849897  0.89159823  1
  O  O298  1  0.74050432  0.24466327  0.38266330  1
  O  O299  1  0.73895959  0.23801782  0.86661260  1
  O  O300  1  0.75405325  0.76021159  0.38236334  1
  O  O301  1  0.73830620  0.74471545  0.87073207  1
  O  O302  1  0.00100196  0.11250456  0.00229974  1
  O  O303  1  0.00516943  0.12309999  0.50969539  1
  O  O304  1  -0.00959606  0.60833088  0.01392470  1
  O  O305  1  0.00951508  0.62170477  0.51206307  1
  O  O306  1  0.50355813  0.12092407  0.00251983  1
  O  O307  1  0.49920369  0.12361191  0.49957052  1
  O  O308  1  0.51582860  0.62912314  -0.00618309  1
  O  O309  1  0.51483202  0.62654547  0.49574744  1
  O  O310  1  0.47842796  0.34656721  0.49113487  1
  O  O311  1  0.50681610  0.38735778  0.99414326  1
  O  O312  1  0.48981883  0.86957959  0.49769161  1
  O  O313  1  0.49499998  0.88769063  0.99700524  1
  O  O314  1  0.98534629  0.37278118  0.50617085  1
  O  O315  1  0.98969759  0.38245713  0.99288494  1
  O  O316  1  1.00960332  0.88617534  0.51170416  1
  O  O317  1  0.98459000  0.88913565  0.99887080  1
  O  O318  1  0.51400905  0.49368522  0.40157883  1
  O  O319  1  0.45425686  0.48467201  0.82794610  1
  O  O320  1  0.49267465  1.01353455  0.38210871  1
  O  O321  1  0.50370157  0.98884818  0.88090421  1
  O  O322  1  1.00246185  0.49735334  0.38750356  1
  O  O323  1  0.99278948  0.49495005  0.88277829  1
  O  O324  1  1.00829472  0.99847078  0.39286294  1
  O  O325  1  0.99022339  0.99799283  0.88237001  1
  O  O326  1  0.00266137  0.00060034  0.11892493  1
  O  O327  1  0.00469225  0.00988046  0.61835024  1
  O  O328  1  0.00219205  0.50090941  0.12160411  1
  O  O329  1  0.00347756  0.51142573  0.62697147  1
  O  O330  1  0.50538540  0.01511734  0.11469835  1
  O  O331  1  0.51068032  0.00054718  0.60670651  1
  O  O332  1  0.51673203  0.51647730  0.13342119  1
  O  O333  1  0.51457931  0.48354785  0.58769517  1
  O  O334  1  0.24399972  0.38042815  0.24568763  1
  O  O335  1  0.23627648  0.36812047  0.76066142  1
  O  O336  1  0.25284199  0.89325209  0.25385986  1
  O  O337  1  0.26195930  0.86925317  0.73326635  1
  O  O338  1  0.73669738  0.38911054  0.23524272  1
  O  O339  1  0.74402812  0.38331940  0.74269513  1
  O  O340  1  0.73925234  0.88973321  0.23130610  1
  O  O341  1  0.75147057  0.89011856  0.74033989  1
  O  O342  1  0.25442580  0.12013655  0.25713019  1
  O  O343  1  0.19953995  0.09201200  0.75931004  1
  O  O344  1  0.25844869  0.61935502  0.25624674  1
  O  O345  1  0.26060512  0.63169673  0.76889866  1
  O  O346  1  0.73817717  0.12161849  0.24595027  1
  O  O347  1  0.75370463  0.12016468  0.75347324  1
  O  O348  1  0.76010113  0.61686690  0.23927349  1
  O  O349  1  0.74106962  0.61622145  0.76032176  1
  O  O350  1  0.36641811  0.12013628  0.36707162  1
  O  O351  1  0.37880627  0.10508342  0.87355074  1
  O  O352  1  0.36065085  0.63304394  0.36565807  1
  O  O353  1  0.35970709  0.63265548  0.86545340  1
  O  O354  1  0.88041334  0.11728201  0.37129080  1
  O  O355  1  0.86374671  0.12151640  0.86904228  1
  O  O356  1  0.88121985  0.62788737  0.36015067  1
  O  O357  1  0.86954071  0.61396737  0.88477508  1
  O  O358  1  0.11997780  0.38169347  0.13766444  1
  O  O359  1  0.11869008  0.36755142  0.64570510  1
  O  O360  1  0.12004232  0.89285588  0.12083215  1
  O  O361  1  0.14303376  0.87665113  0.62613544  1
  O  O362  1  0.62913422  0.38538783  0.12862105  1
  O  O363  1  0.64022677  0.38009486  0.62933545  1
  O  O364  1  0.63114647  0.88945840  0.11002602  1
  O  O365  1  0.64232467  0.89722365  0.61426516  1
  O  O366  1  0.11866672  0.25626908  0.25515861  1
  O  O367  1  0.10562838  0.26261901  0.76596762  1
  O  O368  1  0.12028443  0.74668506  0.25993358  1
  O  O369  1  0.12144724  0.75132857  0.76960231  1
  O  O370  1  0.61974075  0.25943772  0.25894038  1
  O  O371  1  0.61847714  0.25770756  0.75367117  1
  O  O372  1  0.63401062  0.75143535  0.26608985  1
  O  O373  1  0.62312894  0.74540875  0.76583781  1
  O  O374  1  0.38163271  0.24335255  0.26048045  1
  O  O375  1  0.39474804  0.26473238  0.75798193  1
  O  O376  1  0.37513777  0.74058728  0.25350568  1
  O  O377  1  0.37385994  0.75264415  0.75013518  1
  O  O378  1  0.88216784  0.25115401  0.24110704  1
  O  O379  1  0.88179654  0.23974371  0.75910468  1
  O  O380  1  0.88302710  0.74401690  0.23825412  1
  O  O381  1  0.87409763  0.74815060  0.74651562  1
  O  O382  1  0.38399715  0.52574920  0.49514159  1
  O  O383  1  0.39209564  0.50920987  1.00091956  1
  O  O384  1  0.39612526  0.99164879  0.49066134  1
  O  O385  1  0.38385489  0.99556338  0.99273910  1
  O  O386  1  0.87130490  0.48699533  0.49817421  1
  O  O387  1  0.88111895  0.49049368  0.99518852  1
  O  O388  1  0.89244113  0.99894060  0.49800518  1
  O  O389  1  0.87864631  0.99670235  0.99628837  1
  O  O390  1  0.11637319  0.00653096  0.00433479  1
  O  O391  1  0.11844810  0.00790922  0.50147464  1
  O  O392  1  0.11127105  0.48698852  0.01221043  1
  O  O393  1  0.16636325  0.50399792  0.51468646  1
  O  O394  1  0.61486377  0.01200665  0.00236523  1
  O  O395  1  0.61184833  0.00295808  0.49878853  1
  O  O396  1  0.62845720  0.51391117  0.00600995  1
  O  O397  1  0.64681307  0.52286214  0.49381331  1
  O  O398  1  0.38009244  0.38245037  0.10008734  1
  O  O399  1  0.36271201  0.39537678  0.59351846  1
  O  O400  1  0.38131941  0.88387131  0.11161238  1
  O  O401  1  0.37244741  0.88563252  0.61042100  1
  O  O402  1  0.86601168  0.37016287  0.11971917  1
  O  O403  1  0.86224038  0.37835072  0.61890779  1
  O  O404  1  0.86656489  0.86849009  0.12023333  1
  O  O405  1  0.85437649  0.88708033  0.62232051  1
  O  O406  1  0.12996603  0.13113676  0.38134373  1
  O  O407  1  0.11036621  0.13757789  0.89037583  1
  O  O408  1  0.13721453  0.63682886  0.38140061  1
  O  O409  1  0.14194916  0.63203509  0.87025794  1
  O  O410  1  0.62444239  0.13918715  0.37026369  1
  O  O411  1  0.62740016  0.13270784  0.87782526  1
  O  O412  1  0.62923033  0.64049536  0.38588759  1
  O  O413  1  0.63074602  0.63476985  0.88200626  1
