# generated using pymatgen
data_V79Zn79O256
_symmetry_space_group_name_H-M   'P 1'
_cell_length_a   16.91158034
_cell_length_b   16.87136787
_cell_length_c   16.92695855
_cell_angle_alpha   89.99542967
_cell_angle_beta   89.81697836
_cell_angle_gamma   89.94824574
_symmetry_Int_Tables_number   1
_chemical_formula_structural   V79Zn79O256
_chemical_formula_sum   'V79 Zn79 O256'
_cell_volume   4829.59846172
_cell_formula_units_Z   1
loop_
 _symmetry_equiv_pos_site_id
 _symmetry_equiv_pos_as_xyz
  1  'x, y, z'
loop_
 _atom_site_type_symbol
 _atom_site_label
 _atom_site_symmetry_multiplicity
 _atom_site_fract_x
 _atom_site_fract_y
 _atom_site_fract_z
 _atom_site_occupancy
  V  V0  1  0.75066071  0.12235672  0.87543703  1
  V  V1  1  0.00344591  -0.00817509  -0.00280435  1
  V  V2  1  0.25088840  0.12468310  0.87852523  1
  V  V3  1  0.74487793  0.38421061  0.12789081  1
  V  V4  1  0.87480343  0.49984154  0.87433644  1
  V  V5  1  0.12679073  0.62075262  -0.00417805  1
  V  V6  1  0.88057903  0.37084625  -0.00511252  1
  V  V7  1  0.25725694  0.00958466  0.25851057  1
  V  V8  1  0.87613841  0.62961678  0.25790517  1
  V  V9  1  0.62038985  0.11090916  0.00173919  1
  V  V10  1  0.87536107  0.12554689  0.26380825  1
  V  V11  1  0.88034049  -0.02600351  0.38036909  1
  V  V12  1  0.49619568  0.38920795  0.88352200  1
  V  V13  1  0.61535830  0.75512320  0.88694665  1
  V  V14  1  0.49596975  0.37801026  0.38594911  1
  V  V15  1  0.73577535  0.62231115  0.36933684  1
  V  V16  1  0.01261127  0.76019363  0.27251314  1
  V  V17  1  -0.00366540  0.12377523  0.12609635  1
  V  V18  1  0.12162975  0.25786843  0.87883898  1
  V  V19  1  0.50104906  0.60960976  0.12234200  1
  V  V20  1  0.25097292  0.25503752  0.00174740  1
  V  V21  1  0.87243643  0.86966107  -0.00288914  1
  V  V22  1  0.50869316  0.12502041  0.62540233  1
  V  V23  1  0.01696729  0.50477241  0.50228464  1
  V  V24  1  0.51243281  0.87481536  0.36666642  1
  V  V25  1  0.25206374  -0.00185916  0.75175613  1
  V  V26  1  0.49818671  0.11690496  0.12552094  1
  V  V27  1  0.62384692  0.37977285  0.74938076  1
  V  V28  1  0.12989645  0.38137817  0.74120773  1
  V  V29  1  0.37748383  0.49832773  0.38159596  1
  V  V30  1  0.88234271  -0.00701783  0.87254076  1
  V  V31  1  0.74969077  -0.00485648  0.74453998  1
  V  V32  1  0.37490645  0.87518188  0.49007566  1
  V  V33  1  0.12324911  -0.00528839  0.13360663  1
  V  V34  1  0.62247103  0.24661616  0.87783499  1
  V  V35  1  0.38291219  0.87761858  -0.00055310  1
  V  V36  1  0.74678096  0.63041665  0.88066017  1
  V  V37  1  0.49677232  0.74805188  0.73781048  1
  V  V38  1  0.25932670  0.87041365  0.62307860  1
  V  V39  1  0.88922616  0.74565881  0.12132457  1
  V  V40  1  0.74537401  0.50641404  0.75402511  1
  V  V41  1  0.74703538  0.38164455  0.62773575  1
  V  V42  1  0.61731471  0.87419452  0.74816361  1
  V  V43  1  0.24440023  0.87149568  0.13399676  1
  V  V44  1  0.74558957  0.86686379  0.12811497  1
  V  V45  1  0.11044633  0.24582831  0.34735450  1
  V  V46  1  0.37700994  0.12234797  0.75299438  1
  V  V47  1  0.13132814  0.62525414  0.51558635  1
  V  V48  1  0.36683061  0.25478843  0.62542087  1
  V  V49  1  0.25300484  0.74695399  0.49204906  1
  V  V50  1  0.62096040  0.60575067  -0.00003567  1
  V  V51  1  0.63380701  0.12756736  0.47986063  1
  V  V52  1  0.49548981  0.00166398  0.49231913  1
  V  V53  1  0.23923138  0.61703579  0.36858133  1
  V  V54  1  0.00207421  0.50010413  -0.00187910  1
  V  V55  1  0.24853066  0.74564417  -0.00751049  1
  V  V56  1  0.37256565  0.62125239  0.25203305  1
  V  V57  1  0.51177380  0.75142487  0.24912063  1
  V  V58  1  0.74542883  -0.00373851  0.25348858  1
  V  V59  1  0.87871568  0.25260994  0.62633389  1
  V  V60  1  0.64156084  0.25752195  0.36911979  1
  V  V61  1  -0.00040373  0.26475024  0.75632473  1
  V  V62  1  0.22618754  0.24377715  0.49096368  1
  V  V63  1  0.12145030  0.49828970  0.14099328  1
  V  V64  1  0.12217517  0.01215035  0.62101751  1
  V  V65  1  0.49884570  0.24839996  0.75137900  1
  V  V66  1  0.38763888  -0.00422143  0.88020877  1
  V  V67  1  0.36476770  0.51041360  0.88749023  1
  V  V68  1  0.24653208  0.50407235  0.74073684  1
  V  V69  1  0.50096711  0.24681545  0.25220932  1
  V  V70  1  0.74473339  0.75643668  0.49387307  1
  V  V71  1  0.37227421  0.63010225  0.74219578  1
  V  V72  1  0.88426301  0.12551650  0.74497056  1
  V  V73  1  0.87651501  0.39241844  0.50355397  1
  V  V74  1  0.37393095  0.24501249  0.13363238  1
  V  V75  1  0.87466413  0.24387067  0.12223273  1
  V  V76  1  0.11936435  0.86947092  0.75812297  1
  V  V77  1  0.24557597  0.37625586  0.14891781  1
  V  V78  1  0.00192999  0.01469035  0.49794568  1
  Zn  Zn79  1  0.37144309  0.74719824  0.12629793  1
  Zn  Zn80  1  0.87437112  0.48585736  0.34552673  1
  Zn  Zn81  1  0.37958766  0.38103080  0.01079395  1
  Zn  Zn82  1  0.61865496  -0.00705533  0.13261663  1
  Zn  Zn83  1  0.61434973  0.61586707  0.51425081  1
  Zn  Zn84  1  0.75781932  0.86490981  0.62035728  1
  Zn  Zn85  1  0.94382457  0.69982022  0.67281751  1
  Zn  Zn86  1  0.75545036  0.25109674  0.49720154  1
  Zn  Zn87  1  0.62863643  0.39468399  0.24485718  1
  Zn  Zn88  1  0.12433801  0.12349540  -0.00099455  1
  Zn  Zn89  1  0.36028632  0.38529658  0.52010971  1
  Zn  Zn90  1  0.74932920  0.24733937  0.00105483  1
  Zn  Zn91  1  0.01149722  0.38077982  0.35550148  1
  Zn  Zn92  1  0.62996195  -0.00388208  0.61658232  1
  Zn  Zn93  1  0.11842000  0.74293639  0.86597783  1
  Zn  Zn94  1  0.18200365  0.18312036  0.18319097  1
  Zn  Zn95  1  0.18620881  0.18955437  0.69277898  1
  Zn  Zn96  1  0.18133388  0.68456987  0.18587550  1
  Zn  Zn97  1  0.19662765  0.68814666  0.68552294  1
  Zn  Zn98  1  0.69007644  0.18163056  0.18921899  1
  Zn  Zn99  1  0.69104931  0.19051568  0.68773827  1
  Zn  Zn100  1  0.68860647  0.67879283  0.18221841  1
  Zn  Zn101  1  0.69084105  0.68914830  0.68455808  1
  Zn  Zn102  1  0.30508104  0.19051754  0.32230784  1
  Zn  Zn103  1  0.31074699  0.31593004  0.81465711  1
  Zn  Zn104  1  0.31388972  0.80833985  0.31263234  1
  Zn  Zn105  1  0.31305829  0.81349965  0.81608569  1
  Zn  Zn106  1  0.83348263  0.32217075  0.30058253  1
  Zn  Zn107  1  0.81119560  0.31388352  0.81292786  1
  Zn  Zn108  1  0.80911892  0.80337381  0.30992663  1
  Zn  Zn109  1  0.80837864  0.81043276  0.81020855  1
  Zn  Zn110  1  0.19398644  0.42372535  0.42896503  1
  Zn  Zn111  1  0.18902165  0.43655125  0.93767206  1
  Zn  Zn112  1  0.18585138  0.94398710  0.44175271  1
  Zn  Zn113  1  0.19097689  0.93309695  0.94021644  1
  Zn  Zn114  1  0.69612895  0.44633882  0.43363497  1
  Zn  Zn115  1  0.69030758  0.43281514  0.94061471  1
  Zn  Zn116  1  0.68807768  0.93852218  0.43319387  1
  Zn  Zn117  1  0.69039676  0.93115784  0.93643627  1
  Zn  Zn118  1  0.31080696  0.06127694  0.06592195  1
  Zn  Zn119  1  0.31482179  0.06776535  0.56091632  1
  Zn  Zn120  1  0.30705290  0.56084657  0.07172534  1
  Zn  Zn121  1  0.43502592  0.56748319  0.56142310  1
  Zn  Zn122  1  0.81085790  0.05518739  0.06219039  1
  Zn  Zn123  1  0.81712520  0.06155350  0.55833759  1
  Zn  Zn124  1  0.81109679  0.56378734  0.06014971  1
  Zn  Zn125  1  0.82919022  0.61552756  0.54748180  1
  Zn  Zn126  1  0.43461609  0.43102164  0.19731090  1
  Zn  Zn127  1  0.42860883  0.43444347  0.70324137  1
  Zn  Zn128  1  0.43014799  0.93301542  0.18549657  1
  Zn  Zn129  1  0.44016069  0.93684785  0.68404278  1
  Zn  Zn130  1  0.93361724  0.43961643  0.17833038  1
  Zn  Zn131  1  0.91173842  0.50182326  0.66411630  1
  Zn  Zn132  1  0.93575868  0.93283413  0.19052322  1
  Zn  Zn133  1  0.94312175  0.93505217  0.68618563  1
  Zn  Zn134  1  0.06020725  0.05892968  0.31296545  1
  Zn  Zn135  1  0.06642700  0.06539059  0.81071883  1
  Zn  Zn136  1  0.04521252  0.57145062  0.31850369  1
  Zn  Zn137  1  0.06032982  0.56442174  0.81531701  1
  Zn  Zn138  1  0.43976033  0.06440868  0.31389083  1
  Zn  Zn139  1  0.56470514  0.05934398  0.81229950  1
  Zn  Zn140  1  0.56188171  0.55654228  0.30777819  1
  Zn  Zn141  1  0.56019276  0.56261965  0.69816037  1
  Zn  Zn142  1  0.44740678  0.19916460  0.44565324  1
  Zn  Zn143  1  0.43526526  0.18571166  0.94443465  1
  Zn  Zn144  1  0.43692165  0.69283657  0.43293346  1
  Zn  Zn145  1  0.43945949  0.68785241  0.93715226  1
  Zn  Zn146  1  0.94364016  0.19734830  0.43962290  1
  Zn  Zn147  1  0.93969474  0.18179266  0.93703096  1
  Zn  Zn148  1  0.96046958  0.73247186  0.47737450  1
  Zn  Zn149  1  0.94018816  0.68030315  0.93587136  1
  Zn  Zn150  1  0.06291646  0.31462554  0.06713974  1
  Zn  Zn151  1  0.05626109  0.31899971  0.56489274  1
  Zn  Zn152  1  0.06461966  0.81110608  0.06279546  1
  Zn  Zn153  1  0.07823848  0.81966712  0.56958024  1
  Zn  Zn154  1  0.56257242  0.30768443  0.06231080  1
  Zn  Zn155  1  0.56463492  0.43266226  0.56306936  1
  Zn  Zn156  1  0.56080005  0.80937518  0.07085175  1
  Zn  Zn157  1  0.56679261  0.80482230  0.55838159  1
  O  O158  1  0.11304805  0.11404104  0.12061600  1
  O  O159  1  0.12139947  0.10894826  0.64574638  1
  O  O160  1  0.13482439  0.60373389  0.11360614  1
  O  O161  1  0.13579993  0.61960712  0.61420113  1
  O  O162  1  0.61867289  0.12093141  0.11735603  1
  O  O163  1  0.61678598  0.12690222  0.62359599  1
  O  O164  1  0.61338505  0.62872896  0.11057038  1
  O  O165  1  0.62702682  0.61741535  0.62968367  1
  O  O166  1  0.39147686  0.38153196  0.37376009  1
  O  O167  1  0.38539488  0.38291079  0.87503738  1
  O  O168  1  0.38000197  0.87527115  0.38531232  1
  O  O169  1  0.36980487  0.88124300  0.89052883  1
  O  O170  1  0.85228781  0.37581837  0.40549788  1
  O  O171  1  0.86464302  0.38390177  0.88710884  1
  O  O172  1  0.88017570  0.87611911  0.37471848  1
  O  O173  1  0.86666095  0.88438558  0.88138865  1
  O  O174  1  0.23937213  -0.00614952  0.35575409  1
  O  O175  1  0.25706123  0.00322496  0.86754575  1
  O  O176  1  0.25988100  0.50986554  0.37806608  1
  O  O177  1  0.26254423  0.49593036  0.87104302  1
  O  O178  1  0.76695084  -0.01040677  0.36426995  1
  O  O179  1  0.75911511  0.00475952  0.86563478  1
  O  O180  1  0.75962046  0.51583596  0.36666162  1
  O  O181  1  0.75272768  0.50565256  0.87262720  1
  O  O182  1  0.23919935  0.48490082  0.12748861  1
  O  O183  1  0.25390846  0.49755845  0.64587935  1
  O  O184  1  0.24208817  0.99398747  0.13381104  1
  O  O185  1  0.24456177  0.99830264  0.63354368  1
  O  O186  1  0.75352839  0.48331249  0.11739547  1
  O  O187  1  0.75660312  0.48724908  0.64533053  1
  O  O188  1  0.75531673  0.98766741  0.13709845  1
  O  O189  1  0.75347875  0.99416637  0.63421337  1
  O  O190  1  -0.07094518  0.38949576  0.27784968  1
  O  O191  1  0.01433837  0.36706688  0.75838061  1
  O  O192  1  -0.00196627  0.85925182  0.24809737  1
  O  O193  1  0.02102528  0.87748065  0.74849606  1
  O  O194  1  0.50741156  0.36075209  0.25396949  1
  O  O195  1  0.50499509  0.36684068  0.76587558  1
  O  O196  1  0.49394447  0.86568701  0.25653222  1
  O  O197  1  0.50398867  0.86440219  0.74966103  1
  O  O198  1  0.49993627  0.13733035  0.23986954  1
  O  O199  1  0.49809315  0.12870220  0.74565766  1
  O  O200  1  0.49455637  0.63432314  0.24052767  1
  O  O201  1  0.48600159  0.63683542  0.75228382  1
  O  O202  1  0.98371844  0.11234008  0.23553176  1
  O  O203  1  0.98828753  0.13270076  0.75351294  1
  O  O204  1  0.98610558  0.64494340  0.25282477  1
  O  O205  1  0.99975393  0.65914300  0.77731999  1
  O  O206  1  0.36732936  0.25339522  0.01241694  1
  O  O207  1  0.38292982  0.25544077  0.52288402  1
  O  O208  1  0.36353551  0.75764097  -0.00063469  1
  O  O209  1  0.36413566  0.76145043  0.49667690  1
  O  O210  1  0.87448120  0.25343273  0.00194662  1
  O  O211  1  0.87390883  0.25677150  0.51302933  1
  O  O212  1  0.88601694  0.75912921  0.00531689  1
  O  O213  1  0.84915748  0.72571092  0.49797291  1
  O  O214  1  0.12775766  0.24539888  0.51471904  1
  O  O215  1  0.13171745  0.24876755  0.99550426  1
  O  O216  1  0.13881987  0.73411742  0.50253276  1
  O  O217  1  0.13203477  0.74158758  0.99855480  1
  O  O218  1  0.63037676  0.23922822  0.48124258  1
  O  O219  1  0.62652595  0.23717841  0.98828616  1
  O  O220  1  0.63689183  0.74041397  0.49767449  1
  O  O221  1  0.62031186  0.75638662  0.98803840  1
  O  O222  1  0.49301101  0.24436381  0.13214902  1
  O  O223  1  0.49352302  0.24207177  0.64420132  1
  O  O224  1  0.49277853  0.74526616  0.13786993  1
  O  O225  1  0.49695313  0.75360732  0.63914793  1
  O  O226  1  0.98849240  0.23685712  0.11615066  1
  O  O227  1  0.98574490  0.25909089  0.63938023  1
  O  O228  1  0.99044263  0.74867049  0.12494757  1
  O  O229  1  0.99409568  0.75146385  0.58511148  1
  O  O230  1  0.00572975  0.25955990  0.37006121  1
  O  O231  1  0.01079653  0.24229342  0.86872414  1
  O  O232  1  -0.00132342  0.75128174  0.37202664  1
  O  O233  1  0.00031649  0.71922575  0.84211334  1
  O  O234  1  0.51162548  0.26128252  0.36829948  1
  O  O235  1  0.50538019  0.24735389  0.86752963  1
  O  O236  1  0.49639868  0.76316852  0.36036142  1
  O  O237  1  0.51231163  0.74806694  0.86946131  1
  O  O238  1  0.25832892  0.14747883  0.50627363  1
  O  O239  1  0.24902672  0.13696961  0.99824884  1
  O  O240  1  0.24161016  0.62905264  0.48646947  1
  O  O241  1  0.24647620  0.63949671  1.00861530  1
  O  O242  1  0.73624698  0.12646676  0.50547597  1
  O  O243  1  0.74410712  0.12100402  0.98804028  1
  O  O244  1  0.73796631  0.62610296  0.48015114  1
  O  O245  1  0.73059706  0.61947749  0.99597489  1
  O  O246  1  0.25309699  0.36204074  0.00255256  1
  O  O247  1  0.25347124  0.35041740  0.49855300  1
  O  O248  1  0.25303265  0.86258663  0.01096225  1
  O  O249  1  0.25569769  0.87117562  0.50221285  1
  O  O250  1  0.75935274  0.36788308  0.00742711  1
  O  O251  1  0.75320479  0.37548140  0.51584901  1
  O  O252  1  0.76339576  0.88259726  0.01328667  1
  O  O253  1  0.74626368  0.86343721  0.49810660  1
  O  O254  1  0.10933013  0.50586286  0.23841332  1
  O  O255  1  0.13298109  0.49223792  0.75990497  1
  O  O256  1  0.13317530  1.00440103  0.23845678  1
  O  O257  1  0.13541619  0.99077659  0.74783672  1
  O  O258  1  0.62205955  0.50494501  0.23168205  1
  O  O259  1  0.62955680  0.48702026  0.76023683  1
  O  O260  1  0.64704344  1.00133967  0.25316552  1
  O  O261  1  0.63322020  0.99298453  0.74914614  1
  O  O262  1  0.36270512  0.00242262  0.24971812  1
  O  O263  1  0.37000996  0.00140856  0.75775975  1
  O  O264  1  0.38102171  0.51237971  0.26153903  1
  O  O265  1  0.36420961  0.51095697  0.76292616  1
  O  O266  1  0.87501983  0.00404758  0.26524000  1
  O  O267  1  0.87170084  0.00563816  0.75382290  1
  O  O268  1  0.87804530  0.53077838  0.22895836  1
  O  O269  1  0.86105162  0.49136237  0.76671689  1
  O  O270  1  0.12069561  0.35719439  0.37547488  1
  O  O271  1  0.12902411  0.36187778  0.87052757  1
  O  O272  1  0.08755339  0.88697116  0.41672501  1
  O  O273  1  0.13131498  0.87141162  0.86262144  1
  O  O274  1  0.62244078  0.36637514  0.37009415  1
  O  O275  1  0.61469724  0.36607664  0.87331306  1
  O  O276  1  0.61086559  0.87648916  0.37128613  1
  O  O277  1  0.63115238  0.86255225  0.86506921  1
  O  O278  1  0.38475163  0.13364140  0.11811518  1
  O  O279  1  0.38912452  0.13229768  0.63248964  1
  O  O280  1  0.38449073  0.62384774  0.13197054  1
  O  O281  1  0.37092063  0.62432358  0.64392912  1
  O  O282  1  0.88123662  0.12618852  0.12261933  1
  O  O283  1  0.86462359  0.13702134  0.63694655  1
  O  O284  1  0.86400729  0.64527659  0.12140387  1
  O  O285  1  0.88122895  0.60949481  0.64380874  1
  O  O286  1  0.25342016  0.25774839  0.12247310  1
  O  O287  1  0.26468057  0.24389745  0.62966467  1
  O  O288  1  0.24830353  0.75642527  0.11906474  1
  O  O289  1  0.24913321  0.76341883  0.61265236  1
  O  O290  1  0.76323682  0.24555116  0.12050077  1
  O  O291  1  0.76113706  0.26361310  0.63239027  1
  O  O292  1  0.75713777  0.76394586  0.12941266  1
  O  O293  1  0.74686125  0.74854287  0.60782711  1
  O  O294  1  0.22456891  0.24580101  0.38324708  1
  O  O295  1  0.24525412  0.24537236  0.88305795  1
  O  O296  1  0.25403372  0.73501757  0.38196994  1
  O  O297  1  0.24597541  0.75318060  0.89054698  1
  O  O298  1  0.74268998  0.25855102  0.36916491  1
  O  O299  1  0.74011101  0.23796971  0.87138250  1
  O  O300  1  0.74773553  0.74083927  0.38164108  1
  O  O301  1  0.73755092  0.73879823  0.86666619  1
  O  O302  1  -0.00074968  0.10953537  0.00798956  1
  O  O303  1  -0.00677899  0.11426586  0.50231970  1
  O  O304  1  0.00977781  0.61100452  0.00126707  1
  O  O305  1  0.02243330  0.61427147  0.49342857  1
  O  O306  1  0.50960901  0.12864165  0.01205536  1
  O  O307  1  0.51480953  0.12079698  0.50557409  1
  O  O308  1  0.50590301  0.62865256  0.01380114  1
  O  O309  1  0.50012254  0.63333294  0.50007617  1
  O  O310  1  0.49959749  0.36906993  0.48656013  1
  O  O311  1  0.49791613  0.36723317  0.98661483  1
  O  O312  1  0.49668689  0.87962232  0.48857411  1
  O  O313  1  0.48103714  0.86981964  1.01029651  1
  O  O314  1  0.98632819  0.38348736  0.49731891  1
  O  O315  1  0.98929492  0.38122042  1.00267901  1
  O  O316  1  1.03530855  0.89338214  0.48073367  1
  O  O317  1  0.99154245  0.88453719  1.00272062  1
  O  O318  1  0.49534129  0.48558499  0.36990217  1
  O  O319  1  0.48795388  0.48868409  0.87612376  1
  O  O320  1  0.49786362  0.98665571  0.37985947  1
  O  O321  1  0.48718094  1.00221542  0.87399231  1
  O  O322  1  0.99005938  0.49701388  0.38886689  1
  O  O323  1  0.98575544  0.50423071  0.88348673  1
  O  O324  1  0.98533571  1.00340922  0.38107961  1
  O  O325  1  0.99061263  1.00662477  0.88130076  1
  O  O326  1  0.00440684  0.00160429  0.11778618  1
  O  O327  1  0.01437777  -0.01058601  0.61399297  1
  O  O328  1  0.01491446  0.48869696  0.11298309  1
  O  O329  1  0.00682687  0.49384844  0.60291296  1
  O  O330  1  0.50095013  0.01121931  0.13724549  1
  O  O331  1  0.50386833  0.00933831  0.61508905  1
  O  O332  1  0.49367739  0.51092478  0.12843322  1
  O  O333  1  0.49285711  0.49346709  0.63177806  1
  O  O334  1  0.24907828  0.37183744  0.24370337  1
  O  O335  1  0.23865103  0.38592441  0.75633395  1
  O  O336  1  0.25805511  0.88199524  0.23901061  1
  O  O337  1  0.25398374  0.88391864  0.74273646  1
  O  O338  1  0.75189853  0.36916613  0.23131625  1
  O  O339  1  0.73937631  0.38071193  0.75147034  1
  O  O340  1  0.75991789  0.88289225  0.23750648  1
  O  O341  1  0.73720756  0.88434508  0.75086869  1
  O  O342  1  0.25141715  0.11528127  0.24670966  1
  O  O343  1  0.25674420  0.11518680  0.75704911  1
  O  O344  1  0.25714715  0.62942605  0.26123130  1
  O  O345  1  0.25883088  0.61737348  0.75409068  1
  O  O346  1  0.76721021  0.10734813  0.24252057  1
  O  O347  1  0.75506160  0.11580679  0.75804472  1
  O  O348  1  0.76240989  0.64356778  0.25896583  1
  O  O349  1  0.73733652  0.61415818  0.76668779  1
  O  O350  1  0.38410163  0.13647980  0.37898951  1
  O  O351  1  0.37006279  0.11655349  0.87398143  1
  O  O352  1  0.36966193  0.61657021  0.36959621  1
  O  O353  1  0.37861544  0.61280758  0.87302572  1
  O  O354  1  0.87721041  0.13128431  0.36340139  1
  O  O355  1  0.86746888  0.11577273  0.86708793  1
  O  O356  1  0.86848571  0.62387756  0.35872179  1
  O  O357  1  0.85717338  0.61252470  0.89055074  1
  O  O358  1  0.13556218  0.38287648  0.12642462  1
  O  O359  1  0.12415123  0.37406463  0.64308427  1
  O  O360  1  0.13278087  0.88399606  0.12035243  1
  O  O361  1  0.14178443  0.88854292  0.63643278  1
  O  O362  1  0.64216728  0.36192284  0.12133587  1
  O  O363  1  0.63130298  0.37085757  0.64144732  1
  O  O364  1  0.64070488  0.87697227  0.11927881  1
  O  O365  1  0.62580863  0.87644254  0.63709693  1
  O  O366  1  0.11744379  0.25164182  0.24673794  1
  O  O367  1  0.12104817  0.26058314  0.75752730  1
  O  O368  1  0.11099904  0.74406975  0.25056957  1
  O  O369  1  0.13945431  0.76545537  0.74795136  1
  O  O370  1  0.62120291  0.24410666  0.26100357  1
  O  O371  1  0.61860882  0.25515751  0.76082847  1
  O  O372  1  0.61002299  0.74602724  0.24246065  1
  O  O373  1  0.61080299  0.75477352  0.75592022  1
  O  O374  1  0.38061795  0.24808416  0.23955200  1
  O  O375  1  0.38016097  0.24337406  0.74943807  1
  O  O376  1  0.38134802  0.73578339  0.24951399  1
  O  O377  1  0.38341289  0.74035568  0.76106871  1
  O  O378  1  0.87046500  0.22953367  0.23728079  1
  O  O379  1  0.88163569  0.24626666  0.74996803  1
  O  O380  1  0.88367030  0.74825192  0.23562338  1
  O  O381  1  0.87831164  0.78923061  0.71987651  1
  O  O382  1  0.37711597  0.49552972  0.48801544  1
  O  O383  1  0.36662610  0.49887736  0.99139564  1
  O  O384  1  0.38835272  0.99583237  0.50255980  1
  O  O385  1  0.36635351  0.98650365  0.99480041  1
  O  O386  1  0.87920977  0.49488970  0.50789286  1
  O  O387  1  0.88263228  0.49201942  0.99696161  1
  O  O388  1  0.88282535  0.99626333  0.48845856  1
  O  O389  1  0.88252641  0.99149838  0.99100505  1
  O  O390  1  0.11852860  -0.00094462  0.00679359  1
  O  O391  1  0.12719031  0.01377518  0.51705960  1
  O  O392  1  0.11795698  0.50159492  -0.00028211  1
  O  O393  1  0.12229692  0.50397309  0.49238969  1
  O  O394  1  0.62933605  0.00785401  -0.00012512  1
  O  O395  1  0.61789243  0.01110806  0.49599387  1
  O  O396  1  0.61694286  0.50715243  -0.00660313  1
  O  O397  1  0.62082160  0.50015169  0.49504245  1
  O  O398  1  0.36204699  0.36845560  0.12832761  1
  O  O399  1  0.37639116  0.35881544  0.63663884  1
  O  O400  1  0.36255742  0.87309285  0.11328787  1
  O  O401  1  0.36612692  0.88446529  0.61138138  1
  O  O402  1  0.86679153  0.36302476  0.11357234  1
  O  O403  1  0.86666163  0.37262047  0.61838648  1
  O  O404  1  0.86969546  0.86455936  0.11628590  1
  O  O405  1  0.87058305  0.85071625  0.65883519  1
  O  O406  1  0.11092081  0.14390405  0.36674692  1
  O  O407  1  0.13386629  0.13529343  0.87526854  1
  O  O408  1  0.13873274  0.61559810  0.37340609  1
  O  O409  1  0.12976318  0.62300106  0.89113832  1
  O  O410  1  0.62926211  0.13355797  0.37995845  1
  O  O411  1  0.63066692  0.12743315  0.88003770  1
  O  O412  1  0.63556433  0.62396004  0.36304877  1
  O  O413  1  0.62742820  0.63762927  0.89295175  1
