# generated using pymatgen
data_V79Zn79O256
_symmetry_space_group_name_H-M   'P 1'
_cell_length_a   16.89032723
_cell_length_b   16.85791232
_cell_length_c   16.87569979
_cell_angle_alpha   89.89998350
_cell_angle_beta   89.95054102
_cell_angle_gamma   90.09800220
_symmetry_Int_Tables_number   1
_chemical_formula_structural   V79Zn79O256
_chemical_formula_sum   'V79 Zn79 O256'
_cell_volume   4805.09728965
_cell_formula_units_Z   1
loop_
 _symmetry_equiv_pos_site_id
 _symmetry_equiv_pos_as_xyz
  1  'x, y, z'
loop_
 _atom_site_type_symbol
 _atom_site_label
 _atom_site_symmetry_multiplicity
 _atom_site_fract_x
 _atom_site_fract_y
 _atom_site_fract_z
 _atom_site_occupancy
  V  V0  1  0.63250735  0.87359141  0.73837087  1
  V  V1  1  0.01723384  0.50187145  0.00760939  1
  V  V2  1  0.13752330  0.50545206  0.13674347  1
  V  V3  1  0.86411238  0.25681647  0.62497126  1
  V  V4  1  0.87463955  0.60321729  0.25077407  1
  V  V5  1  0.12823920  0.12416523  0.50116062  1
  V  V6  1  0.75526754  0.37743738  0.12846107  1
  V  V7  1  0.62840257  0.37386134  0.74911670  1
  V  V8  1  0.62760441  0.00337298  0.11675254  1
  V  V9  1  0.74486976  -0.00176147  0.25263757  1
  V  V10  1  0.61767837  0.01984785  0.62321140  1
  V  V11  1  0.87200543  0.86150310  -0.00176104  1
  V  V12  1  0.86942862  0.00196882  0.37541447  1
  V  V13  1  0.74997202  0.59708931  0.37196658  1
  V  V14  1  0.37252727  0.24492381  0.12410388  1
  V  V15  1  0.36951831  0.26255915  0.63362492  1
  V  V16  1  0.00660568  0.86543742  0.36555463  1
  V  V17  1  0.49667243  0.87896311  0.87009984  1
  V  V18  1  0.37565953  0.11774145  0.75073153  1
  V  V19  1  0.12357608  0.12086629  0.00622280  1
  V  V20  1  0.49625985  0.62609993  0.62492865  1
  V  V21  1  0.87503805  0.74631016  0.14044837  1
  V  V22  1  0.62556842  0.62381959  -0.00361188  1
  V  V23  1  0.88304414  0.63312236  0.74368657  1
  V  V24  1  0.36928029  0.37130842  0.00139185  1
  V  V25  1  0.74857933  0.12322846  0.87938058  1
  V  V26  1  0.23934326  0.00016439  0.26076997  1
  V  V27  1  0.24932057  0.12135770  0.87692776  1
  V  V28  1  0.87673366  0.25489360  0.12374739  1
  V  V29  1  0.24526163  0.26692967  0.51234835  1
  V  V30  1  0.11744787  0.25781937  0.87772056  1
  V  V31  1  0.49996306  0.37204938  0.87435400  1
  V  V32  1  0.74178058  0.86626007  0.11932699  1
  V  V33  1  0.13335671  0.50419610  0.61742319  1
  V  V34  1  0.63028885  0.49618456  0.12867496  1
  V  V35  1  0.62633258  0.49203266  0.62587803  1
  V  V36  1  0.24778775  0.62855864  0.35924077  1
  V  V37  1  0.49763533  0.00267922  -0.00597997  1
  V  V38  1  0.62590677  0.62426258  0.49383964  1
  V  V39  1  0.48920036  0.89061238  0.40997870  1
  V  V40  1  0.37428213  0.86609950  0.00122182  1
  V  V41  1  0.87532811  0.00489375  0.87451976  1
  V  V42  1  0.66360499  0.19083450  0.44017672  1
  V  V43  1  0.37365259  0.50073331  0.87624877  1
  V  V44  1  0.00231448  0.37906803  0.36943184  1
  V  V45  1  0.75136625  0.75329836  0.50134777  1
  V  V46  1  0.24637205  0.63040161  0.89019489  1
  V  V47  1  -0.00658238  0.00239519  0.50089640  1
  V  V48  1  0.75354746  0.49701683  0.74756259  1
  V  V49  1  0.49374610  0.36939933  0.37110474  1
  V  V50  1  0.25860942  0.75349346  0.48740158  1
  V  V51  1  -0.00301830  0.25613197  0.75240921  1
  V  V52  1  0.13061128  0.25129027  0.37123524  1
  V  V53  1  0.49412007  0.49636397  0.50012401  1
  V  V54  1  0.37090505  0.50897887  0.35485149  1
  V  V55  1  0.24018588  0.87957468  0.12646909  1
  V  V56  1  0.75449971  0.00090423  0.74507858  1
  V  V57  1  0.75437918  0.25289153  0.00326382  1
  V  V58  1  0.37207815  0.62930076  0.74873694  1
  V  V59  1  0.12845313  0.37837226  0.74577888  1
  V  V60  1  0.62422194  0.24376440  0.88260423  1
  V  V61  1  -0.00092339  0.50321350  0.50001370  1
  V  V62  1  0.00285653  0.87306435  0.87110069  1
  V  V63  1  0.49922744  0.75241732  0.74545270  1
  V  V64  1  0.38020622  0.11342968  0.26924491  1
  V  V65  1  0.63159523  0.75017701  0.87609530  1
  V  V66  1  0.86958677  0.37570974  0.50099559  1
  V  V67  1  0.50385510  0.25085112  0.25006579  1
  V  V68  1  -0.00148828  0.12339866  0.12895340  1
  V  V69  1  0.88498461  0.48554213  0.88207668  1
  V  V70  1  0.25294812  0.86365165  0.62506813  1
  V  V71  1  0.12629324  0.75371057  0.88530625  1
  V  V72  1  0.87248201  0.86826241  0.51011493  1
  V  V73  1  -0.00821540  0.12981948  0.63115783  1
  V  V74  1  0.23926169  -0.00491859  0.74995731  1
  V  V75  1  0.50737404  0.12462488  0.11853093  1
  V  V76  1  0.00061867  -0.00532945  0.00754366  1
  V  V77  1  0.75437850  0.62661231  0.87629650  1
  V  V78  1  0.49852134  0.63031744  0.13880851  1
  Zn  Zn79  1  0.24287646  0.24827321  0.00458046  1
  Zn  Zn80  1  -0.00309153  0.63799456  0.61358400  1
  Zn  Zn81  1  0.37864552  0.74705647  0.13542008  1
  Zn  Zn82  1  0.50005077  0.49920343  0.00189159  1
  Zn  Zn83  1  0.01069085  0.76288746  0.73510473  1
  Zn  Zn84  1  0.50715126  0.24038512  0.73917074  1
  Zn  Zn85  1  0.11572769  -0.00431933  0.63393775  1
  Zn  Zn86  1  0.12064144  0.63632986  0.48769313  1
  Zn  Zn87  1  0.00357913  0.25287066  0.24838647  1
  Zn  Zn88  1  0.25204538  0.49909443  0.74310545  1
  Zn  Zn89  1  0.87295630  0.12773579  0.25764784  1
  Zn  Zn90  1  0.57050528  0.77787258  0.31292795  1
  Zn  Zn91  1  0.23966338  0.36883486  0.14885786  1
  Zn  Zn92  1  0.36238972  0.38435181  0.50505388  1
  Zn  Zn93  1  0.63845796  0.37662384  0.25741521  1
  Zn  Zn94  1  0.19307133  0.17678708  0.19208145  1
  Zn  Zn95  1  0.18211971  0.18569272  0.68963673  1
  Zn  Zn96  1  0.19334466  0.69311289  0.18239400  1
  Zn  Zn97  1  0.17948145  0.68761619  0.69449910  1
  Zn  Zn98  1  0.69308320  0.18862486  0.26978752  1
  Zn  Zn99  1  0.69383120  0.18643331  0.69489017  1
  Zn  Zn100  1  0.68911688  0.67528786  0.18648181  1
  Zn  Zn101  1  0.69033632  0.68402674  0.68426898  1
  Zn  Zn102  1  0.32047301  0.30015231  0.32192170  1
  Zn  Zn103  1  0.30458084  0.31020928  0.81658984  1
  Zn  Zn104  1  0.32141606  0.83012428  0.31371534  1
  Zn  Zn105  1  0.31174963  0.81343334  0.81173641  1
  Zn  Zn106  1  0.81496272  0.31169528  0.31758320  1
  Zn  Zn107  1  0.81186757  0.30905453  0.81190496  1
  Zn  Zn108  1  0.75936606  0.78838610  0.29833156  1
  Zn  Zn109  1  0.81563762  0.81467766  0.80919139  1
  Zn  Zn110  1  0.18929239  0.43532071  0.31447365  1
  Zn  Zn111  1  0.18770526  0.43847627  0.93702164  1
  Zn  Zn112  1  0.18881516  0.93420021  0.44212830  1
  Zn  Zn113  1  0.18822223  0.93753871  0.94074136  1
  Zn  Zn114  1  0.66850664  0.39724681  0.45462474  1
  Zn  Zn115  1  0.69309212  0.43772798  0.93947701  1
  Zn  Zn116  1  0.67373844  0.93536925  0.43611621  1
  Zn  Zn117  1  0.68570546  0.93587990  0.93642559  1
  Zn  Zn118  1  0.31589846  0.05695557  0.06364373  1
  Zn  Zn119  1  0.30886183  0.07296858  0.56929559  1
  Zn  Zn120  1  0.31336180  0.55999190  0.07130672  1
  Zn  Zn121  1  0.30952212  0.57465941  0.55468263  1
  Zn  Zn122  1  0.81298668  0.06391202  0.06182457  1
  Zn  Zn123  1  0.80301214  0.07417840  0.55418532  1
  Zn  Zn124  1  0.81531960  0.56396468  0.06032811  1
  Zn  Zn125  1  0.81226623  0.55936930  0.56264852  1
  Zn  Zn126  1  0.43808418  0.43871173  0.18069243  1
  Zn  Zn127  1  0.43829426  0.43687288  0.69011530  1
  Zn  Zn128  1  0.43979669  0.93572876  0.18754774  1
  Zn  Zn129  1  0.43073972  0.95137348  0.58470941  1
  Zn  Zn130  1  0.94898797  0.43617019  0.17609641  1
  Zn  Zn131  1  0.94167305  0.44033271  0.68743320  1
  Zn  Zn132  1  0.93142636  0.93184271  0.18933759  1
  Zn  Zn133  1  0.93343808  0.93773304  0.68721568  1
  Zn  Zn134  1  0.06099885  0.06100031  0.31678350  1
  Zn  Zn135  1  0.05923421  0.06781001  0.81727810  1
  Zn  Zn136  1  0.05974662  0.57272020  0.30617726  1
  Zn  Zn137  1  0.06434120  0.56238450  0.81455509  1
  Zn  Zn138  1  0.56466948  0.05189368  0.31140228  1
  Zn  Zn139  1  0.56401349  0.06057556  0.80537868  1
  Zn  Zn140  1  0.56292262  0.55534876  0.31287340  1
  Zn  Zn141  1  0.56170957  0.56149583  0.81254603  1
  Zn  Zn142  1  0.47409303  0.09102749  0.46019647  1
  Zn  Zn143  1  0.43658384  0.18598343  0.93519598  1
  Zn  Zn144  1  0.43071503  0.69325446  0.43752432  1
  Zn  Zn145  1  0.44156209  0.68856634  0.93664442  1
  Zn  Zn146  1  0.93656145  0.19077341  0.43950949  1
  Zn  Zn147  1  0.93749668  0.18787591  0.94079552  1
  Zn  Zn148  1  0.92708789  0.68617041  0.42264005  1
  Zn  Zn149  1  0.94254076  0.68244656  0.93816431  1
  Zn  Zn150  1  0.05918521  0.32333253  0.06034391  1
  Zn  Zn151  1  0.06040272  0.31815775  0.56400216  1
  Zn  Zn152  1  0.08081462  0.77320244  0.09093214  1
  Zn  Zn153  1  0.07386625  0.81353713  0.56037532  1
  Zn  Zn154  1  0.56462089  0.31179030  0.06328173  1
  Zn  Zn155  1  0.54183683  0.26677284  0.53498244  1
  Zn  Zn156  1  0.56255765  0.81161537  0.05857609  1
  Zn  Zn157  1  0.56697326  0.80797151  0.55802950  1
  O  O158  1  0.11500555  0.13276509  0.11476458  1
  O  O159  1  0.11027270  0.12651987  0.61521095  1
  O  O160  1  0.14585888  0.60582886  0.12138678  1
  O  O161  1  0.11878827  0.61258364  0.62753435  1
  O  O162  1  0.61145516  0.11616291  0.12607178  1
  O  O163  1  0.62234940  0.12111181  0.63724308  1
  O  O164  1  0.62212434  0.61617288  0.11426946  1
  O  O165  1  0.61594575  0.61192345  0.61849302  1
  O  O166  1  0.37899244  0.39154450  0.37999189  1
  O  O167  1  0.38067110  0.37980111  0.87856084  1
  O  O168  1  0.39138704  0.88768404  0.38363469  1
  O  O169  1  0.38852483  0.86940463  0.88211845  1
  O  O170  1  0.89066022  0.36659940  0.38945257  1
  O  O171  1  0.87261670  0.38674119  0.86894847  1
  O  O172  1  0.88554857  0.89171471  0.39096201  1
  O  O173  1  0.88054665  0.88118744  0.88199483  1
  O  O174  1  0.24969032  -0.00994935  0.36110997  1
  O  O175  1  0.24302083  0.01066792  0.86585950  1
  O  O176  1  0.26152998  0.51418250  0.36791066  1
  O  O177  1  0.25995214  0.51163565  0.87342926  1
  O  O178  1  0.75057937  -0.01249343  0.35854398  1
  O  O179  1  0.75526852  0.00553336  0.87284447  1
  O  O180  1  0.74097617  0.49976195  0.37913914  1
  O  O181  1  0.75588032  0.50699718  0.86513767  1
  O  O182  1  0.24426589  0.48817895  0.12402713  1
  O  O183  1  0.23789887  0.50845453  0.62199405  1
  O  O184  1  0.26222056  0.98826444  0.13717918  1
  O  O185  1  0.24391526  1.00438300  0.64194087  1
  O  O186  1  0.74294668  0.48815572  0.11351559  1
  O  O187  1  0.73922314  0.50429877  0.63680415  1
  O  O188  1  0.74371895  0.99227056  0.12426145  1
  O  O189  1  0.75138324  1.01550285  0.64261699  1
  O  O190  1  -0.00492100  0.37556847  0.26628584  1
  O  O191  1  0.01126468  0.36554805  0.74688266  1
  O  O192  1  -0.00204925  0.88496960  0.26628379  1
  O  O193  1  -0.00539938  0.87887433  0.76597389  1
  O  O194  1  0.48826903  0.36750848  0.25768910  1
  O  O195  1  0.50889458  0.37310140  0.76098482  1
  O  O196  1  0.47561027  0.83971658  0.24621649  1
  O  O197  1  0.51275307  0.86363975  0.75666360  1
  O  O198  1  0.49396245  0.12973476  0.24060839  1
  O  O199  1  0.48077804  0.12713492  0.76199551  1
  O  O200  1  0.51143770  0.62863937  0.23866045  1
  O  O201  1  0.49519884  0.63107197  0.74503764  1
  O  O202  1  0.99897900  0.12437617  0.23855243  1
  O  O203  1  1.00344277  0.13626960  0.73989245  1
  O  O204  1  0.97255531  0.62693356  0.26109381  1
  O  O205  1  0.98618539  0.62317883  0.75295323  1
  O  O206  1  0.37361296  0.25415848  0.00762177  1
  O  O207  1  0.35386096  0.25332692  0.51804414  1
  O  O208  1  0.38081219  0.76292991  -0.00036469  1
  O  O209  1  0.35553153  0.73668126  0.51565599  1
  O  O210  1  0.86677206  0.24649722  0.00908967  1
  O  O211  1  0.88039487  0.26409504  0.51198092  1
  O  O212  1  0.87231746  0.75827015  -0.00144461  1
  O  O213  1  0.86911298  0.76154737  0.49870453  1
  O  O214  1  0.12818497  0.24494663  0.49987233  1
  O  O215  1  0.11990509  0.24226088  0.99368248  1
  O  O216  1  0.14885822  0.74733537  0.50382614  1
  O  O217  1  0.11699523  0.74227661  0.98584608  1
  O  O218  1  0.64408518  0.28726871  0.48875179  1
  O  O219  1  0.63338743  0.25275066  0.98912197  1
  O  O220  1  0.63634487  0.73457186  0.50244823  1
  O  O221  1  0.62254941  0.74140392  0.98378112  1
  O  O222  1  0.49246557  0.24381206  0.12820554  1
  O  O223  1  0.47608571  0.25377534  0.62542089  1
  O  O224  1  0.50711297  0.73243590  0.11811813  1
  O  O225  1  0.50973974  0.73640001  0.63396701  1
  O  O226  1  0.99352134  0.24424111  0.12475338  1
  O  O227  1  0.99554752  0.24672464  0.63327716  1
  O  O228  1  0.97156010  0.74792763  0.11902688  1
  O  O229  1  1.00470559  0.75072371  0.62322407  1
  O  O230  1  0.01032000  0.26051629  0.37780854  1
  O  O231  1  0.00631300  0.24055096  0.86479888  1
  O  O232  1  -0.00664649  0.76586490  0.37974937  1
  O  O233  1  0.00707305  0.75859681  0.87608012  1
  O  O234  1  0.48968947  0.26735829  0.36642160  1
  O  O235  1  0.50777513  0.25717665  0.87381608  1
  O  O236  1  0.49689194  0.77287099  0.39740121  1
  O  O237  1  0.51140265  0.75481382  0.86416362  1
  O  O238  1  0.22981211  0.13160035  0.50740287  1
  O  O239  1  0.24103262  0.12076737  0.99591027  1
  O  O240  1  0.24566671  0.63511567  0.48315037  1
  O  O241  1  0.26287031  0.62594786  0.98793162  1
  O  O242  1  0.73242098  0.14100501  0.49438328  1
  O  O243  1  0.75046465  0.13409655  0.98949422  1
  O  O244  1  0.74295458  0.61796072  0.49135867  1
  O  O245  1  0.73941260  0.62046870  0.98616601  1
  O  O246  1  0.26411458  0.36966095  -0.00677773  1
  O  O247  1  0.24291756  0.36589967  0.50348082  1
  O  O248  1  0.26881357  0.88659942  0.00657768  1
  O  O249  1  0.25394273  0.86352026  0.50899166  1
  O  O250  1  0.74803762  0.36176269  0.00767481  1
  O  O251  1  0.77225355  0.39051346  0.49883038  1
  O  O252  1  0.75942993  0.88185437  0.00924955  1
  O  O253  1  0.75749582  0.86141851  0.49150249  1
  O  O254  1  0.12498566  0.50144772  0.24309100  1
  O  O255  1  0.12409758  0.49518895  0.74038908  1
  O  O256  1  0.14093457  1.01686082  0.24894043  1
  O  O257  1  0.13396394  1.00704537  0.75293917  1
  O  O258  1  0.62296429  0.49673218  0.23311468  1
  O  O259  1  0.63183780  0.49509853  0.74631184  1
  O  O260  1  0.63675092  0.99793575  0.23416678  1
  O  O261  1  0.63577133  0.99292658  0.74297345  1
  O  O262  1  0.38358061  0.01098639  0.25265665  1
  O  O263  1  0.35748491  0.01794177  0.75201799  1
  O  O264  1  0.38088464  0.50527966  0.25665032  1
  O  O265  1  0.37535139  0.50827261  0.76029196  1
  O  O266  1  0.86428709  -0.00002814  0.25815399  1
  O  O267  1  0.86784583  -0.00666928  0.76518121  1
  O  O268  1  0.87527212  0.50508548  0.23503956  1
  O  O269  1  0.86950007  0.50471146  0.75796141  1
  O  O270  1  0.11471505  0.36185327  0.37593027  1
  O  O271  1  0.12607618  0.36382447  0.86958830  1
  O  O272  1  0.10463837  0.88121723  0.38730267  1
  O  O273  1  0.11890961  0.86362170  0.88309157  1
  O  O274  1  0.59730550  0.39470470  0.36456779  1
  O  O275  1  0.61838720  0.36918523  0.87001166  1
  O  O276  1  0.59601271  0.88127447  0.37350932  1
  O  O277  1  0.62008860  0.86620574  0.86760199  1
  O  O278  1  0.38649450  0.13211244  0.12483294  1
  O  O279  1  0.36175003  0.14277031  0.64748984  1
  O  O280  1  0.39356783  0.62613111  0.12203309  1
  O  O281  1  0.38685249  0.61600157  0.63610981  1
  O  O282  1  0.88569221  0.13364028  0.12265328  1
  O  O283  1  0.88227237  0.14381519  0.61432653  1
  O  O284  1  0.85224750  0.63660676  0.14066715  1
  O  O285  1  0.87692969  0.61648000  0.64025613  1
  O  O286  1  0.26137640  0.24715025  0.12512606  1
  O  O287  1  0.24872650  0.25216176  0.62090598  1
  O  O288  1  0.26475783  0.77373477  0.13427165  1
  O  O289  1  0.24806229  0.76162707  0.63497852  1
  O  O290  1  0.76022385  0.25684722  0.11657081  1
  O  O291  1  0.76519462  0.25265413  0.63363424  1
  O  O292  1  0.75331727  0.76284353  0.11956047  1
  O  O293  1  0.75219998  0.73350920  0.60255284  1
  O  O294  1  0.23643432  0.25070327  0.39360544  1
  O  O295  1  0.23484187  0.24001358  0.87946974  1
  O  O296  1  0.26562405  0.74709424  0.38034920  1
  O  O297  1  0.24110597  0.74181449  0.87446397  1
  O  O298  1  0.72924033  0.24960571  0.36470489  1
  O  O299  1  0.74527587  0.24384561  0.88141558  1
  O  O300  1  0.75514221  0.72740435  0.39564802  1
  O  O301  1  0.74152318  0.73946329  0.86459167  1
  O  O302  1  0.00486706  0.11612491  0.00779582  1
  O  O303  1  0.00253591  0.11997187  0.51020805  1
  O  O304  1  -0.01237704  0.60233718  0.00040057  1
  O  O305  1  -0.00165008  0.61325239  0.48927447  1
  O  O306  1  0.49543508  0.11615834  0.00550390  1
  O  O307  1  0.55987621  0.16375569  0.48030799  1
  O  O308  1  0.51436475  0.62134291  -0.00141239  1
  O  O309  1  0.50603119  0.61691153  0.50631908  1
  O  O310  1  0.49352890  0.38104560  0.48688125  1
  O  O311  1  0.49085828  0.37342334  0.98938521  1
  O  O312  1  0.49474751  0.88266506  0.51440619  1
  O  O313  1  0.49558017  0.87989261  0.98908773  1
  O  O314  1  0.99656142  0.38647505  0.49290078  1
  O  O315  1  0.99386477  0.39932229  1.00332401  1
  O  O316  1  0.98838183  0.88763611  0.50137842  1
  O  O317  1  0.98983541  0.88330299  0.99037171  1
  O  O318  1  0.48484254  0.49967863  0.38134660  1
  O  O319  1  0.49101072  0.49083530  0.87454443  1
  O  O320  1  0.50607255  0.99872292  0.39138770  1
  O  O321  1  0.51132525  0.98854816  0.88027191  1
  O  O322  1  1.01251118  0.48780069  0.38592988  1
  O  O323  1  0.98951221  0.50058256  0.88021951  1
  O  O324  1  0.99142125  0.99990591  0.38799957  1
  O  O325  1  0.99305339  0.99592883  0.88343167  1
  O  O326  1  -0.01108692  0.00679080  0.11514328  1
  O  O327  1  -0.00447846  0.01010903  0.61902205  1
  O  O328  1  0.02033918  0.50327789  0.11829502  1
  O  O329  1  0.00632903  0.50520725  0.61232675  1
  O  O330  1  0.50833829  0.00423887  0.11737484  1
  O  O331  1  0.51999353  0.00147396  0.63686181  1
  O  O332  1  0.50927761  0.51066724  0.12088306  1
  O  O333  1  0.50559337  0.50553019  0.62051126  1
  O  O334  1  0.25728424  0.36655462  0.25951994  1
  O  O335  1  0.23455971  0.37994023  0.75591270  1
  O  O336  1  0.25146051  0.88911254  0.24038798  1
  O  O337  1  0.25023851  0.88934040  0.74889954  1
  O  O338  1  0.75210553  0.36887713  0.23433388  1
  O  O339  1  0.73839789  0.38445132  0.75721937  1
  O  O340  1  0.75690257  0.88843524  0.22788837  1
  O  O341  1  0.74294169  0.88680420  0.75776541  1
  O  O342  1  0.27049650  0.11227471  0.24941914  1
  O  O343  1  0.24925028  0.12070114  0.76031188  1
  O  O344  1  0.26042642  0.64338754  0.26094755  1
  O  O345  1  0.26282702  0.62518114  0.75789138  1
  O  O346  1  0.75757076  0.10290445  0.23445727  1
  O  O347  1  0.75176593  0.11654610  0.76924109  1
  O  O348  1  0.75407752  0.61689258  0.26553608  1
  O  O349  1  0.75808800  0.61633133  0.75601178  1
  O  O350  1  0.39081875  0.12773777  0.36550412  1
  O  O351  1  0.35843077  0.13806846  0.86482721  1
  O  O352  1  0.36926616  0.61413299  0.37691581  1
  O  O353  1  0.37103178  0.61993864  0.86922531  1
  O  O354  1  0.87779953  0.11054334  0.37860787  1
  O  O355  1  0.86810717  0.11245647  0.88279378  1
  O  O356  1  0.86035730  0.61034344  0.36628164  1
  O  O357  1  0.86735069  0.61744877  0.86463893  1
  O  O358  1  0.12879287  0.38822385  0.12192638  1
  O  O359  1  0.12026456  0.39148671  0.63239893  1
  O  O360  1  0.14356405  0.87834308  0.10440374  1
  O  O361  1  0.14383719  0.88581906  0.61843188  1
  O  O362  1  0.63305274  0.38172231  0.12404628  1
  O  O363  1  0.61520801  0.38600669  0.63918819  1
  O  O364  1  0.63644294  0.88188263  0.11482153  1
  O  O365  1  0.62767000  0.87364887  0.63705500  1
  O  O366  1  0.12719806  0.23680182  0.26855991  1
  O  O367  1  0.11710279  0.25736970  0.75693544  1
  O  O368  1  0.10328095  0.75393111  0.20045522  1
  O  O369  1  0.11772220  0.73981322  0.77429496  1
  O  O370  1  0.60649476  0.25933203  0.23885501  1
  O  O371  1  0.62571986  0.25878861  0.76016229  1
  O  O372  1  0.65721372  0.75877351  0.25194108  1
  O  O373  1  0.62162346  0.75249818  0.75466541  1
  O  O374  1  0.38380589  0.23570081  0.24310596  1
  O  O375  1  0.37131750  0.25090537  0.74368086  1
  O  O376  1  0.40831816  0.78554683  0.24632925  1
  O  O377  1  0.38821559  0.74115398  0.75723591  1
  O  O378  1  0.87843178  0.24545741  0.23991561  1
  O  O379  1  0.88430579  0.26016496  0.73660948  1
  O  O380  1  0.86207276  0.75114862  0.24158136  1
  O  O381  1  0.87772927  0.73615176  0.75304200  1
  O  O382  1  0.38523570  0.50211759  0.50187720  1
  O  O383  1  0.37690793  0.49058639  0.99081469  1
  O  O384  1  0.39521212  1.03341755  0.51493962  1
  O  O385  1  0.39165569  0.99061737  0.99946523  1
  O  O386  1  0.89045576  0.49077442  0.50733983  1
  O  O387  1  0.86747111  0.49926550  0.98234139  1
  O  O388  1  0.87450694  0.99737969  0.49767467  1
  O  O389  1  0.88164216  0.99161292  0.99267085  1
  O  O390  1  0.11266942  0.01017177  -0.00608650  1
  O  O391  1  0.11450814  0.01454381  0.49945156  1
  O  O392  1  0.12110289  0.50382707  0.00122167  1
  O  O393  1  0.11415217  0.50493628  0.51209420  1
  O  O394  1  0.61455807  -0.00378254  0.00717312  1
  O  O395  1  0.64207726  -0.00265361  0.52659399  1
  O  O396  1  0.62339975  0.50638452  0.00470100  1
  O  O397  1  0.61281664  0.49935410  0.50835269  1
  O  O398  1  0.37816658  0.36298562  0.11518602  1
  O  O399  1  0.36778450  0.36873444  0.62908201  1
  O  O400  1  0.38343050  0.87353865  0.10661234  1
  O  O401  1  0.35214756  0.88515870  0.63092554  1
  O  O402  1  0.87090035  0.36462507  0.12694028  1
  O  O403  1  0.88311956  0.36732064  0.61476986  1
  O  O404  1  0.86526032  0.86504917  0.11708728  1
  O  O405  1  0.87107506  0.88120465  0.60942806  1
  O  O406  1  0.11131750  0.13928299  0.39339745  1
  O  O407  1  0.12845962  0.13415512  0.88641991  1
  O  O408  1  0.14274879  0.62393134  0.36803456  1
  O  O409  1  0.14212913  0.62533680  0.87728483  1
  O  O410  1  0.63510921  0.12990680  0.35562362  1
  O  O411  1  0.63109462  0.13550999  0.86928964  1
  O  O412  1  0.63176616  0.61433825  0.38588443  1
  O  O413  1  0.63266003  0.62917093  0.87620983  1
