# generated using pymatgen
data_V79Zn79O256
_symmetry_space_group_name_H-M   'P 1'
_cell_length_a   16.88140562
_cell_length_b   16.92639335
_cell_length_c   16.89966867
_cell_angle_alpha   90.06688568
_cell_angle_beta   90.04659411
_cell_angle_gamma   90.04650957
_symmetry_Int_Tables_number   1
_chemical_formula_structural   V79Zn79O256
_chemical_formula_sum   'V79 Zn79 O256'
_cell_volume   4828.92701508
_cell_formula_units_Z   1
loop_
 _symmetry_equiv_pos_site_id
 _symmetry_equiv_pos_as_xyz
  1  'x, y, z'
loop_
 _atom_site_type_symbol
 _atom_site_label
 _atom_site_symmetry_multiplicity
 _atom_site_fract_x
 _atom_site_fract_y
 _atom_site_fract_z
 _atom_site_occupancy
  V  V0  1  0.63572913  -0.00442791  0.63362455  1
  V  V1  1  0.24797001  0.37180564  0.61435806  1
  V  V2  1  0.61618633  0.62415159  -0.00417118  1
  V  V3  1  0.12233723  0.87425452  0.74733162  1
  V  V4  1  0.50011248  0.63034703  0.13620402  1
  V  V5  1  0.75463697  0.12325634  0.37339095  1
  V  V6  1  0.62774312  0.12248441  0.50028195  1
  V  V7  1  0.25102814  0.74524547  0.00111613  1
  V  V8  1  0.11507132  0.61643214  0.01153835  1
  V  V9  1  0.75359401  -0.00211892  0.25135409  1
  V  V10  1  0.00029223  -0.00202903  0.49441732  1
  V  V11  1  0.37487631  0.62040414  0.25937154  1
  V  V12  1  0.88142776  0.24287527  0.62446473  1
  V  V13  1  -0.00622405  0.37742790  0.37786406  1
  V  V14  1  0.49672641  0.24535169  0.24929953  1
  V  V15  1  0.87344546  0.12546535  0.75219759  1
  V  V16  1  0.37698502  0.38154146  0.49766216  1
  V  V17  1  0.49998709  0.12210379  0.62693101  1
  V  V18  1  0.88079516  -0.01188664  0.37692371  1
  V  V19  1  0.77374984  0.25368049  0.00601429  1
  V  V20  1  0.86975464  0.60855019  0.75715300  1
  V  V21  1  0.24752987  0.88049495  0.12843867  1
  V  V22  1  0.49767485  -0.00121037  0.49603244  1
  V  V23  1  0.62746553  0.24806546  0.37248204  1
  V  V24  1  0.63283953  0.74739324  0.39716870  1
  V  V25  1  0.61329315  0.48825748  0.12900801  1
  V  V26  1  0.50581159  0.25449305  0.74150584  1
  V  V27  1  0.27059475  0.26961415  0.03683568  1
  V  V28  1  0.87739390  0.38965071  0.49905000  1
  V  V29  1  0.12467897  0.37714594  0.75329273  1
  V  V30  1  0.74630006  0.61274777  0.38476566  1
  V  V31  1  0.62303469  0.86309527  0.25193591  1
  V  V32  1  0.25409152  0.61922368  0.37512910  1
  V  V33  1  0.49785513  0.86777242  0.37317404  1
  V  V34  1  0.50257050  -0.00875245  -0.00389976  1
  V  V35  1  0.63223912  0.37956111  0.75419911  1
  V  V36  1  0.11727850  0.00378723  0.62915504  1
  V  V37  1  0.86566505  -0.00030394  0.87227572  1
  V  V38  1  -0.00151247  0.73925589  0.24784337  1
  V  V39  1  0.87989403  0.12641610  0.24223200  1
  V  V40  1  0.75534090  0.24631561  0.49918416  1
  V  V41  1  0.61110015  0.25373121  0.88756098  1
  V  V42  1  0.11734452  0.88219340  0.25207017  1
  V  V43  1  0.77019321  0.37830539  0.12373728  1
  V  V44  1  0.25306003  0.51191179  0.74502993  1
  V  V45  1  0.74847443  0.87255213  0.12580702  1
  V  V46  1  0.49034794  0.12004835  0.12350673  1
  V  V47  1  0.61838570  0.50350582  0.62238939  1
  V  V48  1  0.86258946  0.61152971  0.25073146  1
  V  V49  1  0.49841657  0.37870793  0.37541258  1
  V  V50  1  0.87370187  0.87080703  -0.00220951  1
  V  V51  1  0.36959653  0.88211097  0.49626325  1
  V  V52  1  0.37170913  0.25069827  0.61866642  1
  V  V53  1  0.13916613  0.46693637  0.16484442  1
  V  V54  1  0.11785601  0.49729958  0.60513674  1
  V  V55  1  0.11734919  0.74942947  0.37326365  1
  V  V56  1  0.87687379  0.74292270  0.12547918  1
  V  V57  1  0.00341078  0.25035187  0.75574789  1
  V  V58  1  0.37633319  0.75207839  0.14164073  1
  V  V59  1  0.37384472  0.74755156  0.62955803  1
  V  V60  1  -0.01023907  0.74515375  0.74616691  1
  V  V61  1  0.49945166  0.75336913  0.76194827  1
  V  V62  1  0.36973243  0.10999569  0.26111425  1
  V  V63  1  0.12898487  0.13661561  0.50862448  1
  V  V64  1  0.37815619  0.87330424  -0.00816746  1
  V  V65  1  0.74229055  0.12812974  0.88076616  1
  V  V66  1  0.74330564  0.74429206  -0.00880166  1
  V  V67  1  -0.00359097  0.25680867  0.24504643  1
  V  V68  1  -0.00936872  0.61930018  0.61498646  1
  V  V69  1  0.24674921  0.88423987  0.63176975  1
  V  V70  1  0.13663747  0.25560251  0.36788975  1
  V  V71  1  0.62698086  0.87188985  0.75972645  1
  V  V72  1  0.75269898  0.37903613  0.62893062  1
  V  V73  1  0.00191389  0.00514302  0.00501551  1
  V  V74  1  0.76136405  0.85806467  0.61233434  1
  V  V75  1  0.12337154  0.74226254  0.87414403  1
  V  V76  1  0.62685145  0.00467810  0.12786422  1
  V  V77  1  0.24124457  0.75398205  0.49722630  1
  V  V78  1  -0.00186102  0.38371364  0.88536008  1
  Zn  Zn79  1  0.11446856  0.62418226  0.49268606  1
  Zn  Zn80  1  0.19263313  0.18938914  0.91254307  1
  Zn  Zn81  1  0.36244531  0.12459175  0.75141961  1
  Zn  Zn82  1  0.49706901  0.62383460  0.62230218  1
  Zn  Zn83  1  0.00772103  0.13881892  0.11736945  1
  Zn  Zn84  1  0.63330373  0.38251994  0.25484039  1
  Zn  Zn85  1  0.85821315  0.48776718  0.90142595  1
  Zn  Zn86  1  0.41280883  0.49681543  0.88531010  1
  Zn  Zn87  1  0.26346099  0.62039988  0.87029212  1
  Zn  Zn88  1  0.73682226  0.61234870  0.86477435  1
  Zn  Zn89  1  0.50037630  0.51311006  0.48553809  1
  Zn  Zn90  1  -0.00395900  0.87258985  0.87188720  1
  Zn  Zn91  1  0.25524550  0.10357275  0.38194080  1
  Zn  Zn92  1  0.13073685  0.00798881  0.12528456  1
  Zn  Zn93  1  0.34169693  0.00146975  0.85141327  1
  Zn  Zn94  1  0.18955686  0.18716770  0.18519369  1
  Zn  Zn95  1  0.18960991  0.18999680  0.69481540  1
  Zn  Zn96  1  0.18995911  0.68675939  0.19074988  1
  Zn  Zn97  1  0.17679008  0.68933428  0.67807880  1
  Zn  Zn98  1  0.69080929  0.19003445  0.18433049  1
  Zn  Zn99  1  0.69073051  0.18723183  0.68930509  1
  Zn  Zn100  1  0.68980473  0.68347311  0.18552428  1
  Zn  Zn101  1  0.68879078  0.69146289  0.68581083  1
  Zn  Zn102  1  0.31892761  0.32560043  0.29187465  1
  Zn  Zn103  1  0.31882354  0.32970190  0.81306071  1
  Zn  Zn104  1  0.30585428  0.92826975  0.31408663  1
  Zn  Zn105  1  0.30952408  0.81045031  0.81364399  1
  Zn  Zn106  1  0.81506386  0.31580086  0.30764520  1
  Zn  Zn107  1  0.81270869  0.31175654  0.81904667  1
  Zn  Zn108  1  0.81083123  0.80695038  0.31608039  1
  Zn  Zn109  1  0.80478897  0.80989476  0.80637055  1
  Zn  Zn110  1  0.14713860  0.46818788  0.38307110  1
  Zn  Zn111  1  0.19481505  0.43539293  0.93811206  1
  Zn  Zn112  1  0.17329218  0.93472632  0.44316195  1
  Zn  Zn113  1  0.18533390  0.93065396  0.93377988  1
  Zn  Zn114  1  0.68693916  0.43513531  0.44329018  1
  Zn  Zn115  1  0.67635991  0.43960384  0.94427077  1
  Zn  Zn116  1  0.68875894  0.93665031  0.43931909  1
  Zn  Zn117  1  0.68532218  0.93773853  0.94036242  1
  Zn  Zn118  1  0.29414368  0.05266164  0.02490521  1
  Zn  Zn119  1  0.30838154  0.06377467  0.56485420  1
  Zn  Zn120  1  0.30381476  0.56289804  0.07474722  1
  Zn  Zn121  1  0.30882811  0.56110915  0.56018718  1
  Zn  Zn122  1  0.81275836  0.06406441  0.06109849  1
  Zn  Zn123  1  0.81607656  0.05824694  0.56289810  1
  Zn  Zn124  1  0.80309333  0.55898221  0.06390607  1
  Zn  Zn125  1  0.80701281  0.56812143  0.56816790  1
  Zn  Zn126  1  0.43603326  0.43870413  0.19742054  1
  Zn  Zn127  1  0.43242332  0.43583149  0.70774257  1
  Zn  Zn128  1  0.43816230  0.93431020  0.18582349  1
  Zn  Zn129  1  0.43804049  0.93889928  0.69327336  1
  Zn  Zn130  1  0.96089340  0.45502980  0.06287168  1
  Zn  Zn131  1  0.93925243  0.43562622  0.68882255  1
  Zn  Zn132  1  0.93748391  0.93219772  0.18906570  1
  Zn  Zn133  1  0.93859263  0.93914166  0.68558000  1
  Zn  Zn134  1  0.06669151  0.07315796  0.31601564  1
  Zn  Zn135  1  0.05369384  0.05775870  0.81438901  1
  Zn  Zn136  1  0.00677396  0.51428064  0.25148679  1
  Zn  Zn137  1  0.06586722  0.56051812  0.80922695  1
  Zn  Zn138  1  0.56427127  0.05752823  0.31137156  1
  Zn  Zn139  1  0.52078222  0.10088360  0.84743884  1
  Zn  Zn140  1  0.56781909  0.56774623  0.30753535  1
  Zn  Zn141  1  0.54828699  0.57326550  0.80800099  1
  Zn  Zn142  1  0.43617881  0.18945473  0.43701804  1
  Zn  Zn143  1  0.36667531  0.19313849  0.92171281  1
  Zn  Zn144  1  0.43696989  0.69246104  0.44387563  1
  Zn  Zn145  1  0.43379963  0.68076822  0.94094861  1
  Zn  Zn146  1  0.94378313  0.18300761  0.43443280  1
  Zn  Zn147  1  0.94251681  0.18885041  0.93160515  1
  Zn  Zn148  1  0.92111678  0.68947985  0.43304150  1
  Zn  Zn149  1  0.93580030  0.67976506  0.93650979  1
  Zn  Zn150  1  0.08332422  0.30964922  0.06049765  1
  Zn  Zn151  1  0.06059205  0.31145945  0.56077888  1
  Zn  Zn152  1  0.06190326  0.80887601  0.06401625  1
  Zn  Zn153  1  0.01503254  0.79423522  0.53810873  1
  Zn  Zn154  1  0.48815811  0.29061696  0.03974063  1
  Zn  Zn155  1  0.56448014  0.31537468  0.55979593  1
  Zn  Zn156  1  0.56172334  0.80955141  0.06550359  1
  Zn  Zn157  1  0.56009029  0.81593821  0.56600209  1
  O  O158  1  0.11865862  0.11832803  0.13442379  1
  O  O159  1  0.12997402  0.12106972  0.61570798  1
  O  O160  1  0.12610900  0.63584144  0.11130106  1
  O  O161  1  0.11110946  0.61434092  0.61675282  1
  O  O162  1  0.61998511  0.10899928  0.13696761  1
  O  O163  1  0.62242087  0.11482110  0.62088612  1
  O  O164  1  0.61471937  0.62120768  0.12469725  1
  O  O165  1  0.63390354  0.60363997  0.63322539  1
  O  O166  1  0.38826339  0.36522483  0.38481805  1
  O  O167  1  0.39547917  0.40703232  0.81692237  1
  O  O168  1  0.38299106  0.87437517  0.38700500  1
  O  O169  1  0.36659004  0.87910494  0.88896984  1
  O  O170  1  0.87887574  0.36890999  0.39018699  1
  O  O171  1  0.89164967  0.37609271  0.87383702  1
  O  O172  1  0.87271852  0.88903918  0.36957671  1
  O  O173  1  0.86712100  0.88189724  0.88070636  1
  O  O174  1  0.23947282  -0.00715731  0.37568816  1
  O  O175  1  0.25599311  0.01363971  0.92081770  1
  O  O176  1  0.25047591  0.52056422  0.38634160  1
  O  O177  1  0.24617419  0.49762520  0.84982694  1
  O  O178  1  0.75833410  0.00451504  0.37113040  1
  O  O179  1  0.75600558  0.01378854  0.88772469  1
  O  O180  1  0.73470977  0.51295322  0.37518950  1
  O  O181  1  0.74757901  0.50063925  0.88264312  1
  O  O182  1  0.22762618  0.50954991  0.13643195  1
  O  O183  1  0.23431350  0.49364592  0.62369097  1
  O  O184  1  0.24771168  0.98385290  0.10939407  1
  O  O185  1  0.23410814  0.99220158  0.62152930  1
  O  O186  1  0.73558301  0.47974040  0.11801934  1
  O  O187  1  0.74264968  0.48432734  0.61996177  1
  O  O188  1  0.74570364  0.99323051  0.12918872  1
  O  O189  1  0.73773576  1.00060596  0.62643574  1
  O  O190  1  -0.01342636  0.36007769  0.26760887  1
  O  O191  1  0.00560394  0.36895375  0.75655284  1
  O  O192  1  0.01045037  0.85827685  0.24227445  1
  O  O193  1  0.00407073  0.86205857  0.74814196  1
  O  O194  1  0.50774436  0.36127499  0.25941631  1
  O  O195  1  0.52325820  0.36171230  0.73340428  1
  O  O196  1  0.50986066  0.88220070  0.26364280  1
  O  O197  1  0.51231156  0.86502599  0.74174506  1
  O  O198  1  0.49505512  0.12330816  0.24736309  1
  O  O199  1  0.51103945  0.13363692  0.73226975  1
  O  O200  1  0.49297568  0.63248199  0.24524824  1
  O  O201  1  0.50699695  0.64840344  0.73626888  1
  O  O202  1  0.99329388  0.13761371  0.25219118  1
  O  O203  1  0.98491824  0.13701346  0.76267462  1
  O  O204  1  0.98035711  0.63403197  0.25027976  1
  O  O205  1  0.98979681  0.62664162  0.74494947  1
  O  O206  1  0.38054212  0.26421024  0.01103976  1
  O  O207  1  0.38195315  0.25921290  0.51201925  1
  O  O208  1  0.36809458  0.75614962  0.00665039  1
  O  O209  1  0.36296901  0.76496253  0.51047607  1
  O  O210  1  0.87255931  0.25409638  -0.00023932  1
  O  O211  1  0.87272611  0.24478013  0.50936348  1
  O  O212  1  0.86753415  0.75224871  0.00533933  1
  O  O213  1  0.90952534  0.77088487  0.50452443  1
  O  O214  1  0.12356164  0.24110859  0.49335316  1
  O  O215  1  0.15994551  0.24849512  1.00536533  1
  O  O216  1  0.12201318  0.75104973  0.49225562  1
  O  O217  1  0.13129429  0.74705466  0.99163850  1
  O  O218  1  0.63300352  0.24331820  0.49200191  1
  O  O219  1  0.59201995  0.26628913  0.98424025  1
  O  O220  1  0.62560905  0.75068558  0.49580554  1
  O  O221  1  0.63286056  0.73959107  1.00944700  1
  O  O222  1  0.50974232  0.22813719  0.13554552  1
  O  O223  1  0.49948898  0.24009780  0.62325797  1
  O  O224  1  0.48808811  0.74232954  0.12415529  1
  O  O225  1  0.48069404  0.75495301  0.62343972  1
  O  O226  1  1.00793390  0.25773105  0.14159934  1
  O  O227  1  0.98754934  0.25480150  0.63514911  1
  O  O228  1  0.98496109  0.75019813  0.12951466  1
  O  O229  1  1.00846805  0.72937366  0.63683417  1
  O  O230  1  0.00673480  0.25523747  0.36844217  1
  O  O231  1  0.00145023  0.26203160  0.86472378  1
  O  O232  1  0.00984670  0.73971920  0.36400491  1
  O  O233  1  0.00745416  0.74909756  0.86645883  1
  O  O234  1  0.51153704  0.25372692  0.37168993  1
  O  O235  1  0.51023420  0.24259269  0.85519269  1
  O  O236  1  0.51311697  0.76174800  0.38361300  1
  O  O237  1  0.49006631  0.74892886  0.86040585  1
  O  O238  1  0.23602761  0.12329059  0.49812790  1
  O  O239  1  0.27569863  0.16015191  0.99798777  1
  O  O240  1  0.24873170  0.63865809  0.49358439  1
  O  O241  1  0.24475055  0.63764757  1.00104156  1
  O  O242  1  0.74757567  0.12715217  0.49389740  1
  O  O243  1  0.75474458  0.14166392  0.99480653  1
  O  O244  1  0.75765927  0.62463939  0.48437995  1
  O  O245  1  0.73316718  0.63230436  1.00638278  1
  O  O246  1  0.25805966  0.36601324  0.00046231  1
  O  O247  1  0.26053008  0.37483187  0.51271530  1
  O  O248  1  0.25541692  0.86057702  0.00792403  1
  O  O249  1  0.25057517  0.87209906  0.51051489  1
  O  O250  1  0.74431448  0.35989935  0.01034095  1
  O  O251  1  0.76284043  0.36698709  0.50596824  1
  O  O252  1  0.75619717  0.86597537  0.00397371  1
  O  O253  1  0.75225878  0.88195898  0.51356615  1
  O  O254  1  0.12833532  0.48476601  0.26751367  1
  O  O255  1  0.12595175  0.49063527  0.73294553  1
  O  O256  1  0.10804835  0.98366042  0.24978819  1
  O  O257  1  0.10512308  0.98326799  0.74161738  1
  O  O258  1  0.62762823  0.50017454  0.23428986  1
  O  O259  1  0.63073264  0.48134419  0.74119113  1
  O  O260  1  0.63456667  0.98810277  0.24741696  1
  O  O261  1  0.61898277  0.98567073  0.73519297  1
  O  O262  1  0.37672719  0.00431859  0.25555771  1
  O  O263  1  0.36347686  0.00653759  0.74057378  1
  O  O264  1  0.38132924  0.52246806  0.26232056  1
  O  O265  1  0.34984237  0.51849236  0.71853214  1
  O  O266  1  0.87391388  0.00458124  0.25661899  1
  O  O267  1  0.88187634  0.01011246  0.76374822  1
  O  O268  1  0.88078569  0.51488604  0.24442056  1
  O  O269  1  0.87319019  0.50745567  0.75022548  1
  O  O270  1  0.10569682  0.36005956  0.39010451  1
  O  O271  1  0.11834933  0.37869453  0.86007099  1
  O  O272  1  0.12604065  0.86331977  0.35902311  1
  O  O273  1  0.12223086  0.86276229  0.86491806  1
  O  O274  1  0.62304249  0.36125270  0.37637740  1
  O  O275  1  0.63271402  0.36176439  0.86198936  1
  O  O276  1  0.62163601  0.86364041  0.37294884  1
  O  O277  1  0.63241302  0.87846135  0.85874388  1
  O  O278  1  0.39018617  0.11531246  0.14173738  1
  O  O279  1  0.38249823  0.13243597  0.62469238  1
  O  O280  1  0.37873399  0.63223077  0.13715340  1
  O  O281  1  0.36368765  0.64728883  0.62154734  1
  O  O282  1  0.88190568  0.11879492  0.13780759  1
  O  O283  1  0.86496122  0.13274964  0.63947477  1
  O  O284  1  0.85802614  0.63604633  0.13911136  1
  O  O285  1  0.88527094  0.61778557  0.63687125  1
  O  O286  1  0.26252073  0.26087509  0.13673487  1
  O  O287  1  0.26140745  0.25794076  0.63465240  1
  O  O288  1  0.25746226  0.75729745  0.11915697  1
  O  O289  1  0.25128754  0.76147191  0.61904617  1
  O  O290  1  0.74989286  0.25578604  0.11112924  1
  O  O291  1  0.76031640  0.25704648  0.61948062  1
  O  O292  1  0.75720880  0.75566551  0.11736598  1
  O  O293  1  0.74866175  0.75832372  0.61647975  1
  O  O294  1  0.23495453  0.27415868  0.35452412  1
  O  O295  1  0.27944889  0.23605957  0.85102419  1
  O  O296  1  0.23819782  0.75378236  0.39215138  1
  O  O297  1  0.24247509  0.74574141  0.88245532  1
  O  O298  1  0.74508410  0.24425951  0.37789214  1
  O  O299  1  0.73952428  0.24905290  0.89397806  1
  O  O300  1  0.73662419  0.74688619  0.37902302  1
  O  O301  1  0.75419593  0.74068855  0.88825197  1
  O  O302  1  -0.00653002  0.11056660  -0.00039765  1
  O  O303  1  0.01988700  0.11821432  0.49483982  1
  O  O304  1  0.01585436  0.62855131  -0.00254535  1
  O  O305  1  -0.00937305  0.62449325  0.51252041  1
  O  O306  1  0.49798990  0.10528502  0.02008296  1
  O  O307  1  0.50485015  0.11794891  0.50782298  1
  O  O308  1  0.51098007  0.63277390  0.01525399  1
  O  O309  1  0.49328938  0.62231290  0.50974334  1
  O  O310  1  0.49473197  0.37619816  0.49146776  1
  O  O311  1  0.46801483  0.40358933  1.00606442  1
  O  O312  1  0.48990154  0.88116978  0.49561162  1
  O  O313  1  0.49214303  0.88072210  1.00809455  1
  O  O314  1  0.98423265  0.36972579  0.49402186  1
  O  O315  1  1.01254419  0.37306687  0.98950462  1
  O  O316  1  1.01800896  0.89990923  0.49491550  1
  O  O317  1  0.98391406  0.87555042  0.99740331  1
  O  O318  1  0.51531480  0.48288067  0.37039496  1
  O  O319  1  0.52599957  0.49188669  0.87495415  1
  O  O320  1  0.51107840  0.98793268  0.38990024  1
  O  O321  1  0.51705976  0.99670921  0.89800843  1
  O  O322  1  1.00476888  0.47711160  0.36768405  1
  O  O323  1  1.00292436  0.48424493  0.87117273  1
  O  O324  1  0.99530894  1.00826622  0.38446697  1
  O  O325  1  0.98553907  0.99528337  0.88698344  1
  O  O326  1  -0.00607906  -0.00437140  0.10958496  1
  O  O327  1  0.00776546  0.00216437  0.61394998  1
  O  O328  1  0.03673058  0.49269172  0.13844423  1
  O  O329  1  0.00529949  0.50925454  0.62711463  1
  O  O330  1  0.50995701  0.00419778  0.12812626  1
  O  O331  1  0.50893192  0.00538416  0.61571237  1
  O  O332  1  0.50471223  0.51298332  0.13589848  1
  O  O333  1  0.51354191  0.49904622  0.63826072  1
  O  O334  1  0.34148165  0.38097288  0.19939617  1
  O  O335  1  0.23983800  0.38746955  0.73396203  1
  O  O336  1  0.23350013  0.87449112  0.23851173  1
  O  O337  1  0.23596844  0.86855503  0.74249813  1
  O  O338  1  0.74599549  0.36000877  0.22846748  1
  O  O339  1  0.74269678  0.36339252  0.74088184  1
  O  O340  1  0.74404193  0.87866678  0.24558870  1
  O  O341  1  0.73221011  0.86469876  0.73500001  1
  O  O342  1  0.26958597  0.12801138  0.25183738  1
  O  O343  1  0.21002431  0.10485726  0.76951173  1
  O  O344  1  0.25812259  0.63492091  0.26757922  1
  O  O345  1  0.22990034  0.61433948  0.74731557  1
  O  O346  1  0.75927709  0.11890827  0.25302583  1
  O  O347  1  0.76069770  0.13755731  0.76851177  1
  O  O348  1  0.75641152  0.62623061  0.25951661  1
  O  O349  1  0.76660834  0.63323887  0.75000717  1
  O  O350  1  0.37491320  0.12175375  0.36784996  1
  O  O351  1  0.40490549  0.10842976  0.85968915  1
  O  O352  1  0.36194483  0.64173433  0.37294264  1
  O  O353  1  0.37563499  0.60599623  0.88239998  1
  O  O354  1  0.87128591  0.11599989  0.36543329  1
  O  O355  1  0.86467782  0.11997024  0.87247777  1
  O  O356  1  0.85848649  0.62795343  0.36232573  1
  O  O357  1  0.87606502  0.61524525  0.86289757  1
  O  O358  1  0.14093299  0.36941816  0.14256870  1
  O  O359  1  0.12810112  0.38018269  0.62451210  1
  O  O360  1  0.12991557  0.87328426  0.13435690  1
  O  O361  1  0.13000697  0.88374531  0.63251240  1
  O  O362  1  0.60812733  0.38881219  0.12287021  1
  O  O363  1  0.63656253  0.37603840  0.63119281  1
  O  O364  1  0.62854235  0.87997397  0.13539860  1
  O  O365  1  0.63343457  0.88597527  0.62289015  1
  O  O366  1  0.11108940  0.24644754  0.26367478  1
  O  O367  1  0.11233771  0.26471130  0.73730583  1
  O  O368  1  0.11579589  0.75234108  0.25390314  1
  O  O369  1  0.11561944  0.75461516  0.75568459  1
  O  O370  1  0.61946706  0.24301404  0.26235727  1
  O  O371  1  0.62269452  0.25694803  0.75212056  1
  O  O372  1  0.62931417  0.76181137  0.25199699  1
  O  O373  1  0.61201962  0.76133976  0.74336773  1
  O  O374  1  0.39413626  0.23165617  0.25925309  1
  O  O375  1  0.39296978  0.24680587  0.73195842  1
  O  O376  1  0.37202854  0.74891487  0.24039611  1
  O  O377  1  0.38342536  0.76317978  0.73766948  1
  O  O378  1  0.88629165  0.23914939  0.25570568  1
  O  O379  1  0.88156386  0.24600977  0.74524721  1
  O  O380  1  0.88022159  0.74930785  0.24250394  1
  O  O381  1  0.88616295  0.74079230  0.75753327  1
  O  O382  1  0.38069821  0.48569448  0.50837803  1
  O  O383  1  0.37080118  0.49448101  1.00296369  1
  O  O384  1  0.38398620  0.99187167  0.50952838  1
  O  O385  1  0.39368617  0.98667641  1.00921722  1
  O  O386  1  0.87197587  0.48713830  0.50515772  1
  O  O387  1  0.88860218  0.51721034  1.00639999  1
  O  O388  1  0.89185418  1.00938633  0.49311561  1
  O  O389  1  0.87760386  0.98966726  0.99330686  1
  O  O390  1  0.10229097  -0.01394763  -0.00114034  1
  O  O391  1  0.11717050  0.01345611  0.50874805  1
  O  O392  1  0.13486841  0.51752588  -0.00481018  1
  O  O393  1  0.12246225  0.50087537  0.50171107  1
  O  O394  1  0.61557562  -0.01325317  0.01803886  1
  O  O395  1  0.61744509  0.00400958  0.50895879  1
  O  O396  1  0.62314948  0.51643824  0.01689991  1
  O  O397  1  0.61719258  0.48828304  0.51831816  1
  O  O398  1  0.40466752  0.43135411  0.04541884  1
  O  O399  1  0.36961329  0.36820681  0.61993141  1
  O  O400  1  0.36764758  0.86796980  0.12059167  1
  O  O401  1  0.36300889  0.87162498  0.61786050  1
  O  O402  1  0.86773366  0.38517067  0.12088904  1
  O  O403  1  0.87190817  0.36723767  0.61546147  1
  O  O404  1  0.86791932  0.86587063  0.11621804  1
  O  O405  1  0.85827152  0.87995379  0.63517037  1
  O  O406  1  0.13616125  0.14175260  0.38167399  1
  O  O407  1  0.15046126  0.12093567  0.83060944  1
  O  O408  1  0.14176592  0.63796743  0.37655984  1
  O  O409  1  0.12832105  0.63440190  0.88044101  1
  O  O410  1  0.63224307  0.12925738  0.37991271  1
  O  O411  1  0.63035148  0.14328125  0.87561170  1
  O  O412  1  0.63277013  0.64014779  0.37211979  1
  O  O413  1  0.61953364  0.62664362  0.89304130  1
