# generated using pymatgen
data_V79Zn79O256
_symmetry_space_group_name_H-M   'P 1'
_cell_length_a   16.88260578
_cell_length_b   16.89237538
_cell_length_c   16.88486751
_cell_angle_alpha   89.74396964
_cell_angle_beta   89.88231252
_cell_angle_gamma   90.08278629
_symmetry_Int_Tables_number   1
_chemical_formula_structural   V79Zn79O256
_chemical_formula_sum   'V79 Zn79 O256'
_cell_volume   4815.28669142
_cell_formula_units_Z   1
loop_
 _symmetry_equiv_pos_site_id
 _symmetry_equiv_pos_as_xyz
  1  'x, y, z'
loop_
 _atom_site_type_symbol
 _atom_site_label
 _atom_site_symmetry_multiplicity
 _atom_site_fract_x
 _atom_site_fract_y
 _atom_site_fract_z
 _atom_site_occupancy
  V  V0  1  0.37497809  0.75731874  0.63260944  1
  V  V1  1  0.01593744  0.50284195  0.00223504  1
  V  V2  1  0.75332840  0.37691098  0.62050295  1
  V  V3  1  -0.00053739  0.37636870  0.87079098  1
  V  V4  1  0.25187208  0.11121880  0.37440781  1
  V  V5  1  0.38325752  0.75608873  0.11987597  1
  V  V6  1  0.75742007  0.86499206  0.12505447  1
  V  V7  1  0.24858874  -0.01087287  0.76442042  1
  V  V8  1  0.00196941  -0.00268400  0.00286403  1
  V  V9  1  0.12851680  0.75208223  0.86173805  1
  V  V10  1  0.12509767  0.12375745  0.50514909  1
  V  V11  1  0.61698516  0.36870294  0.24680241  1
  V  V12  1  0.23944744  0.63222499  0.38055065  1
  V  V13  1  0.48933005  -0.01357274  0.00254056  1
  V  V14  1  0.62330099  0.12742581  -0.00480227  1
  V  V15  1  0.50093877  0.13070943  0.12895765  1
  V  V16  1  -0.00528506  0.24224020  0.74982655  1
  V  V17  1  0.63464359  -0.00329605  0.12295084  1
  V  V18  1  0.36697518  0.61351361  0.75449623  1
  V  V19  1  0.00906369  0.50044355  0.51443218  1
  V  V20  1  0.50221038  0.62506233  0.12235972  1
  V  V21  1  0.86496296  0.87044805  0.50022618  1
  V  V22  1  0.75251964  0.51103756  0.74117159  1
  V  V23  1  0.24290535  0.50479246  0.24974232  1
  V  V24  1  0.74934476  0.25157666  -0.00929821  1
  V  V25  1  0.62069478  0.75552344  0.88055991  1
  V  V26  1  0.37695322  0.49968539  0.38309156  1
  V  V27  1  0.74875975  0.37773871  0.12131034  1
  V  V28  1  0.25325160  0.25399227  0.50013905  1
  V  V29  1  0.75710398  0.50118414  0.25000167  1
  V  V30  1  0.49165538  0.87159526  0.85664270  1
  V  V31  1  0.62456416  0.25086610  0.87104904  1
  V  V32  1  0.76007479  0.00955606  0.24050625  1
  V  V33  1  0.87720157  0.86287979  0.00530859  1
  V  V34  1  0.00824061  0.87195921  0.86966365  1
  V  V35  1  0.38861956  0.88287455  0.48744702  1
  V  V36  1  0.12913597  0.12389603  0.00180385  1
  V  V37  1  0.24117966  0.75538023  0.01146858  1
  V  V38  1  0.75869298  0.63047103  0.36924777  1
  V  V39  1  -0.00394209  -0.00211582  0.50342492  1
  V  V40  1  0.50582295  0.62188499  0.63734595  1
  V  V41  1  0.25080015  0.61615633  0.87999234  1
  V  V42  1  0.62511786  0.50360621  0.11587606  1
  V  V43  1  0.61860237  -0.00120509  0.63216183  1
  V  V44  1  0.75195046  0.01268340  0.75427814  1
  V  V45  1  0.37731378  0.25447500  0.13623060  1
  V  V46  1  0.00331238  0.63945703  0.63383107  1
  V  V47  1  0.24624769  0.38141257  0.12687472  1
  V  V48  1  0.49431172  0.36834488  0.37665774  1
  V  V49  1  0.62238758  0.12130583  0.49852505  1
  V  V50  1  0.12784637  -0.01947102  0.63124809  1
  V  V51  1  0.24860462  0.38613176  0.62368152  1
  V  V52  1  0.62333915  0.38334162  0.74001385  1
  V  V53  1  0.12450867  0.25161832  0.37368726  1
  V  V54  1  0.75411503  0.25361194  0.49608500  1
  V  V55  1  0.00261244  0.86420117  0.37518473  1
  V  V56  1  0.87565320  0.24563639  0.12614424  1
  V  V57  1  0.49568818  0.12152657  0.61888381  1
  V  V58  1  -0.00795536  0.12038395  0.63060668  1
  V  V59  1  -0.00562150  0.73801697  0.24090883  1
  V  V60  1  0.37974960  0.63116676  0.25078172  1
  V  V61  1  0.74452306  0.62961985  0.89823866  1
  V  V62  1  0.36997687  0.11092142  0.25388751  1
  V  V63  1  0.24310234  0.75378109  0.50147243  1
  V  V64  1  0.13130933  -0.00573646  0.13978027  1
  V  V65  1  0.25206715  0.24931353  -0.00057973  1
  V  V66  1  0.49207244  0.38422999  0.87249533  1
  V  V67  1  0.73656225  0.86982105  0.63632856  1
  V  V68  1  0.37116440  0.24933774  0.62332155  1
  V  V69  1  0.87387265  0.00743428  0.37036900  1
  V  V70  1  0.49103215  0.50431819  -0.00381591  1
  V  V71  1  0.13102492  0.24344549  0.87249441  1
  V  V72  1  0.61955564  0.61719199  0.48853870  1
  V  V73  1  -0.00251281  0.12673613  0.13371139  1
  V  V74  1  0.12826930  0.38513672  0.74512628  1
  V  V75  1  0.12030263  0.37607902  0.25178274  1
  V  V76  1  0.73914373  0.75195642  0.49556617  1
  V  V77  1  0.49545688  0.24873938  0.74830044  1
  V  V78  1  0.87586719  0.37849343  -0.00558377  1
  Zn  Zn79  1  0.00937461  0.61881941  0.12570740  1
  Zn  Zn80  1  0.75142858  0.12847774  0.36843616  1
  Zn  Zn81  1  0.61936891  0.24682431  0.36961482  1
  Zn  Zn82  1  -0.01169059  0.25048487  0.25698818  1
  Zn  Zn83  1  0.13925419  0.86652846  0.27081778  1
  Zn  Zn84  1  0.37151532  0.38020854  -0.00361053  1
  Zn  Zn85  1  0.88380383  0.01106175  0.85767620  1
  Zn  Zn86  1  0.87861853  0.51609398  0.86929177  1
  Zn  Zn87  1  0.87287092  0.24681132  0.62597391  1
  Zn  Zn88  1  0.87815670  0.66589937  0.74438098  1
  Zn  Zn89  1  0.50162694  0.49092290  0.50761134  1
  Zn  Zn90  1  -0.01146555  0.37373343  0.39320519  1
  Zn  Zn91  1  0.87091431  0.48666029  0.39324005  1
  Zn  Zn92  1  0.34366143  0.12570805  0.78295744  1
  Zn  Zn93  1  0.26597489  0.88807787  0.13538889  1
  Zn  Zn94  1  0.18956826  0.18734855  0.18828706  1
  Zn  Zn95  1  0.18608271  0.18499847  0.68903773  1
  Zn  Zn96  1  0.17601036  0.69052949  0.19413965  1
  Zn  Zn97  1  0.18959801  0.68633300  0.68551039  1
  Zn  Zn98  1  0.69164575  0.18937205  0.18117085  1
  Zn  Zn99  1  0.68438373  0.18764215  0.68511546  1
  Zn  Zn100  1  0.69654569  0.68050793  0.17771020  1
  Zn  Zn101  1  0.67888767  0.69455436  0.69174980  1
  Zn  Zn102  1  0.31101772  0.31219814  0.31332235  1
  Zn  Zn103  1  0.31203562  0.31610526  0.80832196  1
  Zn  Zn104  1  0.31864128  0.81723819  0.31329603  1
  Zn  Zn105  1  0.31096799  0.81282002  0.81374388  1
  Zn  Zn106  1  0.80725259  0.31531356  0.30996577  1
  Zn  Zn107  1  0.81160660  0.31624391  0.80589068  1
  Zn  Zn108  1  0.81330145  0.81597777  0.30981844  1
  Zn  Zn109  1  0.80876461  0.81301366  0.83697668  1
  Zn  Zn110  1  0.18313332  0.44323340  0.43919383  1
  Zn  Zn111  1  0.18979917  0.43193838  0.93248915  1
  Zn  Zn112  1  0.18948317  0.93250442  0.44984097  1
  Zn  Zn113  1  0.19232402  0.93316782  0.94700036  1
  Zn  Zn114  1  0.68355755  0.43875518  0.43399620  1
  Zn  Zn115  1  0.68482682  0.44314110  0.92901869  1
  Zn  Zn116  1  0.68220561  0.94467321  0.43201694  1
  Zn  Zn117  1  0.68504252  0.93630243  0.93809306  1
  Zn  Zn118  1  0.31359034  0.06569189  0.06410397  1
  Zn  Zn119  1  0.31168639  0.05863800  0.56705593  1
  Zn  Zn120  1  0.30934889  0.56846431  0.06295570  1
  Zn  Zn121  1  0.31219906  0.56816601  0.56601705  1
  Zn  Zn122  1  0.82533190  0.07420198  0.02620769  1
  Zn  Zn123  1  0.80671084  0.05873688  0.56312987  1
  Zn  Zn124  1  0.82718544  0.56367702  0.06776253  1
  Zn  Zn125  1  0.82235892  0.56837965  0.56526713  1
  Zn  Zn126  1  0.43365685  0.44294364  0.19035520  1
  Zn  Zn127  1  0.43153346  0.43930317  0.68545525  1
  Zn  Zn128  1  0.44788764  0.94037600  0.19197565  1
  Zn  Zn129  1  0.42563608  0.94330340  0.68771163  1
  Zn  Zn130  1  0.93784655  0.43764022  0.18394565  1
  Zn  Zn131  1  0.93236492  0.44266165  0.68050956  1
  Zn  Zn132  1  0.94044905  0.93389554  0.18851186  1
  Zn  Zn133  1  0.90779512  0.87508808  0.70695098  1
  Zn  Zn134  1  0.06036303  0.06151750  0.31723598  1
  Zn  Zn135  1  0.07251147  0.05779871  0.81194387  1
  Zn  Zn136  1  0.05586346  0.56144532  0.32530764  1
  Zn  Zn137  1  0.06459709  0.56997384  0.80815748  1
  Zn  Zn138  1  0.57663611  0.07391475  0.29540827  1
  Zn  Zn139  1  0.51762925  0.07489657  0.83055937  1
  Zn  Zn140  1  0.56305363  0.55439293  0.30800008  1
  Zn  Zn141  1  0.56866789  0.56771791  0.81334160  1
  Zn  Zn142  1  0.43437050  0.18630868  0.43564518  1
  Zn  Zn143  1  0.43583183  0.19229702  0.94405950  1
  Zn  Zn144  1  0.42110426  0.67640734  0.45413925  1
  Zn  Zn145  1  0.43656489  0.69285588  0.93824650  1
  Zn  Zn146  1  0.93735591  0.18809617  0.44042871  1
  Zn  Zn147  1  0.94053069  0.18458336  0.93363556  1
  Zn  Zn148  1  0.93532904  0.68175795  0.45158104  1
  Zn  Zn149  1  0.93872790  0.68455470  0.93065468  1
  Zn  Zn150  1  0.06274515  0.31438502  0.06304751  1
  Zn  Zn151  1  0.06182371  0.31182295  0.56571161  1
  Zn  Zn152  1  0.06314992  0.80907628  0.06753916  1
  Zn  Zn153  1  0.05639127  0.80524582  0.55852967  1
  Zn  Zn154  1  0.55955913  0.31740436  0.05904134  1
  Zn  Zn155  1  0.56513424  0.30945335  0.55805945  1
  Zn  Zn156  1  0.57296230  0.80687750  0.05904019  1
  Zn  Zn157  1  0.55834794  0.80625547  0.56104861  1
  O  O158  1  0.11981883  0.11990769  0.12042337  1
  O  O159  1  0.11589928  0.12674558  0.61347426  1
  O  O160  1  0.12135207  0.61784039  0.12999269  1
  O  O161  1  0.10640506  0.62773975  0.64045213  1
  O  O162  1  0.61772103  0.12299553  0.11714697  1
  O  O163  1  0.61489555  0.12081729  0.61664317  1
  O  O164  1  0.61535509  0.61468511  0.13120041  1
  O  O165  1  0.60858788  0.62980305  0.62154730  1
  O  O166  1  0.38573393  0.38345440  0.36707135  1
  O  O167  1  0.38704474  0.37423929  0.87227079  1
  O  O168  1  0.38318612  0.87129265  0.38668057  1
  O  O169  1  0.39238290  0.86807016  0.87408127  1
  O  O170  1  0.87766259  0.37448456  0.36919942  1
  O  O171  1  0.88615136  0.36899202  0.87964998  1
  O  O172  1  0.88090468  0.88549631  0.38287455  1
  O  O173  1  0.88967453  0.88428105  0.89113908  1
  O  O174  1  0.24196200  0.01295931  0.38284074  1
  O  O175  1  0.23984714  -0.00474335  0.86573631  1
  O  O176  1  0.25703304  0.50987455  0.37118513  1
  O  O177  1  0.24928847  0.51686868  0.88300943  1
  O  O178  1  0.75684586  0.00007988  0.35998028  1
  O  O179  1  0.74060144  -0.00677815  0.85509426  1
  O  O180  1  0.74924669  0.50996028  0.36746830  1
  O  O181  1  0.75038890  0.51408640  0.86474026  1
  O  O182  1  0.25671681  0.49274611  0.13620074  1
  O  O183  1  0.25392135  0.48467122  0.61928684  1
  O  O184  1  0.23567395  1.00311576  0.12138912  1
  O  O185  1  0.22890858  1.00150439  0.62301066  1
  O  O186  1  0.74277533  0.49738810  0.12791587  1
  O  O187  1  0.75191778  0.49339881  0.63471931  1
  O  O188  1  0.75002980  1.00041606  0.12456548  1
  O  O189  1  0.73915985  0.99061876  0.63130665  1
  O  O190  1  0.01349707  0.37249281  0.24651106  1
  O  O191  1  0.01041627  0.36611245  0.75343331  1
  O  O192  1  0.00058050  0.87227883  0.26845425  1
  O  O193  1  0.00307153  0.88382734  0.77125154  1
  O  O194  1  0.50737831  0.38351797  0.25837595  1
  O  O195  1  0.50339647  0.37062347  0.75092815  1
  O  O196  1  0.50835065  0.88506726  0.27523232  1
  O  O197  1  0.49876060  0.88545777  0.75802405  1
  O  O198  1  0.48853999  0.11929547  0.23987420  1
  O  O199  1  0.50911584  0.14252714  0.73367059  1
  O  O200  1  0.48996936  0.61243619  0.23646327  1
  O  O201  1  0.49089919  0.62047925  0.74279905  1
  O  O202  1  1.00477818  0.13023533  0.23853159  1
  O  O203  1  1.00933949  0.13039226  0.74359195  1
  O  O204  1  1.00211746  0.63636525  0.25900422  1
  O  O205  1  0.98961558  0.62288346  0.74481028  1
  O  O206  1  0.36615962  0.25299857  0.01121733  1
  O  O207  1  0.36211572  0.24878764  0.50605935  1
  O  O208  1  0.36835419  0.75002094  0.01575489  1
  O  O209  1  0.37027046  0.75841429  0.50983439  1
  O  O210  1  0.86757152  0.25973991  0.00182055  1
  O  O211  1  0.85778646  0.24564032  0.50154997  1
  O  O212  1  0.88425276  0.76406943  -0.00417337  1
  O  O213  1  0.85512287  0.76039797  0.49411799  1
  O  O214  1  0.13148569  0.24231943  0.49342127  1
  O  O215  1  0.13220402  0.24540463  0.99431029  1
  O  O216  1  0.14379915  0.75333489  0.50495134  1
  O  O217  1  0.13874225  0.74705618  1.00380043  1
  O  O218  1  0.63296281  0.23853140  0.49656373  1
  O  O219  1  0.62892865  0.24969586  0.99103377  1
  O  O220  1  0.63102534  0.73622409  0.49939967  1
  O  O221  1  0.61664020  0.73676451  0.98470057  1
  O  O222  1  0.49119782  0.24153287  0.11670367  1
  O  O223  1  0.48931850  0.25050642  0.62937191  1
  O  O224  1  0.49165462  0.74036370  0.11978646  1
  O  O225  1  0.48490264  0.73264871  0.62007691  1
  O  O226  1  0.99255599  0.24428100  0.12346009  1
  O  O227  1  0.99870576  0.23944280  0.63299898  1
  O  O228  1  0.99793495  0.74567345  0.13588176  1
  O  O229  1  0.99403351  0.74203889  0.62591176  1
  O  O230  1  0.01163208  0.25013176  0.37549860  1
  O  O231  1  0.00967801  0.25575385  0.87086409  1
  O  O232  1  -0.00565765  0.76353451  0.38661426  1
  O  O233  1  0.01669796  0.75896909  0.88062403  1
  O  O234  1  0.49652213  0.26409286  0.37336552  1
  O  O235  1  0.50649346  0.26416628  0.86624155  1
  O  O236  1  0.57611664  0.73935650  0.29431274  1
  O  O237  1  0.50518922  0.76220980  0.87725413  1
  O  O238  1  0.24299928  0.13291438  0.49495526  1
  O  O239  1  0.24142337  0.13800745  1.00768287  1
  O  O240  1  0.25972202  0.63412248  0.48746171  1
  O  O241  1  0.25982874  0.63878787  0.98589709  1
  O  O242  1  0.74056895  0.13607467  0.50046015  1
  O  O243  1  0.73212071  0.14007623  1.00464230  1
  O  O244  1  0.73927709  0.63057642  0.49056606  1
  O  O245  1  0.75403595  0.61530602  0.99607732  1
  O  O246  1  0.25046706  0.36781738  0.00857942  1
  O  O247  1  0.23784729  0.36523523  0.51357921  1
  O  O248  1  0.25007555  0.86109457  0.01615241  1
  O  O249  1  0.26304891  0.85816276  0.49412659  1
  O  O250  1  0.75525803  0.37077061  -0.00143790  1
  O  O251  1  0.73683903  0.36230239  0.50608914  1
  O  O252  1  0.76983476  0.88375935  0.00673034  1
  O  O253  1  0.74715969  0.86773716  0.49204804  1
  O  O254  1  0.13570243  0.49079555  0.26266489  1
  O  O255  1  0.12379114  0.48289606  0.75745202  1
  O  O256  1  0.12285333  0.99982259  0.24200893  1
  O  O257  1  0.13114261  0.99379411  0.73798741  1
  O  O258  1  0.63257420  0.49050253  0.23726077  1
  O  O259  1  0.63741250  0.49162899  0.75365810  1
  O  O260  1  0.63910384  1.00411878  0.23129064  1
  O  O261  1  0.63225006  1.00562472  0.73395394  1
  O  O262  1  0.37202413  0.01223237  0.24332395  1
  O  O263  1  0.35209294  0.01108987  0.73986813  1
  O  O264  1  0.36240697  0.50913816  0.25880305  1
  O  O265  1  0.37164583  0.51378656  0.75186267  1
  O  O266  1  0.87176113  -0.00161540  0.25716144  1
  O  O267  1  0.85543571  -0.01582598  0.74745412  1
  O  O268  1  0.85794660  0.49288687  0.24518727  1
  O  O269  1  0.85610337  0.48923629  0.75549081  1
  O  O270  1  0.12788759  0.36449328  0.36838819  1
  O  O271  1  0.11996684  0.36399107  0.86444698  1
  O  O272  1  0.10570995  0.88316011  0.38604594  1
  O  O273  1  0.11676125  0.86419845  0.88636604  1
  O  O274  1  0.61239628  0.37575181  0.36400998  1
  O  O275  1  0.61556484  0.36955089  0.86376826  1
  O  O276  1  0.59883935  0.88643597  0.37168474  1
  O  O277  1  0.61675528  0.86213948  0.88326663  1
  O  O278  1  0.38016193  0.13286157  0.13576167  1
  O  O279  1  0.38104820  0.13748888  0.62022005  1
  O  O280  1  0.38251416  0.63189477  0.13201718  1
  O  O281  1  0.37956171  0.62993379  0.63832438  1
  O  O282  1  0.88583190  0.13550572  0.11004607  1
  O  O283  1  0.88859777  0.12203758  0.61910834  1
  O  O284  1  0.89661921  0.61266592  0.13402131  1
  O  O285  1  0.88644471  0.62745508  0.63487216  1
  O  O286  1  0.25723496  0.25872997  0.11932974  1
  O  O287  1  0.25450568  0.25192097  0.61798385  1
  O  O288  1  0.26163862  0.74075210  0.11798761  1
  O  O289  1  0.26379846  0.73756457  0.61122018  1
  O  O290  1  0.75550970  0.25737771  0.11007062  1
  O  O291  1  0.74848116  0.25611803  0.61430795  1
  O  O292  1  0.74776436  0.76568454  0.12592340  1
  O  O293  1  0.73535800  0.76438812  0.61498966  1
  O  O294  1  0.24377191  0.24395769  0.38319066  1
  O  O295  1  0.24268411  0.25815358  0.88559750  1
  O  O296  1  0.25768250  0.73809933  0.38408198  1
  O  O297  1  0.24047087  0.75314524  0.88901739  1
  O  O298  1  0.74448204  0.24905481  0.38515096  1
  O  O299  1  0.73767710  0.25963875  0.87986718  1
  O  O300  1  0.74759120  0.73779704  0.37586911  1
  O  O301  1  0.73873295  0.73937537  0.88644977  1
  O  O302  1  0.01363839  0.11895191  0.01121153  1
  O  O303  1  0.00752455  0.11965471  0.50691598  1
  O  O304  1  -0.00350978  0.60367161  -0.01131850  1
  O  O305  1  -0.00148657  0.61741397  0.51893377  1
  O  O306  1  0.50766989  0.11811448  0.01133617  1
  O  O307  1  0.50712387  0.13460177  0.50874412  1
  O  O308  1  0.49183530  0.61708480  0.01074879  1
  O  O309  1  0.51090518  0.62402919  0.50300367  1
  O  O310  1  0.50699658  0.37648345  0.48334252  1
  O  O311  1  0.49593113  0.38379432  0.98920254  1
  O  O312  1  0.48864348  0.87327689  0.50371815  1
  O  O313  1  0.50045789  0.88715718  1.01497274  1
  O  O314  1  1.00373941  0.38804109  0.50867908  1
  O  O315  1  0.99618109  0.37787958  0.98876867  1
  O  O316  1  0.98489300  0.87856117  0.49620079  1
  O  O317  1  0.99718913  0.87899105  0.99885697  1
  O  O318  1  0.49193467  0.49099800  0.37657761  1
  O  O319  1  0.50905507  0.49491585  0.88352872  1
  O  O320  1  0.54063093  0.92898692  0.33512511  1
  O  O321  1  0.51138964  0.97940436  0.89397817  1
  O  O322  1  0.99309817  0.49658722  0.39143482  1
  O  O323  1  0.99908185  0.48742553  0.87728208  1
  O  O324  1  0.99129993  0.99505504  0.38383653  1
  O  O325  1  1.00952672  0.98952413  0.88680103  1
  O  O326  1  0.01148764  0.00760181  0.12316222  1
  O  O327  1  0.01434694  0.00749338  0.61997796  1
  O  O328  1  0.00258839  0.48926644  0.10445106  1
  O  O329  1  0.00375881  0.50534058  0.62128784  1
  O  O330  1  0.51237070  0.00760137  0.11885791  1
  O  O331  1  0.50167681  0.01483225  0.63139947  1
  O  O332  1  0.50528735  0.50471068  0.11652297  1
  O  O333  1  0.48960157  0.51585715  0.62074425  1
  O  O334  1  0.24323666  0.38382102  0.24613948  1
  O  O335  1  0.23784018  0.37040195  0.73963144  1
  O  O336  1  0.24746071  0.86724169  0.24486359  1
  O  O337  1  0.25409418  0.88861204  0.74930076  1
  O  O338  1  0.73831235  0.38270439  0.24096366  1
  O  O339  1  0.73940228  0.38021054  0.74138022  1
  O  O340  1  0.75916330  0.88696501  0.23099006  1
  O  O341  1  0.73774136  0.87630418  0.73564266  1
  O  O342  1  0.26155909  0.12792507  0.25793463  1
  O  O343  1  0.23632654  0.11114976  0.75492651  1
  O  O344  1  0.25682579  0.62174325  0.26196047  1
  O  O345  1  0.25946002  0.62784478  0.76145313  1
  O  O346  1  0.75017550  0.11618472  0.24776010  1
  O  O347  1  0.75183582  0.11341876  0.74175848  1
  O  O348  1  0.74163315  0.61798596  0.26237125  1
  O  O349  1  0.74991790  0.61393595  0.74097211  1
  O  O350  1  0.36959719  0.12631148  0.36207017  1
  O  O351  1  0.41540732  0.11875909  0.86575112  1
  O  O352  1  0.37481232  0.61887329  0.36682842  1
  O  O353  1  0.36557601  0.63587898  0.86293498  1
  O  O354  1  0.87342767  0.11200666  0.38072932  1
  O  O355  1  0.86636778  0.10500270  0.91565338  1
  O  O356  1  0.85846883  0.62291410  0.38104109  1
  O  O357  1  0.85640040  0.63318108  0.86560774  1
  O  O358  1  0.13829361  0.36661278  0.13559240  1
  O  O359  1  0.13508597  0.36903548  0.63759915  1
  O  O360  1  0.12089321  0.89247055  0.12728113  1
  O  O361  1  0.11958668  0.88300952  0.61689417  1
  O  O362  1  0.62751771  0.38199057  0.12787972  1
  O  O363  1  0.63083184  0.37103154  0.63343481  1
  O  O364  1  0.64563002  0.88590305  0.10937863  1
  O  O365  1  0.63018102  0.88475769  0.61326661  1
  O  O366  1  0.12875152  0.25712965  0.26068810  1
  O  O367  1  0.11715981  0.25460236  0.75836408  1
  O  O368  1  0.10452056  0.75799617  0.25392875  1
  O  O369  1  0.13727017  0.75910319  0.76394444  1
  O  O370  1  0.63027407  0.26283323  0.24741266  1
  O  O371  1  0.61689545  0.25996420  0.75375623  1
  O  O372  1  0.62426521  0.76465804  0.24362392  1
  O  O373  1  0.62361969  0.74048377  0.77635587  1
  O  O374  1  0.37108385  0.24365756  0.23998666  1
  O  O375  1  0.38013674  0.24638956  0.74225284  1
  O  O376  1  0.37253130  0.73671024  0.24006603  1
  O  O377  1  0.36714045  0.74290400  0.73630057  1
  O  O378  1  0.87005510  0.25422664  0.23018742  1
  O  O379  1  0.89053140  0.25135280  0.75191478  1
  O  O380  1  0.89490360  0.75668939  0.25944283  1
  O  O381  1  0.86906949  0.77754446  0.75211886  1
  O  O382  1  0.37654545  0.50784349  0.48685360  1
  O  O383  1  0.38580781  0.49847288  1.00566704  1
  O  O384  1  0.36863122  0.98119696  0.50804988  1
  O  O385  1  0.39045820  1.00231074  1.01025412  1
  O  O386  1  0.88943977  0.50148813  0.50570099  1
  O  O387  1  0.88069607  0.48564414  0.99123237  1
  O  O388  1  0.87457327  0.99160682  0.49196209  1
  O  O389  1  0.89739323  0.98516796  1.01365375  1
  O  O390  1  0.12057137  0.00750233  0.00979162  1
  O  O391  1  0.11894919  0.00806303  0.50852541  1
  O  O392  1  0.11487360  0.49277616  -0.00816925  1
  O  O393  1  0.11111928  0.50577866  0.49757816  1
  O  O394  1  0.62216465  0.01140080  0.00624454  1
  O  O395  1  0.63102935  0.01449643  0.51025188  1
  O  O396  1  0.61551094  0.49330154  0.01062674  1
  O  O397  1  0.62549175  0.51404616  0.50333627  1
  O  O398  1  0.36510525  0.36984113  0.12756151  1
  O  O399  1  0.35855005  0.36361487  0.63216352  1
  O  O400  1  0.38380082  0.85858300  0.13860462  1
  O  O401  1  0.37941662  0.85918117  0.62218203  1
  O  O402  1  0.87015632  0.36769025  0.11157633  1
  O  O403  1  0.85738792  0.36824258  0.63067106  1
  O  O404  1  0.87053652  0.87378023  0.11634417  1
  O  O405  1  0.84790724  0.88171610  0.60848195  1
  O  O406  1  0.13065258  0.13188074  0.38384323  1
  O  O407  1  0.11893886  0.13490917  0.88854494  1
  O  O408  1  0.14169966  0.62504517  0.37458899  1
  O  O409  1  0.14005023  0.63907222  0.86878394  1
  O  O410  1  0.62500647  0.12544140  0.38136827  1
  O  O411  1  0.60794754  0.14104641  0.88378141  1
  O  O412  1  0.62816244  0.61921643  0.38442104  1
  O  O413  1  0.64009102  0.62626213  0.87953246  1
