# generated using pymatgen
data_V79Zn79O256
_symmetry_space_group_name_H-M   'P 1'
_cell_length_a   16.89729745
_cell_length_b   16.89598547
_cell_length_c   16.90868075
_cell_angle_alpha   89.94088376
_cell_angle_beta   90.08172597
_cell_angle_gamma   90.03006695
_symmetry_Int_Tables_number   1
_chemical_formula_structural   V79Zn79O256
_chemical_formula_sum   'V79 Zn79 O256'
_cell_volume   4827.36089990
_cell_formula_units_Z   1
loop_
 _symmetry_equiv_pos_site_id
 _symmetry_equiv_pos_as_xyz
  1  'x, y, z'
loop_
 _atom_site_type_symbol
 _atom_site_label
 _atom_site_symmetry_multiplicity
 _atom_site_fract_x
 _atom_site_fract_y
 _atom_site_fract_z
 _atom_site_occupancy
  V  V0  1  0.62774233  0.62709205  0.48134854  1
  V  V1  1  0.13321606  0.87543409  0.75183283  1
  V  V2  1  0.63460261  0.63772132  0.00446930  1
  V  V3  1  0.62515921  0.87228213  0.25327764  1
  V  V4  1  0.23628141  0.38190786  0.63362009  1
  V  V5  1  0.37209234  0.87800363  0.50369365  1
  V  V6  1  0.74695648  0.88100833  0.62788182  1
  V  V7  1  0.62818527  0.48096529  0.12718027  1
  V  V8  1  0.88643151  0.13667889  0.75477362  1
  V  V9  1  0.87250985  0.74525333  0.12136900  1
  V  V10  1  0.12022711  0.25652123  0.85706798  1
  V  V11  1  0.39205162  0.74089182  0.62770124  1
  V  V12  1  0.12773188  0.88030212  0.24923271  1
  V  V13  1  0.01218242  0.50456412  0.49843656  1
  V  V14  1  0.00026315  0.87488649  0.37421276  1
  V  V15  1  0.87694619  0.87502426  0.49915363  1
  V  V16  1  0.50085948  0.25216594  0.75609631  1
  V  V17  1  0.37586504  0.00297288  0.35832336  1
  V  V18  1  0.74357248  0.00118677  0.24224365  1
  V  V19  1  0.37192217  0.87072080  -0.01172403  1
  V  V20  1  0.22446489  0.73393434  -0.00444639  1
  V  V21  1  0.12394609  0.37895664  0.24739397  1
  V  V22  1  0.00099737  0.87828603  0.87496422  1
  V  V23  1  0.86865441  0.50171051  0.38228865  1
  V  V24  1  0.37490159  0.49877609  0.37724260  1
  V  V25  1  0.50443782  0.74968401  0.25577420  1
  V  V26  1  0.01683999  0.62542191  0.61812173  1
  V  V27  1  -0.00572717  0.37471729  0.38180242  1
  V  V28  1  0.62803913  0.50950416  0.63368103  1
  V  V29  1  0.87535992  0.12424491  0.24665438  1
  V  V30  1  0.00541041  0.13016618  0.62164046  1
  V  V31  1  0.47927995  0.37896564  0.87703834  1
  V  V32  1  0.62538673  0.25431346  0.37116335  1
  V  V33  1  0.50761091  0.12258816  0.62582929  1
  V  V34  1  0.75309686  0.61935340  0.86634391  1
  V  V35  1  0.26993631  0.55107425  0.78515942  1
  V  V36  1  0.73761627  0.13297538  0.87398466  1
  V  V37  1  0.87851269  0.00369765  0.87689544  1
  V  V38  1  0.74672543  0.25793531  0.00850850  1
  V  V39  1  0.50515613  0.37438673  0.36973428  1
  V  V40  1  0.12585484  0.24247425  0.38010559  1
  V  V41  1  0.75007762  0.12564631  0.37626952  1
  V  V42  1  0.50124223  0.62217685  0.12671263  1
  V  V43  1  0.37439677  0.11681030  0.75201295  1
  V  V44  1  0.24576048  0.62364354  0.38534790  1
  V  V45  1  0.37387018  0.37145250  0.50299890  1
  V  V46  1  0.63163731  0.37518395  0.75985109  1
  V  V47  1  0.61978309  0.11909607  0.01198793  1
  V  V48  1  0.86427666  0.62415064  0.25211407  1
  V  V49  1  0.13141847  -0.00238520  0.61957662  1
  V  V50  1  0.87440146  0.87686922  -0.00080594  1
  V  V51  1  0.75732363  0.25470214  0.50340102  1
  V  V52  1  0.87371975  0.74449460  0.62441107  1
  V  V53  1  0.25200078  0.12029945  0.36650322  1
  V  V54  1  0.74554032  0.87478416  0.11979789  1
  V  V55  1  0.74678295  0.48454702  0.24883010  1
  V  V56  1  0.50520338  0.00127214  0.50252283  1
  V  V57  1  0.74803879  0.74497833  0.48585286  1
  V  V58  1  -0.00168647  0.74223396  0.24598962  1
  V  V59  1  0.62930920  0.76309823  0.85763279  1
  V  V60  1  0.75357316  0.37723516  0.62584539  1
  V  V61  1  0.12657314  -0.00102561  0.11622792  1
  V  V62  1  0.87563407  -0.00046386  0.37310556  1
  V  V63  1  0.00142913  0.24850203  0.24538944  1
  V  V64  1  0.25805544  0.12036069  0.88362683  1
  V  V65  1  0.12485056  0.74646238  0.38049995  1
  V  V66  1  0.13082609  0.13495618  0.00086005  1
  V  V67  1  0.37222180  0.74484725  0.12359487  1
  V  V68  1  0.24853469  0.87459159  0.12747351  1
  V  V69  1  0.24515820  0.50022351  0.25058898  1
  V  V70  1  0.50103261  0.50393670  0.50898043  1
  V  V71  1  0.00150292  0.75172631  0.75277517  1
  V  V72  1  0.25456949  0.37827015  0.11633636  1
  V  V73  1  0.37075207  0.24368911  0.11767558  1
  V  V74  1  0.00138606  0.11969999  0.11844988  1
  V  V75  1  0.90575029  0.40120625  -0.00113580  1
  V  V76  1  0.24943430  0.75516990  0.50730364  1
  V  V77  1  0.49267517  0.49506413  -0.00092140  1
  V  V78  1  0.37547395  0.25134435  0.62576115  1
  Zn  Zn79  1  0.63065840  0.12219698  0.50615883  1
  Zn  Zn80  1  0.37564577  0.62522399  0.25419925  1
  Zn  Zn81  1  0.48033215  0.87637658  0.85244493  1
  Zn  Zn82  1  0.49455168  0.11475142  0.14057615  1
  Zn  Zn83  1  0.49951771  -0.00219739  -0.00757446  1
  Zn  Zn84  1  0.24137816  0.24079462  0.50451338  1
  Zn  Zn85  1  0.00550601  0.00537006  0.49662295  1
  Zn  Zn86  1  0.61247807  -0.10947485  0.73696336  1
  Zn  Zn87  1  0.87586031  0.61984771  0.75380565  1
  Zn  Zn88  1  0.74650040  0.00913615  0.74448541  1
  Zn  Zn89  1  0.86707247  0.25828647  0.12465132  1
  Zn  Zn90  1  0.50200649  0.87293338  0.37578190  1
  Zn  Zn91  1  0.25753214  -0.00839602  0.74940373  1
  Zn  Zn92  1  0.48972417  0.24121390  0.25248753  1
  Zn  Zn93  1  0.88143121  0.25852409  0.62898748  1
  Zn  Zn94  1  0.19388734  0.18992638  0.18646949  1
  Zn  Zn95  1  0.19051730  0.18718729  0.68910580  1
  Zn  Zn96  1  0.18959985  0.68884736  0.19526090  1
  Zn  Zn97  1  0.19165869  0.68732129  0.69306268  1
  Zn  Zn98  1  0.68022109  0.18849459  0.18806662  1
  Zn  Zn99  1  0.68915650  0.19347546  0.69198186  1
  Zn  Zn100  1  0.68921295  0.68704997  0.18921944  1
  Zn  Zn101  1  0.69089497  0.69114711  0.68490873  1
  Zn  Zn102  1  0.31133218  0.30847139  0.30840859  1
  Zn  Zn103  1  0.30098294  0.30683468  0.81489949  1
  Zn  Zn104  1  0.31540045  0.81300776  0.31488649  1
  Zn  Zn105  1  0.30711065  0.76599562  0.81249441  1
  Zn  Zn106  1  0.81279095  0.31029317  0.31456305  1
  Zn  Zn107  1  0.81728165  0.31840892  0.82422099  1
  Zn  Zn108  1  0.81235419  0.81466476  0.30781725  1
  Zn  Zn109  1  0.80960978  0.80635257  0.81629682  1
  Zn  Zn110  1  0.18793971  0.42933862  0.44004703  1
  Zn  Zn111  1  0.19598464  0.44309330  0.92074845  1
  Zn  Zn112  1  0.19075235  0.93899644  0.43471889  1
  Zn  Zn113  1  0.19564918  0.93525738  0.93682754  1
  Zn  Zn114  1  0.68882355  0.43833586  0.44182996  1
  Zn  Zn115  1  0.68423148  0.44118490  0.94214845  1
  Zn  Zn116  1  0.68938571  0.93510670  0.43561064  1
  Zn  Zn117  1  0.69112072  0.94401749  0.93420604  1
  Zn  Zn118  1  0.33097785  0.04858055  0.06942043  1
  Zn  Zn119  1  0.31315004  0.06523177  0.55557078  1
  Zn  Zn120  1  0.30789559  0.55995168  0.05912176  1
  Zn  Zn121  1  0.30936480  0.56299679  0.57172651  1
  Zn  Zn122  1  0.81337376  0.06421026  0.05840368  1
  Zn  Zn123  1  0.81940211  0.06631416  0.56249783  1
  Zn  Zn124  1  0.81254354  0.55836631  0.06446861  1
  Zn  Zn125  1  0.81138708  0.56211900  0.56133193  1
  Zn  Zn126  1  0.43366138  0.43261023  0.18701791  1
  Zn  Zn127  1  0.43010722  0.44479367  0.69444223  1
  Zn  Zn128  1  0.44203837  0.93553421  0.17522871  1
  Zn  Zn129  1  0.43759972  0.93339726  0.68166059  1
  Zn  Zn130  1  0.91806411  0.42285807  0.19669698  1
  Zn  Zn131  1  0.93875727  0.44596536  0.67767835  1
  Zn  Zn132  1  0.93826118  0.93668112  0.18603689  1
  Zn  Zn133  1  0.93770250  0.94555965  0.69016405  1
  Zn  Zn134  1  0.06553187  0.06164257  0.30988943  1
  Zn  Zn135  1  0.06874223  0.06249564  0.81330226  1
  Zn  Zn136  1  0.05839802  0.56312735  0.31455347  1
  Zn  Zn137  1  0.07310605  0.54959292  0.79229399  1
  Zn  Zn138  1  0.56546202  0.06396779  0.31723091  1
  Zn  Zn139  1  0.55916027  0.04913703  0.81262299  1
  Zn  Zn140  1  0.56302589  0.55535290  0.30930175  1
  Zn  Zn141  1  0.56789001  0.56061640  0.82275249  1
  Zn  Zn142  1  0.43746649  0.18350777  0.43536980  1
  Zn  Zn143  1  0.43523967  0.19360101  0.93993365  1
  Zn  Zn144  1  0.43636906  0.68581050  0.44403244  1
  Zn  Zn145  1  0.45351698  0.69811710  0.94239702  1
  Zn  Zn146  1  0.93624026  0.18855281  0.43821175  1
  Zn  Zn147  1  0.93855610  0.20025343  0.93927448  1
  Zn  Zn148  1  0.93603324  0.68508955  0.43537315  1
  Zn  Zn149  1  0.93598091  0.68937766  0.93781695  1
  Zn  Zn150  1  0.06923522  0.31591933  0.05882345  1
  Zn  Zn151  1  0.05872267  0.31324230  0.56170753  1
  Zn  Zn152  1  0.05460920  0.81507429  0.06207428  1
  Zn  Zn153  1  0.06426091  0.81490479  0.56566591  1
  Zn  Zn154  1  0.55576079  0.29983015  0.05529859  1
  Zn  Zn155  1  0.56767857  0.31447209  0.56305162  1
  Zn  Zn156  1  0.55905576  0.81595658  0.06657318  1
  Zn  Zn157  1  0.56341120  0.81223769  0.55712895  1
  O  O158  1  0.12497623  0.11745775  0.12120715  1
  O  O159  1  0.11246076  0.11460464  0.63183140  1
  O  O160  1  0.11736746  0.61266209  0.11346681  1
  O  O161  1  0.11516764  0.63368770  0.62349013  1
  O  O162  1  0.61933667  0.12058493  0.11518316  1
  O  O163  1  0.61143226  0.13491399  0.62692011  1
  O  O164  1  0.61778672  0.62163240  0.11859959  1
  O  O165  1  0.62672761  0.61107943  0.62852429  1
  O  O166  1  0.38046088  0.38094454  0.38518853  1
  O  O167  1  0.38047787  0.37455972  0.87123271  1
  O  O168  1  0.37615238  0.88727400  0.38081738  1
  O  O169  1  0.37077024  0.84232213  0.88832076  1
  O  O170  1  0.88731082  0.38433316  0.36694807  1
  O  O171  1  0.87149476  0.37134098  0.90677987  1
  O  O172  1  0.87951112  0.87829968  0.38061241  1
  O  O173  1  0.87656905  0.88231581  0.87990866  1
  O  O174  1  0.26179367  0.00883198  0.37506212  1
  O  O175  1  0.24109868  0.01523451  0.86514361  1
  O  O176  1  0.25627710  0.50370787  0.37404341  1
  O  O177  1  0.27049282  0.51986049  0.88221089  1
  O  O178  1  0.75595039  0.00457759  0.36566018  1
  O  O179  1  0.76279601  0.01833726  0.87516700  1
  O  O180  1  0.75990801  0.49038648  0.36704601  1
  O  O181  1  0.73658664  0.52014040  0.88008472  1
  O  O182  1  0.25602587  0.49513576  0.14357976  1
  O  O183  1  0.24579059  0.48000584  0.60823026  1
  O  O184  1  0.24420882  0.98216933  0.12239912  1
  O  O185  1  0.23499456  1.00952041  0.62668470  1
  O  O186  1  0.73426204  0.49898310  0.12965006  1
  O  O187  1  0.73711884  0.49344842  0.62248586  1
  O  O188  1  0.75864674  0.99095320  0.13445630  1
  O  O189  1  0.76064068  0.98386099  0.62046652  1
  O  O190  1  0.00426140  0.36868147  0.25615018  1
  O  O191  1  0.00056445  0.45085065  0.78186889  1
  O  O192  1  0.00683461  0.86562626  0.25464472  1
  O  O193  1  0.00235056  0.86976408  0.75468302  1
  O  O194  1  0.49713676  0.37887815  0.26786583  1
  O  O195  1  0.50181560  0.37321203  0.76044061  1
  O  O196  1  0.50901996  0.86789602  0.24261226  1
  O  O197  1  0.50277604  0.86967737  0.74258996  1
  O  O198  1  0.50516677  0.12833830  0.25114228  1
  O  O199  1  0.49407483  0.13327029  0.74662609  1
  O  O200  1  0.50103418  0.62959944  0.24227757  1
  O  O201  1  0.47430379  0.63061477  0.78804947  1
  O  O202  1  0.99744741  0.13156512  0.24308963  1
  O  O203  1  0.99082215  0.12155185  0.74301888  1
  O  O204  1  0.98952259  0.63573530  0.25370168  1
  O  O205  1  1.00229012  0.63143580  0.73698767  1
  O  O206  1  0.37569446  0.25379763  0.01544367  1
  O  O207  1  0.38285906  0.25833949  0.51008388  1
  O  O208  1  0.37140393  0.74662259  0.01286698  1
  O  O209  1  0.36827299  0.75826885  0.50248446  1
  O  O210  1  0.85716966  0.24316499  0.00606903  1
  O  O211  1  0.86237253  0.24976302  0.50347619  1
  O  O212  1  0.88200645  0.75945209  0.01081859  1
  O  O213  1  0.86938396  0.75443039  0.50485887  1
  O  O214  1  0.12173215  0.25355966  0.48362663  1
  O  O215  1  0.13397738  0.23639806  1.00396814  1
  O  O216  1  0.13183694  0.76126898  0.48706591  1
  O  O217  1  0.12536197  0.74314069  1.01413985  1
  O  O218  1  0.63732240  0.24839287  0.49423441  1
  O  O219  1  0.63658625  0.23332900  1.00176566  1
  O  O220  1  0.63060031  0.73393633  0.49882292  1
  O  O221  1  0.62595255  0.73864615  1.00924827  1
  O  O222  1  0.48577137  0.24197698  0.12602568  1
  O  O223  1  0.49310520  0.24711904  0.63388317  1
  O  O224  1  0.49220783  0.74015750  0.13263817  1
  O  O225  1  0.49180924  0.74683872  0.61406001  1
  O  O226  1  1.00646287  0.24151587  0.13638529  1
  O  O227  1  0.99851819  0.23623754  0.62250144  1
  O  O228  1  0.98706887  0.75708251  0.13735020  1
  O  O229  1  0.99361833  0.74117084  0.62760866  1
  O  O230  1  0.00333623  0.25417005  0.36668424  1
  O  O231  1  0.02150892  0.25062175  0.88358778  1
  O  O232  1  0.00630196  0.75418329  0.36814929  1
  O  O233  1  -0.00935273  0.76402251  0.86115249  1
  O  O234  1  0.50772765  0.25820898  0.37889210  1
  O  O235  1  0.49407194  0.26434640  0.86513297  1
  O  O236  1  0.48840941  0.75042578  0.35920892  1
  O  O237  1  0.52752104  0.76728820  0.88848373  1
  O  O238  1  0.25671333  0.12982078  0.48081745  1
  O  O239  1  0.24808467  0.11429056  0.98827402  1
  O  O240  1  0.25209839  0.63244860  0.48911797  1
  O  O241  1  0.24250649  0.63409913  1.00927943  1
  O  O242  1  0.75163753  0.13280318  0.49603580  1
  O  O243  1  0.73988271  0.12727108  0.99106128  1
  O  O244  1  0.73616956  0.62988764  0.50329856  1
  O  O245  1  0.73653325  0.62236020  0.99943363  1
  O  O246  1  0.23081655  0.39860389  0.02184768  1
  O  O247  1  0.26195285  0.36494248  0.50395804  1
  O  O248  1  0.25140249  0.85572458  0.01017115  1
  O  O249  1  0.25995498  0.86592764  0.49009811  1
  O  O250  1  0.73737748  0.35771410  -0.00170371  1
  O  O251  1  0.74627881  0.36866728  0.51474972  1
  O  O252  1  0.76129473  0.88118208  0.00860996  1
  O  O253  1  0.75897907  0.86681225  0.50474027  1
  O  O254  1  0.13318894  0.49176986  0.26253110  1
  O  O255  1  0.17562063  0.52776824  0.75006625  1
  O  O256  1  0.12371303  0.98605582  0.24111202  1
  O  O257  1  0.12557136  0.98957810  0.73962354  1
  O  O258  1  0.63177377  0.49854165  0.23717007  1
  O  O259  1  0.61563949  0.49064384  0.74044283  1
  O  O260  1  0.63726396  0.99238660  0.25260088  1
  O  O261  1  0.63505378  1.00141782  0.74560515  1
  O  O262  1  0.37911134  -0.00981956  0.26085432  1
  O  O263  1  0.37484106  0.01278908  0.73984030  1
  O  O264  1  0.36742542  0.49858053  0.26456858  1
  O  O265  1  0.35263982  0.51384735  0.73577288  1
  O  O266  1  0.86727251  0.00318007  0.25441146  1
  O  O267  1  0.86778046  0.01273922  0.75848871  1
  O  O268  1  0.86822906  0.50638606  0.25519577  1
  O  O269  1  0.87500367  0.49993995  0.76747412  1
  O  O270  1  0.11544039  0.36593840  0.36656836  1
  O  O271  1  0.14963126  0.35293846  0.87082262  1
  O  O272  1  0.12240944  0.86822322  0.36589284  1
  O  O273  1  0.11352531  0.88641220  0.86182384  1
  O  O274  1  0.61529111  0.36863565  0.38668303  1
  O  O275  1  0.62146027  0.38123973  0.86043214  1
  O  O276  1  0.62306514  0.87547447  0.35900594  1
  O  O277  1  0.64782373  0.86597779  0.86271254  1
  O  O278  1  0.35295417  0.14364666  0.12786974  1
  O  O279  1  0.38347392  0.13471417  0.63079208  1
  O  O280  1  0.38598133  0.62752551  0.12823060  1
  O  O281  1  0.37461109  0.64077491  0.61608003  1
  O  O282  1  0.88658843  0.12339878  0.12955158  1
  O  O283  1  0.88331268  0.12646929  0.64098396  1
  O  O284  1  0.86860232  0.63583284  0.13431988  1
  O  O285  1  0.87824731  0.63382853  0.62779417  1
  O  O286  1  0.25414406  0.26990741  0.12803972  1
  O  O287  1  0.26198035  0.25462503  0.62278395  1
  O  O288  1  0.25435627  0.75136053  0.12144561  1
  O  O289  1  0.24980039  0.74635341  0.60862951  1
  O  O290  1  0.74833438  0.24336444  0.11458908  1
  O  O291  1  0.75233067  0.25895822  0.62009541  1
  O  O292  1  0.76175381  0.76255393  0.13310002  1
  O  O293  1  0.75946370  0.75608477  0.61346215  1
  O  O294  1  0.24257708  0.24153044  0.37430162  1
  O  O295  1  0.23896256  0.22738535  0.86977136  1
  O  O296  1  0.24410817  0.74215375  0.38005679  1
  O  O297  1  0.23375487  0.75056366  0.89726358  1
  O  O298  1  0.74625837  0.24799385  0.38355429  1
  O  O299  1  0.75476361  0.23670929  0.88706679  1
  O  O300  1  0.75603241  0.75285380  0.38639917  1
  O  O301  1  0.73661737  0.73771609  0.87629079  1
  O  O302  1  0.01090017  0.13160765  0.01354848  1
  O  O303  1  -0.01046883  0.12173666  0.51629726  1
  O  O304  1  0.05949676  0.56199160  -0.04026516  1
  O  O305  1  -0.00098324  0.62338291  0.51092255  1
  O  O306  1  0.51748641  0.12913108  -0.01058660  1
  O  O307  1  0.50081677  0.11893682  0.50915993  1
  O  O308  1  0.51202402  0.61808872  0.00922070  1
  O  O309  1  0.51441428  0.61494501  0.49445324  1
  O  O310  1  0.49327786  0.38415263  0.49542973  1
  O  O311  1  0.50519782  0.37784669  0.98298800  1
  O  O312  1  0.49338859  0.88320075  0.49532663  1
  O  O313  1  0.47720482  0.87304458  1.00936240  1
  O  O314  1  1.00064831  0.38427478  0.48929712  1
  O  O315  1  1.00635057  0.38617141  0.99890061  1
  O  O316  1  0.98906535  0.87207590  0.49419408  1
  O  O317  1  0.98907116  0.87338948  0.98693486  1
  O  O318  1  0.49343968  0.49469585  0.38480252  1
  O  O319  1  0.50226548  0.48646104  0.88305202  1
  O  O320  1  0.48705174  1.00106423  0.38224990  1
  O  O321  1  0.49742447  0.98607104  0.88059012  1
  O  O322  1  0.99082530  0.49385717  0.37938243  1
  O  O323  1  0.93536164  0.48529117  0.82367572  1
  O  O324  1  0.99551390  0.99382337  0.37512380  1
  O  O325  1  0.98898911  0.99077224  0.86474396  1
  O  O326  1  0.01159860  0.00964620  0.13148980  1
  O  O327  1  0.00749257  0.01066379  0.62305185  1
  O  O328  1  0.06152824  0.56515388  0.12579716  1
  O  O329  1  0.00014828  0.51634241  0.61441826  1
  O  O330  1  0.45334463  0.01757215  0.09763016  1
  O  O331  1  0.49400450  0.01206378  0.61389354  1
  O  O332  1  0.50927839  0.50438705  0.12493421  1
  O  O333  1  0.51180733  0.49196805  0.61651368  1
  O  O334  1  0.24140843  0.38432579  0.24923151  1
  O  O335  1  0.25696613  0.37225435  0.73228911  1
  O  O336  1  0.23798644  0.86117979  0.24008379  1
  O  O337  1  0.23399090  0.86982435  0.75753245  1
  O  O338  1  0.76147324  0.38475822  0.24310379  1
  O  O339  1  0.73632973  0.36654657  0.74852770  1
  O  O340  1  0.74466981  0.88182595  0.24192932  1
  O  O341  1  0.75886963  0.87090100  0.73075830  1
  O  O342  1  0.24880728  0.12808974  0.26536141  1
  O  O343  1  0.26252495  0.12323884  0.75528503  1
  O  O344  1  0.25167507  0.61724581  0.26326317  1
  O  O345  1  0.26480599  0.65689143  0.77320800  1
  O  O346  1  0.75415453  0.11837213  0.25353971  1
  O  O347  1  0.76038359  0.13274843  0.76245048  1
  O  O348  1  0.75857436  0.61365160  0.24776286  1
  O  O349  1  0.75113615  0.62641018  0.76106243  1
  O  O350  1  0.36836866  0.11324050  0.37184212  1
  O  O351  1  0.36558226  0.12977398  0.86888755  1
  O  O352  1  0.36719066  0.61371586  0.37760418  1
  O  O353  1  0.42007505  0.63598130  0.84353010  1
  O  O354  1  0.87047222  0.12057339  0.36692390  1
  O  O355  1  0.87906137  0.12191482  0.86728520  1
  O  O356  1  0.87743283  0.61434984  0.36456548  1
  O  O357  1  0.85689353  0.63319706  0.87667557  1
  O  O358  1  0.13223239  0.37085009  0.14245167  1
  O  O359  1  0.13701528  0.36430393  0.62376370  1
  O  O360  1  0.12769339  0.88001810  0.12978715  1
  O  O361  1  0.11805113  0.88785646  0.63778009  1
  O  O362  1  0.61525682  0.38368864  0.11982175  1
  O  O363  1  0.63323577  0.38447862  0.63525007  1
  O  O364  1  0.63655411  0.87276083  0.13234258  1
  O  O365  1  0.64427891  0.86706224  0.61956713  1
  O  O366  1  0.11683456  0.25582025  0.25900682  1
  O  O367  1  0.11891148  0.24192007  0.75708540  1
  O  O368  1  0.11609928  0.75585928  0.25668349  1
  O  O369  1  0.11273262  0.76570655  0.74014028  1
  O  O370  1  0.62807656  0.25188549  0.26848167  1
  O  O371  1  0.61173538  0.26621197  0.74460687  1
  O  O372  1  0.61522698  0.75716482  0.24366490  1
  O  O373  1  0.62436146  0.75158176  0.75635244  1
  O  O374  1  0.37830000  0.26646533  0.23083332  1
  O  O375  1  0.38316896  0.24307085  0.74294533  1
  O  O376  1  0.38114548  0.74870407  0.23861583  1
  O  O377  1  0.37532229  0.76466133  0.72417102  1
  O  O378  1  0.88506575  0.24520304  0.24628687  1
  O  O379  1  0.87597289  0.23973485  0.75532436  1
  O  O380  1  0.87922015  0.74334445  0.24557256  1
  O  O381  1  0.88447026  0.74908865  0.73956886  1
  O  O382  1  0.38199020  0.49314591  0.49576302  1
  O  O383  1  0.39399888  0.50495335  1.00957549  1
  O  O384  1  0.38310182  0.99349639  0.49392732  1
  O  O385  1  0.35083522  0.96956824  0.98451325  1
  O  O386  1  0.88363076  0.50725291  0.48843161  1
  O  O387  1  0.88906381  0.50191936  1.00473184  1
  O  O388  1  0.87606963  0.98851195  0.49255543  1
  O  O389  1  0.87490305  0.99145747  0.98917266  1
  O  O390  1  0.12947267  0.00507211  0.01185325  1
  O  O391  1  0.12278283  -0.01083172  0.51431866  1
  O  O392  1  0.09310747  0.50911784  -0.09263587  1
  O  O393  1  0.11174016  0.50154614  0.48698989  1
  O  O394  1  0.62579341  0.01431341  -0.00366727  1
  O  O395  1  0.61052932  0.00052192  0.49031582  1
  O  O396  1  0.61631912  0.50732069  0.01432336  1
  O  O397  1  0.62112624  0.51046703  0.50990195  1
  O  O398  1  0.35958664  0.37709607  0.11938556  1
  O  O399  1  0.37449588  0.36795800  0.61814617  1
  O  O400  1  0.36372128  0.86236102  0.11766954  1
  O  O401  1  0.37500309  0.86815728  0.60709388  1
  O  O402  1  0.88318573  0.37308751  0.10386896  1
  O  O403  1  0.86138938  0.37497803  0.64072627  1
  O  O404  1  0.86956699  0.87000183  0.11765653  1
  O  O405  1  0.87278385  0.86505195  0.61532258  1
  O  O406  1  0.13560257  0.12935938  0.37131650  1
  O  O407  1  0.13165554  0.12944774  0.88426172  1
  O  O408  1  0.13144693  0.63716600  0.36978986  1
  O  O409  1  0.03301400  0.62585871  0.91833642  1
  O  O410  1  0.63447547  0.13515512  0.38170842  1
  O  O411  1  0.63738094  0.12613501  0.87342871  1
  O  O412  1  0.62888183  0.61683637  0.38298101  1
  O  O413  1  0.62882143  0.63696352  0.88809891  1
