# generated using pymatgen
data_V79Zn79O256
_symmetry_space_group_name_H-M   'P 1'
_cell_length_a   16.86257769
_cell_length_b   16.85938009
_cell_length_c   16.86917905
_cell_angle_alpha   89.93620380
_cell_angle_beta   90.01335574
_cell_angle_gamma   90.05847509
_symmetry_Int_Tables_number   1
_chemical_formula_structural   V79Zn79O256
_chemical_formula_sum   'V79 Zn79 O256'
_cell_volume   4795.77728238
_cell_formula_units_Z   1
loop_
 _symmetry_equiv_pos_site_id
 _symmetry_equiv_pos_as_xyz
  1  'x, y, z'
loop_
 _atom_site_type_symbol
 _atom_site_label
 _atom_site_symmetry_multiplicity
 _atom_site_fract_x
 _atom_site_fract_y
 _atom_site_fract_z
 _atom_site_occupancy
  V  V0  1  0.75586183  0.12330833  0.87345215  1
  V  V1  1  0.48891889  0.62421639  0.62766076  1
  V  V2  1  0.00357306  0.76360456  0.76351191  1
  V  V3  1  0.12283424  0.24760317  0.36992051  1
  V  V4  1  0.88411124  0.74177740  0.12762026  1
  V  V5  1  0.75148191  0.74984229  0.50206297  1
  V  V6  1  -0.00422683  0.12876240  0.63031505  1
  V  V7  1  -0.00427455  0.50106052  -0.00309171  1
  V  V8  1  0.63098396  0.74401302  0.37653758  1
  V  V9  1  -0.00446186  0.37442003  0.38573436  1
  V  V10  1  0.11974495  0.37422626  0.74742263  1
  V  V11  1  0.75296683  0.49537534  0.74839179  1
  V  V12  1  0.24313489  0.64283496  0.87188426  1
  V  V13  1  0.11665396  0.63762156  -0.00956327  1
  V  V14  1  0.62483764  0.00069538  0.12632553  1
  V  V15  1  0.76982520  0.37159258  0.62024058  1
  V  V16  1  0.36427835  0.62568767  0.24684155  1
  V  V17  1  0.24490747  0.50267852  0.74980350  1
  V  V18  1  0.11787605  0.37185943  0.24761401  1
  V  V19  1  0.24856008  0.37777334  0.62141447  1
  V  V20  1  0.00814581  0.62214469  0.61742360  1
  V  V21  1  0.62705787  0.49045823  0.62165775  1
  V  V22  1  0.36962631  -0.00240766  0.37462267  1
  V  V23  1  0.76638445  0.25117952  0.50284894  1
  V  V24  1  0.14418428  0.87775390  0.23872027  1
  V  V25  1  0.50649152  0.87482570  0.86730857  1
  V  V26  1  0.75305097  0.62015074  0.87206960  1
  V  V27  1  0.62515676  0.87362913  0.24935644  1
  V  V28  1  0.36507769  0.86081204  0.01156363  1
  V  V29  1  0.14011380  0.00001899  0.62868249  1
  V  V30  1  0.50073049  0.12553998  0.12630806  1
  V  V31  1  0.24899539  0.12188166  0.37475676  1
  V  V32  1  0.75153686  0.12293760  0.37746470  1
  V  V33  1  0.11894557  0.24759523  0.87553819  1
  V  V34  1  0.87570682  0.62434084  0.74849840  1
  V  V35  1  0.37070333  0.12021074  0.25019879  1
  V  V36  1  0.74751697  0.25447140  0.00786390  1
  V  V37  1  -0.00856167  0.37473411  0.87221632  1
  V  V38  1  0.36666332  0.50556720  0.87558368  1
  V  V39  1  0.63747167  0.37710775  0.24776346  1
  V  V40  1  0.87934995  0.76767834  0.62212059  1
  V  V41  1  0.36908506  0.49502954  0.37264168  1
  V  V42  1  0.49917859  0.12693498  0.64105594  1
  V  V43  1  0.49686958  -0.00046902  0.00308707  1
  V  V44  1  0.50108306  0.25082994  0.24969003  1
  V  V45  1  0.84103256  0.54325705  0.36598906  1
  V  V46  1  0.63470690  0.49636988  0.12757281  1
  V  V47  1  0.49488908  0.37342594  0.37824225  1
  V  V48  1  0.13058070  0.74577426  0.38580333  1
  V  V49  1  0.50037851  0.63091307  0.12859144  1
  V  V50  1  0.75418583  0.87292417  0.12133385  1
  V  V51  1  0.00140762  0.87083383  0.37471587  1
  V  V52  1  0.37325365  0.25338033  0.12484966  1
  V  V53  1  0.62621247  0.24808063  0.38061605  1
  V  V54  1  0.25316730  0.85936558  0.63375772  1
  V  V55  1  0.48943221  0.50040624  0.00084495  1
  V  V56  1  0.62104805  0.25948426  0.86428267  1
  V  V57  1  0.49699321  0.49672127  0.49773745  1
  V  V58  1  0.87155566  0.37835626  0.00668161  1
  V  V59  1  0.88746390  0.12605193  0.25115049  1
  V  V60  1  0.88525022  0.88897544  -0.01273551  1
  V  V61  1  0.50058394  0.87139152  0.37708567  1
  V  V62  1  0.26069347  0.25426945  0.49705840  1
  V  V63  1  0.75251211  -0.00054674  0.25051480  1
  V  V64  1  0.50495253  0.00388647  0.50427865  1
  V  V65  1  0.37709070  0.25047462  0.64535439  1
  V  V66  1  0.74519047  -0.00483694  0.74800760  1
  V  V67  1  0.25132623  0.12648799  0.86017591  1
  V  V68  1  0.11717124  0.50940541  0.12740061  1
  V  V69  1  0.24501588  0.24389906  0.00201933  1
  V  V70  1  0.24433183  0.62095969  0.39016563  1
  V  V71  1  0.87884665  -0.00901592  0.38131898  1
  V  V72  1  0.24690108  0.38409261  0.12724368  1
  V  V73  1  0.88191896  0.25280540  0.13018428  1
  V  V74  1  0.36845387  0.86137214  0.50456544  1
  V  V75  1  0.00739283  0.11174021  0.10798864  1
  V  V76  1  0.37265744  0.00553847  0.86508487  1
  V  V77  1  0.62365001  0.62530589  -0.00959430  1
  V  V78  1  0.72590907  0.87784949  0.62746816  1
  Zn  Zn79  1  0.49922091  0.74523055  0.74269848  1
  Zn  Zn80  1  0.00606814  0.73678787  0.24597610  1
  Zn  Zn81  1  0.88076825  0.13260380  0.75120741  1
  Zn  Zn82  1  0.75092273  0.75140916  -0.00547394  1
  Zn  Zn83  1  0.37038028  0.37812695  -0.00008096  1
  Zn  Zn84  1  0.49203108  0.36346644  0.85855759  1
  Zn  Zn85  1  0.00079910  0.50365303  0.49618611  1
  Zn  Zn86  1  0.62362246  0.12928741  -0.00000215  1
  Zn  Zn87  1  0.12528619  0.12083755  0.50014578  1
  Zn  Zn88  1  0.00027800  -0.00838213  0.50634365  1
  Zn  Zn89  1  0.49850136  0.75028283  0.24557742  1
  Zn  Zn90  1  0.62848093  0.11998579  0.51199938  1
  Zn  Zn91  1  0.63152832  0.61865629  0.49495111  1
  Zn  Zn92  1  0.13167385  0.87603897  0.76779110  1
  Zn  Zn93  1  0.62809814  0.75685358  0.86185241  1
  Zn  Zn94  1  0.18512768  0.18602067  0.18638940  1
  Zn  Zn95  1  0.18457774  0.19157872  0.68648416  1
  Zn  Zn96  1  0.18917031  0.69843482  0.18702669  1
  Zn  Zn97  1  0.18411127  0.69132763  0.69197447  1
  Zn  Zn98  1  0.69116166  0.18753393  0.19079223  1
  Zn  Zn99  1  0.68807431  0.19265391  0.68956333  1
  Zn  Zn100  1  0.69370955  0.68473510  0.19148247  1
  Zn  Zn101  1  0.67631000  0.67947497  0.68738913  1
  Zn  Zn102  1  0.30796544  0.31293203  0.30632176  1
  Zn  Zn103  1  0.30739641  0.31916764  0.81592276  1
  Zn  Zn104  1  0.31248239  0.80491498  0.31361180  1
  Zn  Zn105  1  0.32589540  0.81510912  0.81296719  1
  Zn  Zn106  1  0.81543404  0.31038496  0.31386707  1
  Zn  Zn107  1  0.81238028  0.30825980  0.81247683  1
  Zn  Zn108  1  0.81464443  0.80530003  0.31076746  1
  Zn  Zn109  1  0.81157511  0.81053680  0.81081235  1
  Zn  Zn110  1  0.17872660  0.43946779  0.44096877  1
  Zn  Zn111  1  0.18245496  0.43676360  0.93977691  1
  Zn  Zn112  1  0.18456515  0.93184687  0.44021008  1
  Zn  Zn113  1  0.19587048  0.94440335  0.94914095  1
  Zn  Zn114  1  0.69021430  0.43369444  0.43743425  1
  Zn  Zn115  1  0.68710831  0.44012696  0.93811215  1
  Zn  Zn116  1  0.69022367  0.93348922  0.43975470  1
  Zn  Zn117  1  0.68965173  0.94299564  0.93981976  1
  Zn  Zn118  1  0.31662579  0.06551626  0.05625102  1
  Zn  Zn119  1  0.31880554  0.06412133  0.56283536  1
  Zn  Zn120  1  0.29840441  0.58747135  0.06714618  1
  Zn  Zn121  1  0.31013993  0.55566952  0.56035601  1
  Zn  Zn122  1  0.81675056  0.06577106  0.06208333  1
  Zn  Zn123  1  0.81258542  0.05923880  0.56456989  1
  Zn  Zn124  1  0.81111864  0.56337534  0.06358869  1
  Zn  Zn125  1  0.82415575  0.56285460  0.55575842  1
  Zn  Zn126  1  0.44042082  0.44070521  0.18969104  1
  Zn  Zn127  1  0.43027259  0.43869741  0.68835925  1
  Zn  Zn128  1  0.43358025  0.93345317  0.18841117  1
  Zn  Zn129  1  0.43614425  0.93926981  0.68531318  1
  Zn  Zn130  1  0.93375600  0.44723871  0.19646787  1
  Zn  Zn131  1  0.93981460  0.43819421  0.68639950  1
  Zn  Zn132  1  0.94483337  0.93089483  0.19000035  1
  Zn  Zn133  1  0.93822908  0.95292640  0.69849570  1
  Zn  Zn134  1  0.06633567  0.05330621  0.30537638  1
  Zn  Zn135  1  0.07187693  0.05938324  0.80815627  1
  Zn  Zn136  1  0.05939389  0.56144393  0.31111337  1
  Zn  Zn137  1  0.05840361  0.56253479  0.80967130  1
  Zn  Zn138  1  0.56132738  0.06114407  0.31439522  1
  Zn  Zn139  1  0.56859593  0.06565414  0.81578616  1
  Zn  Zn140  1  0.56476327  0.56063055  0.31020498  1
  Zn  Zn141  1  0.54835040  0.52764580  0.79559423  1
  Zn  Zn142  1  0.43845354  0.18631256  0.44073211  1
  Zn  Zn143  1  0.43510912  0.18926226  0.93744316  1
  Zn  Zn144  1  0.43733820  0.68046468  0.43799600  1
  Zn  Zn145  1  0.43558577  0.68570311  0.93199701  1
  Zn  Zn146  1  0.94487420  0.17896932  0.44063225  1
  Zn  Zn147  1  0.93736909  0.18933399  0.94215565  1
  Zn  Zn148  1  0.93538888  0.69201043  0.43553937  1
  Zn  Zn149  1  0.93116583  0.69454764  0.94293084  1
  Zn  Zn150  1  0.05996706  0.31030759  0.06142697  1
  Zn  Zn151  1  0.06780729  0.30718240  0.55808256  1
  Zn  Zn152  1  0.06091043  0.82236867  0.06052817  1
  Zn  Zn153  1  0.06574428  0.81227499  0.56424769  1
  Zn  Zn154  1  0.56014974  0.31707984  0.05891102  1
  Zn  Zn155  1  0.56206724  0.31037509  0.56737083  1
  Zn  Zn156  1  0.56230325  0.81219838  0.05501446  1
  Zn  Zn157  1  0.55811828  0.80838187  0.55887051  1
  O  O158  1  0.10524070  0.13285964  0.12985679  1
  O  O159  1  0.12638388  0.11138870  0.62676571  1
  O  O160  1  0.12411132  0.61209939  0.11006350  1
  O  O161  1  0.10688411  0.63138862  0.63212223  1
  O  O162  1  0.61821817  0.11895483  0.12776037  1
  O  O163  1  0.60450666  0.14103815  0.62544338  1
  O  O164  1  0.61958956  0.61335780  0.11655726  1
  O  O165  1  0.61819664  0.60714587  0.61518601  1
  O  O166  1  0.38484500  0.38052463  0.36266737  1
  O  O167  1  0.37427724  0.38903931  0.87975015  1
  O  O168  1  0.38030071  0.87888555  0.38352612  1
  O  O169  1  0.38392853  0.89057611  0.88561930  1
  O  O170  1  0.89676735  0.36232927  0.37209192  1
  O  O171  1  0.88346702  0.36735829  0.88796971  1
  O  O172  1  0.88629697  0.88090495  0.36529248  1
  O  O173  1  0.86409321  0.87287180  0.88877259  1
  O  O174  1  0.26093835  0.00747351  0.38275142  1
  O  O175  1  0.26041806  0.01556816  0.88125028  1
  O  O176  1  0.25731332  0.50743972  0.37985820  1
  O  O177  1  0.25110476  0.50084069  0.86926257  1
  O  O178  1  0.75700757  0.00090785  0.37083230  1
  O  O179  1  0.74496850  0.01620851  0.86913986  1
  O  O180  1  0.74280754  0.51616587  0.38075715  1
  O  O181  1  0.74683914  0.50774701  0.86258271  1
  O  O182  1  0.23263245  0.49142028  0.11174205  1
  O  O183  1  0.25530455  0.48817228  0.63475114  1
  O  O184  1  0.22032035  1.00821829  0.10371672  1
  O  O185  1  0.24508353  0.99555870  0.62051896  1
  O  O186  1  0.73354184  0.49726264  0.11723075  1
  O  O187  1  0.74970345  0.48849277  0.62125480  1
  O  O188  1  0.74486464  0.99494487  0.13116341  1
  O  O189  1  0.74784562  0.98758883  0.63198293  1
  O  O190  1  0.01326435  0.37516342  0.25743372  1
  O  O191  1  0.00705899  0.38167255  0.75900529  1
  O  O192  1  0.01269375  0.86678288  0.26128119  1
  O  O193  1  -0.00453513  0.86597306  0.75161677  1
  O  O194  1  0.50896691  0.36935211  0.25889355  1
  O  O195  1  0.50946393  0.42068583  0.76435644  1
  O  O196  1  0.50337203  0.87259012  0.26117386  1
  O  O197  1  0.49816189  0.88537336  0.76598487  1
  O  O198  1  0.49115558  0.12986682  0.24712422  1
  O  O199  1  0.49769280  0.12006626  0.74001338  1
  O  O200  1  0.49696927  0.62649167  0.24308672  1
  O  O201  1  0.50239474  0.61263200  0.72956230  1
  O  O202  1  0.98933299  0.12331099  0.25170446  1
  O  O203  1  1.00063728  0.11369786  0.73808939  1
  O  O204  1  1.00277385  0.62410357  0.24245290  1
  O  O205  1  0.99229234  0.63453260  0.74289266  1
  O  O206  1  0.36640300  0.25420863  0.00767621  1
  O  O207  1  0.36416160  0.25175190  0.49878177  1
  O  O208  1  0.38280052  0.76250849  -0.00229373  1
  O  O209  1  0.37963118  0.76296405  0.49504914  1
  O  O210  1  0.86724533  0.25873228  0.00980672  1
  O  O211  1  0.86494697  0.24349757  0.49539625  1
  O  O212  1  0.86870957  0.76367686  0.01096874  1
  O  O213  1  0.86827443  0.75376174  0.51619476  1
  O  O214  1  0.14140693  0.24300922  0.48812874  1
  O  O215  1  0.13356862  0.25682420  0.98752797  1
  O  O216  1  0.12675915  0.75033582  0.48520223  1
  O  O217  1  0.11195668  0.73563534  1.00001323  1
  O  O218  1  0.62884038  0.25004073  0.48791398  1
  O  O219  1  0.63498635  0.25057921  1.00194442  1
  O  O220  1  0.63286324  0.75026321  0.49189272  1
  O  O221  1  0.62723970  0.73663402  0.99295898  1
  O  O222  1  0.49406419  0.24664900  0.12934697  1
  O  O223  1  0.48436932  0.24570091  0.62389644  1
  O  O224  1  0.50848567  0.73621625  0.12523582  1
  O  O225  1  0.50345948  0.72770539  0.61680273  1
  O  O226  1  0.98671411  0.23856593  0.11706793  1
  O  O227  1  1.01574671  0.22766614  0.62260798  1
  O  O228  1  0.98664567  0.75495889  0.12289944  1
  O  O229  1  0.98998404  0.74843723  0.63133227  1
  O  O230  1  0.01623054  0.25472346  0.38337293  1
  O  O231  1  0.00931261  0.25905389  0.88242575  1
  O  O232  1  0.01386941  0.75178066  0.37238285  1
  O  O233  1  -0.00791125  0.74826224  0.86133185  1
  O  O234  1  0.50637203  0.25426258  0.37124991  1
  O  O235  1  0.51405947  0.24990890  0.88206280  1
  O  O236  1  0.50833218  0.76118408  0.38035127  1
  O  O237  1  0.50029207  0.76816828  0.87668473  1
  O  O238  1  0.25342727  0.13226143  0.48698725  1
  O  O239  1  0.25345546  0.13960951  0.99347804  1
  O  O240  1  0.25165148  0.62333859  0.48940884  1
  O  O241  1  0.22743887  0.62040242  0.98008737  1
  O  O242  1  0.74590263  0.13164993  0.49781370  1
  O  O243  1  0.74899481  0.13438675  0.99113667  1
  O  O244  1  0.74905371  0.64555186  0.51385338  1
  O  O245  1  0.74193085  0.62123105  0.98810901  1
  O  O246  1  0.24856739  0.36554536  0.00933868  1
  O  O247  1  0.24285432  0.36702539  0.51091483  1
  O  O248  1  0.26533779  0.86948255  -0.00660470  1
  O  O249  1  0.26488877  0.87457915  0.50484787  1
  O  O250  1  0.76103686  0.36829122  -0.00398612  1
  O  O251  1  0.75027270  0.36608569  0.51017366  1
  O  O252  1  0.75083536  0.87556338  0.01041292  1
  O  O253  1  0.74420134  0.86899397  0.51969301  1
  O  O254  1  0.12230685  0.49261860  0.23157056  1
  O  O255  1  0.13198219  0.48685341  0.75547635  1
  O  O256  1  0.13059570  0.97863163  0.25354140  1
  O  O257  1  0.12862642  0.98892003  0.73314046  1
  O  O258  1  0.62031711  0.49276793  0.23596930  1
  O  O259  1  0.64672672  0.50881483  0.73456612  1
  O  O260  1  0.63025677  0.99364525  0.24729991  1
  O  O261  1  0.64377810  1.00753739  0.75148885  1
  O  O262  1  0.38148478  0.00897597  0.26157512  1
  O  O263  1  0.37513316  -0.00180127  0.76664394  1
  O  O264  1  0.38354476  0.51124114  0.26419146  1
  O  O265  1  0.35552562  0.50039928  0.76196327  1
  O  O266  1  0.87051773  0.00633005  0.25845590  1
  O  O267  1  0.85446431  0.01383835  0.74845286  1
  O  O268  1  0.87964038  0.49748991  0.28251426  1
  O  O269  1  0.86605846  0.51308092  0.74204062  1
  O  O270  1  0.12506553  0.36439400  0.36639050  1
  O  O271  1  0.11600624  0.36748119  0.86853939  1
  O  O272  1  0.12661813  0.85995104  0.36810503  1
  O  O273  1  0.10765449  0.91310371  0.88165260  1
  O  O274  1  0.61764869  0.36642465  0.36754480  1
  O  O275  1  0.62387972  0.36255459  0.88278023  1
  O  O276  1  0.61647757  0.87015099  0.37079028  1
  O  O277  1  0.61020293  0.88039841  0.88282429  1
  O  O278  1  0.37843638  0.12897199  0.13374495  1
  O  O279  1  0.38222980  0.14088321  0.62392069  1
  O  O280  1  0.38772939  0.61147560  0.14161903  1
  O  O281  1  0.38923129  0.61360325  0.61717922  1
  O  O282  1  0.88486804  0.13023584  0.13259346  1
  O  O283  1  0.89228226  0.11828234  0.62242506  1
  O  O284  1  0.87062903  0.64224619  0.11618155  1
  O  O285  1  0.87939228  0.63841070  0.63426072  1
  O  O286  1  0.25298003  0.25690845  0.11932711  1
  O  O287  1  0.26114342  0.25305550  0.61909776  1
  O  O288  1  0.26513860  0.69358726  0.10887003  1
  O  O289  1  0.24763129  0.76015048  0.62460213  1
  O  O290  1  0.76163045  0.24180670  0.11558035  1
  O  O291  1  0.74536937  0.26395523  0.61728071  1
  O  O292  1  0.75340840  0.76190055  0.12377065  1
  O  O293  1  0.75738690  0.76492344  0.62666516  1
  O  O294  1  0.24704297  0.24273710  0.37853065  1
  O  O295  1  0.24651845  0.24223567  0.88121760  1
  O  O296  1  0.24228167  0.73364328  0.37514543  1
  O  O297  1  0.24683371  0.74172323  0.86529245  1
  O  O298  1  0.74418205  0.24495558  0.38345296  1
  O  O299  1  0.73944427  0.24517946  0.88537378  1
  O  O300  1  0.74067601  0.76620474  0.38889397  1
  O  O301  1  0.74396805  0.73521884  0.87193232  1
  O  O302  1  -0.00251366  0.11840214  0.00705811  1
  O  O303  1  0.00726169  0.11463748  0.51154118  1
  O  O304  1  0.00631295  0.61375934  -0.01318506  1
  O  O305  1  -0.00387909  0.63598884  0.51582313  1
  O  O306  1  0.49711585  0.11604550  0.00857437  1
  O  O307  1  0.50252521  0.11723932  0.50418699  1
  O  O308  1  0.50474012  0.62036354  0.00796448  1
  O  O309  1  0.50349186  0.61025677  0.50218927  1
  O  O310  1  0.50479288  0.37919703  0.48576569  1
  O  O311  1  0.49390429  0.39128383  0.99680813  1
  O  O312  1  0.48985193  0.88237883  0.49661629  1
  O  O313  1  0.49320043  0.88585247  0.99379318  1
  O  O314  1  1.00475997  0.37345658  0.49019766  1
  O  O315  1  0.99150302  0.38046569  0.99279718  1
  O  O316  1  1.00839913  0.87298951  0.48160745  1
  O  O317  1  0.98523790  0.87791462  0.99912435  1
  O  O318  1  0.49612774  0.49135124  0.37918862  1
  O  O319  1  0.47969591  0.52027687  0.89051219  1
  O  O320  1  0.49225547  0.99011223  0.38149979  1
  O  O321  1  0.49169529  0.99984943  0.88318640  1
  O  O322  1  1.01508292  0.47854531  0.37651005  1
  O  O323  1  1.00288535  0.48687541  0.88405452  1
  O  O324  1  0.99370408  0.99027977  0.37447941  1
  O  O325  1  1.05181620  0.97447261  0.88710681  1
  O  O326  1  -0.00355095  0.01282410  0.12941003  1
  O  O327  1  0.01443940  0.00248441  0.62400115  1
  O  O328  1  0.00920457  0.49319437  0.11428599  1
  O  O329  1  -0.01223685  0.51819372  0.61924055  1
  O  O330  1  0.50351860  0.00452702  0.12113791  1
  O  O331  1  0.48794298  0.01759041  0.61744415  1
  O  O332  1  0.50523555  0.50875321  0.11699798  1
  O  O333  1  0.50465395  0.49916191  0.61237225  1
  O  O334  1  0.23769498  0.37340050  0.23654658  1
  O  O335  1  0.24006188  0.38196953  0.74382418  1
  O  O336  1  0.24579613  0.86884623  0.25128491  1
  O  O337  1  0.25152193  0.87057298  0.73825781  1
  O  O338  1  0.73699687  0.37060960  0.25506912  1
  O  O339  1  0.76049510  0.38449032  0.73418230  1
  O  O340  1  0.74518553  0.88053595  0.24155195  1
  O  O341  1  0.75088390  0.88540540  0.74117915  1
  O  O342  1  0.26210515  0.13006976  0.25907274  1
  O  O343  1  0.25485516  0.13093906  0.76148549  1
  O  O344  1  0.26275681  0.62070501  0.25784172  1
  O  O345  1  0.23373946  0.61524982  0.76331005  1
  O  O346  1  0.75893010  0.11765978  0.25761714  1
  O  O347  1  0.74789452  0.12365273  0.76228452  1
  O  O348  1  0.75298973  0.60421213  0.23965130  1
  O  O349  1  0.75791037  0.61984149  0.75223800  1
  O  O350  1  0.37020853  0.11795718  0.36882226  1
  O  O351  1  0.36659029  0.11647209  0.87856836  1
  O  O352  1  0.36515310  0.61659905  0.36998920  1
  O  O353  1  0.35153041  0.61975053  0.88235137  1
  O  O354  1  0.87159603  0.11661081  0.36917973  1
  O  O355  1  0.85862006  0.13510418  0.87698465  1
  O  O356  1  0.85913203  0.64494132  0.36548480  1
  O  O357  1  0.86383240  0.63151017  0.86338601  1
  O  O358  1  0.12773357  0.37832892  0.12933238  1
  O  O359  1  0.13583833  0.36219784  0.63664555  1
  O  O360  1  0.13001608  0.86260527  0.13877532  1
  O  O361  1  0.14305371  0.88118067  0.61939486  1
  O  O362  1  0.61765543  0.38761535  0.13229460  1
  O  O363  1  0.63018046  0.38581782  0.62144777  1
  O  O364  1  0.63043182  0.88041914  0.12886988  1
  O  O365  1  0.62709939  0.87303577  0.62900789  1
  O  O366  1  0.13078639  0.25706995  0.26068337  1
  O  O367  1  0.13179055  0.26139920  0.76396672  1
  O  O368  1  0.12639497  0.75533691  0.25980222  1
  O  O369  1  0.10935447  0.76058876  0.75069290  1
  O  O370  1  0.62140338  0.25561250  0.25847581  1
  O  O371  1  0.62868377  0.25636430  0.76500794  1
  O  O372  1  0.62626252  0.75696161  0.25932011  1
  O  O373  1  0.61227372  0.74629434  0.74992237  1
  O  O374  1  0.38057998  0.24074902  0.24543925  1
  O  O375  1  0.37320698  0.25209797  0.74483747  1
  O  O376  1  0.38155625  0.73020348  0.26004129  1
  O  O377  1  0.38940933  0.75053817  0.75062243  1
  O  O378  1  0.86743854  0.23833969  0.24042529  1
  O  O379  1  0.87042701  0.24431352  0.74429143  1
  O  O380  1  0.87686049  0.75623682  0.23168789  1
  O  O381  1  0.88163780  0.74607785  0.73947194  1
  O  O382  1  0.38531795  0.49780790  0.48550077  1
  O  O383  1  0.37446095  0.50664946  0.99772895  1
  O  O384  1  0.38457945  0.99421886  0.49003581  1
  O  O385  1  0.38358573  0.99440297  0.99530321  1
  O  O386  1  0.88281207  0.51882631  0.46530149  1
  O  O387  1  0.88366436  0.49095632  1.00906052  1
  O  O388  1  0.87412573  0.99970767  0.48450574  1
  O  O389  1  0.86861449  0.98892708  0.99897531  1
  O  O390  1  0.16324451  0.00013438  0.05269579  1
  O  O391  1  0.12632694  -0.00000990  0.51169156  1
  O  O392  1  0.11157854  0.50159829  0.00694169  1
  O  O393  1  0.11573751  0.50450271  0.50364091  1
  O  O394  1  0.61293867  0.00415559  0.00736327  1
  O  O395  1  0.61045763  -0.00065985  0.49516284  1
  O  O396  1  0.61417526  0.50453849  0.00848788  1
  O  O397  1  0.61484291  0.49737937  0.50216906  1
  O  O398  1  0.36472749  0.37237274  0.12928934  1
  O  O399  1  0.36323127  0.36202132  0.63026952  1
  O  O400  1  0.37591495  0.87663215  0.11231294  1
  O  O401  1  0.36629844  0.87919402  0.61388608  1
  O  O402  1  0.88374316  0.36771274  0.11897131  1
  O  O403  1  0.86889353  0.37654651  0.61763755  1
  O  O404  1  0.86617837  0.87298207  0.11841931  1
  O  O405  1  0.87672198  0.86757693  0.63052737  1
  O  O406  1  0.13612532  0.12833888  0.36869283  1
  O  O407  1  0.14044367  0.13335073  0.86976803  1
  O  O408  1  0.13738867  0.62986852  0.37113204  1
  O  O409  1  0.12719193  0.62504246  0.88080586  1
  O  O410  1  0.63177978  0.13455193  0.37256149  1
  O  O411  1  0.63384417  0.13925388  0.87999068  1
  O  O412  1  0.61899256  0.64023303  0.37503801  1
  O  O413  1  0.62938443  0.61497014  0.88436289  1
