# generated using pymatgen
data_V79Zn79O256
_symmetry_space_group_name_H-M   'P 1'
_cell_length_a   16.98579382
_cell_length_b   16.95890127
_cell_length_c   16.92350285
_cell_angle_alpha   89.62411140
_cell_angle_beta   89.96650830
_cell_angle_gamma   89.98953419
_symmetry_Int_Tables_number   1
_chemical_formula_structural   V79Zn79O256
_chemical_formula_sum   'V79 Zn79 O256'
_cell_volume   4874.88518416
_cell_formula_units_Z   1
loop_
 _symmetry_equiv_pos_site_id
 _symmetry_equiv_pos_as_xyz
  1  'x, y, z'
loop_
 _atom_site_type_symbol
 _atom_site_label
 _atom_site_symmetry_multiplicity
 _atom_site_fract_x
 _atom_site_fract_y
 _atom_site_fract_z
 _atom_site_occupancy
  V  V0  1  -0.00599372  -0.00018167  0.50281876  1
  V  V1  1  0.01424403  0.01057819  -0.00260384  1
  V  V2  1  0.51109049  0.37044043  0.36927228  1
  V  V3  1  -0.00147332  0.25552538  0.75618310  1
  V  V4  1  0.86829846  0.24466727  0.12619386  1
  V  V5  1  0.88150545  0.49429248  0.87517736  1
  V  V6  1  0.00394932  0.50513138  0.01046554  1
  V  V7  1  0.88091485  0.37245420  -0.00133973  1
  V  V8  1  0.12450697  0.25214069  0.37246621  1
  V  V9  1  -0.00506983  0.24513840  0.24911373  1
  V  V10  1  0.75661711  0.62389043  0.87732259  1
  V  V11  1  0.27281502  0.74388481  0.49218599  1
  V  V12  1  0.37410066  0.12645505  0.74443619  1
  V  V13  1  0.51161511  0.12297674  0.62220420  1
  V  V14  1  0.12721358  0.38354121  0.23841269  1
  V  V15  1  0.23810439  0.62228813  0.88846964  1
  V  V16  1  0.49901606  0.87183336  0.87481914  1
  V  V17  1  0.49773619  0.37234386  0.88320786  1
  V  V18  1  0.92517161  0.55276266  0.32055010  1
  V  V19  1  0.37398249  0.49195717  0.88440387  1
  V  V20  1  0.74795895  0.50332539  0.74621508  1
  V  V21  1  0.36845787  0.37870212  0.50624118  1
  V  V22  1  0.50399989  0.49991527  0.00665558  1
  V  V23  1  0.63248210  0.48793618  0.12694944  1
  V  V24  1  0.63227790  0.75898387  0.37967002  1
  V  V25  1  0.62396246  0.38245090  0.74436515  1
  V  V26  1  0.50136835  0.49946185  0.50579395  1
  V  V27  1  0.37152145  0.62492363  0.24894735  1
  V  V28  1  0.49305727  0.74789920  0.74494230  1
  V  V29  1  0.74528978  -0.00478948  0.73927961  1
  V  V30  1  0.26147976  0.11977349  0.37037874  1
  V  V31  1  0.11872674  0.12624873  0.49934751  1
  V  V32  1  0.50993483  0.74216813  0.24550754  1
  V  V33  1  0.37080933  0.50401877  0.37380391  1
  V  V34  1  0.37261158  0.87427836  0.52262860  1
  V  V35  1  0.74812069  0.12472575  0.87312714  1
  V  V36  1  0.62651331  -0.00275417  0.12542741  1
  V  V37  1  0.87417396  0.00144785  0.87428971  1
  V  V38  1  0.36729275  0.86462889  -0.00022793  1
  V  V39  1  0.36819202  0.74546070  0.12360793  1
  V  V40  1  0.50226239  -0.00267144  -0.00049280  1
  V  V41  1  0.24668573  0.25809303  0.50760583  1
  V  V42  1  0.26991499  0.25721115  0.00743398  1
  V  V43  1  0.62051974  0.12296859  -0.00034677  1
  V  V44  1  0.74998410  0.62263733  0.37099355  1
  V  V45  1  0.12474029  0.37247858  0.75075970  1
  V  V46  1  0.74705998  0.25626059  0.00381098  1
  V  V47  1  0.87156788  0.25565341  0.62673460  1
  V  V48  1  0.87397755  0.12670358  0.74940546  1
  V  V49  1  0.13330961  0.62435423  0.47596986  1
  V  V50  1  0.73774795  0.24383445  0.49211837  1
  V  V51  1  0.49983769  0.25060477  0.74740507  1
  V  V52  1  0.62700021  0.74849497  0.87469596  1
  V  V53  1  0.50672023  0.00194595  0.50475906  1
  V  V54  1  -0.00532384  0.37482347  0.37675710  1
  V  V55  1  0.87075570  0.87874811  0.00084167  1
  V  V56  1  0.24562945  -0.00665350  0.74150787  1
  V  V57  1  0.87407728  0.38304307  0.50010541  1
  V  V58  1  0.86907833  0.02153219  0.37163076  1
  V  V59  1  0.12450309  0.24851931  0.88309450  1
  V  V60  1  0.85718002  0.87676598  0.50165118  1
  V  V61  1  0.00994675  0.64365513  0.62990748  1
  V  V62  1  0.85433107  0.75693902  0.62798614  1
  V  V63  1  0.25037838  0.49278617  0.74759645  1
  V  V64  1  0.75217331  0.87491339  0.13580068  1
  V  V65  1  0.63064283  0.61950725  0.50521448  1
  V  V66  1  0.75771086  0.74910710  0.00701031  1
  V  V67  1  0.37826466  0.62046944  0.75086774  1
  V  V68  1  0.12231514  0.49448281  0.62259032  1
  V  V69  1  0.62690146  0.87641236  0.73600525  1
  V  V70  1  0.74290029  0.48756607  0.25275108  1
  V  V71  1  0.62432814  0.24988507  0.87373259  1
  V  V72  1  0.25110105  0.49570061  0.23884924  1
  V  V73  1  0.62503371  0.62420836  0.00911494  1
  V  V74  1  0.01084239  0.85825452  0.86845397  1
  V  V75  1  0.47913304  0.87529370  0.37261778  1
  V  V76  1  0.00966780  0.12371224  0.12267874  1
  V  V77  1  0.74597607  0.02951911  0.25218134  1
  V  V78  1  0.24626592  0.12047330  0.87678732  1
  Zn  Zn79  1  0.88707697  0.63671344  0.76075702  1
  Zn  Zn80  1  -0.00013381  0.12694660  0.62682647  1
  Zn  Zn81  1  -0.06781733  0.70286913  0.19853964  1
  Zn  Zn82  1  0.49313455  0.24202844  0.24942762  1
  Zn  Zn83  1  0.09143677  0.82316288  0.70015306  1
  Zn  Zn84  1  0.74266452  0.38399393  0.62075276  1
  Zn  Zn85  1  0.15855719  0.56224083  0.07043330  1
  Zn  Zn86  1  -0.00528577  0.50799581  0.50164244  1
  Zn  Zn87  1  0.20816419  0.94092642  0.18047640  1
  Zn  Zn88  1  -0.00094218  0.87251915  0.37030168  1
  Zn  Zn89  1  0.08091182  0.84987055  0.23337746  1
  Zn  Zn90  1  0.37327610  -0.00587398  0.87149690  1
  Zn  Zn91  1  0.37031473  0.25551325  0.62626292  1
  Zn  Zn92  1  0.13198831  -0.00723512  0.62247787  1
  Zn  Zn93  1  0.50388657  0.62098517  0.62736478  1
  Zn  Zn94  1  0.21914887  0.13712441  0.16308384  1
  Zn  Zn95  1  0.18351466  0.18321316  0.68656693  1
  Zn  Zn96  1  0.15159107  0.73609982  0.13188397  1
  Zn  Zn97  1  0.20295750  0.67630748  0.66740823  1
  Zn  Zn98  1  0.66508881  0.19893995  0.18134752  1
  Zn  Zn99  1  0.68967222  0.19102415  0.68518406  1
  Zn  Zn100  1  0.69310770  0.68431458  0.19030534  1
  Zn  Zn101  1  0.68379540  0.68730274  0.69152433  1
  Zn  Zn102  1  0.31040028  0.31810405  0.31797078  1
  Zn  Zn103  1  0.31110537  0.30994130  0.81586390  1
  Zn  Zn104  1  0.23255092  0.77819693  0.30115712  1
  Zn  Zn105  1  0.27660220  0.78535054  0.77903095  1
  Zn  Zn106  1  0.81140448  0.30851022  0.31469631  1
  Zn  Zn107  1  0.80858111  0.31585890  0.81372021  1
  Zn  Zn108  1  0.81439948  0.81905782  0.32447675  1
  Zn  Zn109  1  0.81380803  0.81442954  0.81392835  1
  Zn  Zn110  1  0.18612760  0.44528626  0.43344333  1
  Zn  Zn111  1  0.18651773  0.42808143  0.93845243  1
  Zn  Zn112  1  0.18914086  0.93400380  0.34886685  1
  Zn  Zn113  1  0.18410602  0.79635905  0.94225943  1
  Zn  Zn114  1  0.68990591  0.43619021  0.43816603  1
  Zn  Zn115  1  0.68744803  0.43730549  0.93455101  1
  Zn  Zn116  1  0.68664652  0.94708202  0.43623030  1
  Zn  Zn117  1  0.68738724  0.93505826  0.93069711  1
  Zn  Zn118  1  0.30590818  0.04373862  0.04552160  1
  Zn  Zn119  1  0.31343547  0.06382636  0.55417467  1
  Zn  Zn120  1  0.32760310  0.56529367  0.06563280  1
  Zn  Zn121  1  0.30951646  0.56838852  0.56292847  1
  Zn  Zn122  1  0.81132387  0.06673544  0.06409040  1
  Zn  Zn123  1  0.80940490  0.06966371  0.56246477  1
  Zn  Zn124  1  0.82132614  0.56170134  0.07340499  1
  Zn  Zn125  1  0.81708951  0.57143117  0.56536482  1
  Zn  Zn126  1  0.44128990  0.43444795  0.18895628  1
  Zn  Zn127  1  0.43711074  0.43832461  0.68963721  1
  Zn  Zn128  1  0.45268520  0.91353526  0.17456838  1
  Zn  Zn129  1  0.43781248  0.94063510  0.68996478  1
  Zn  Zn130  1  0.93211210  0.42788766  0.18322291  1
  Zn  Zn131  1  0.93767671  0.44136727  0.68981097  1
  Zn  Zn132  1  0.93050700  0.94896408  0.18742692  1
  Zn  Zn133  1  0.93689992  0.93309190  0.68819652  1
  Zn  Zn134  1  0.06342792  0.05912605  0.30867120  1
  Zn  Zn135  1  0.06444134  0.06263820  0.81035917  1
  Zn  Zn136  1  0.10695943  0.63122010  0.26268433  1
  Zn  Zn137  1  0.05999809  0.56184313  0.81275248  1
  Zn  Zn138  1  0.55339482  0.04633333  0.30878050  1
  Zn  Zn139  1  0.56299029  0.05998128  0.80936957  1
  Zn  Zn140  1  0.56409223  0.56012331  0.31806607  1
  Zn  Zn141  1  0.56465069  0.56252036  0.82064781  1
  Zn  Zn142  1  0.43709493  0.19131143  0.43966437  1
  Zn  Zn143  1  0.43522099  0.18404799  0.93453258  1
  Zn  Zn144  1  0.44466496  0.68676716  0.43372749  1
  Zn  Zn145  1  0.43706497  0.68279189  0.93434154  1
  Zn  Zn146  1  0.93139716  0.19409452  0.44113967  1
  Zn  Zn147  1  0.93578280  0.18798223  0.93698542  1
  Zn  Zn148  1  0.93650207  0.69112610  0.45046009  1
  Zn  Zn149  1  0.95345527  0.69356121  1.04126356  1
  Zn  Zn150  1  0.06042221  0.31211575  0.06147648  1
  Zn  Zn151  1  0.05926428  0.31393019  0.56532001  1
  Zn  Zn152  1  0.05739394  0.83463651  0.05786065  1
  Zn  Zn153  1  0.12257744  0.84551477  0.50579808  1
  Zn  Zn154  1  0.56087631  0.31042242  0.07164545  1
  Zn  Zn155  1  0.55694028  0.31379619  0.56153240  1
  Zn  Zn156  1  0.57091070  0.81367213  0.06031639  1
  Zn  Zn157  1  0.55961623  0.80734955  0.55874140  1
  O  O158  1  0.10676059  0.12859641  0.12255319  1
  O  O159  1  0.12129210  0.11943963  0.61093239  1
  O  O160  1  0.12189867  0.62642321  0.14991976  1
  O  O161  1  0.11667521  0.61399070  0.61901842  1
  O  O162  1  0.63165589  0.10737664  0.10762266  1
  O  O163  1  0.61048062  0.12873944  0.63055541  1
  O  O164  1  0.63231420  0.61824384  0.11311083  1
  O  O165  1  0.62576519  0.63027526  0.60871833  1
  O  O166  1  0.38256235  0.38640107  0.38520403  1
  O  O167  1  0.38695861  0.38092510  0.87193918  1
  O  O168  1  0.38357349  0.87276308  0.38297360  1
  O  O169  1  0.39365833  0.87082377  0.88224981  1
  O  O170  1  0.88586909  0.36805134  0.38562074  1
  O  O171  1  0.86764535  0.38417908  0.88432207  1
  O  O172  1  0.86802236  0.89303219  0.39313939  1
  O  O173  1  0.88069526  0.88715945  0.87976082  1
  O  O174  1  0.24772990  0.02177737  0.38830659  1
  O  O175  1  0.25290993  0.01768735  0.86202438  1
  O  O176  1  0.26428058  0.48964151  0.35766924  1
  O  O177  1  0.25816925  0.49910214  0.87146618  1
  O  O178  1  0.75080620  0.00623192  0.36023320  1
  O  O179  1  0.75719144  0.00522237  0.86686174  1
  O  O180  1  0.74198234  0.50777785  0.36200178  1
  O  O181  1  0.75695611  0.50648234  0.87000588  1
  O  O182  1  0.25560481  0.50347691  0.13535567  1
  O  O183  1  0.23593345  0.50895296  0.63853616  1
  O  O184  1  0.25677471  1.03196586  0.14035393  1
  O  O185  1  0.25279783  1.00768748  0.63717751  1
  O  O186  1  0.74757740  0.50671745  0.14421535  1
  O  O187  1  0.75746593  0.50509864  0.64171522  1
  O  O188  1  0.74775024  0.99773031  0.13923270  1
  O  O189  1  0.75808928  1.00366280  0.64078996  1
  O  O190  1  0.00531269  0.37097214  0.25841747  1
  O  O191  1  0.00788522  0.36423674  0.74851015  1
  O  O192  1  -0.02320246  0.87930438  0.25837055  1
  O  O193  1  0.00659836  0.87791380  0.76110462  1
  O  O194  1  0.50728211  0.38547158  0.26893269  1
  O  O195  1  0.50577957  0.37205197  0.75997956  1
  O  O196  1  0.49571107  0.86588506  0.26583963  1
  O  O197  1  0.50527229  0.86828354  0.75687560  1
  O  O198  1  0.48291730  0.12041934  0.25493712  1
  O  O199  1  0.49347544  0.12864374  0.74360922  1
  O  O200  1  0.49725403  0.63804703  0.25719558  1
  O  O201  1  0.49665442  0.63093546  0.75750710  1
  O  O202  1  1.00262448  0.13518839  0.23856118  1
  O  O203  1  0.99223331  0.13416950  0.74778367  1
  O  O204  1  0.98446382  0.61071670  0.26347027  1
  O  O205  1  0.99944038  0.62140820  0.73438036  1
  O  O206  1  0.37071038  0.24730456  0.00070410  1
  O  O207  1  0.36342812  0.26180729  0.50171165  1
  O  O208  1  0.39322866  0.75112252  0.01523229  1
  O  O209  1  0.38354991  0.76216061  0.49689444  1
  O  O210  1  0.86551728  0.25379412  0.00241574  1
  O  O211  1  0.86778866  0.26186890  0.51073315  1
  O  O212  1  0.86438781  0.76700892  -0.00623351  1
  O  O213  1  0.87268507  0.76939245  0.50864167  1
  O  O214  1  0.12563950  0.24756143  0.49343892  1
  O  O215  1  0.12293938  0.25424429  0.98483170  1
  O  O216  1  0.15391075  0.72681495  0.49905132  1
  O  O217  1  0.12122427  0.74597786  1.01874854  1
  O  O218  1  0.63947717  0.25988937  0.50805339  1
  O  O219  1  0.62860467  0.24088599  0.99484564  1
  O  O220  1  0.61567287  0.73518807  0.48656347  1
  O  O221  1  0.63388925  0.74208021  0.99462944  1
  O  O222  1  0.56621585  0.24991106  0.16482852  1
  O  O223  1  0.49465885  0.24150952  0.62978371  1
  O  O224  1  0.51098271  0.76120666  0.14381603  1
  O  O225  1  0.50352593  0.74379585  0.64191544  1
  O  O226  1  0.99198660  0.24062567  0.12883872  1
  O  O227  1  0.98944040  0.25027360  0.63596780  1
  O  O228  1  0.99097991  0.76465098  0.12285278  1
  O  O229  1  1.01618403  0.74181293  0.63175953  1
  O  O230  1  0.00246319  0.25573208  0.36866508  1
  O  O231  1  0.00840922  0.24061017  0.86380199  1
  O  O232  1  -0.03520765  0.75186123  0.35608923  1
  O  O233  1  -0.01048344  0.76487279  0.88012251  1
  O  O234  1  0.48751051  0.26554074  0.36800547  1
  O  O235  1  0.50442592  0.25581181  0.86942244  1
  O  O236  1  0.50890399  0.76099357  0.36739624  1
  O  O237  1  0.50673831  0.75373147  0.86778268  1
  O  O238  1  0.23855797  0.13726782  0.49268580  1
  O  O239  1  0.26038613  0.12841984  0.97908090  1
  O  O240  1  0.22860164  0.58963181  0.47806047  1
  O  O241  1  0.24432250  0.60289670  0.99244363  1
  O  O242  1  0.74762987  0.14411818  0.50740969  1
  O  O243  1  0.74017069  0.13140196  0.99208930  1
  O  O244  1  0.73779716  0.61552237  0.49036426  1
  O  O245  1  0.74525557  0.63173635  0.99504096  1
  O  O246  1  0.25273233  0.35689301  -0.00279854  1
  O  O247  1  0.25645812  0.37066246  0.49239216  1
  O  O248  1  0.27013656  0.86615550  -0.01510525  1
  O  O249  1  0.26500733  0.84920046  0.50765273  1
  O  O250  1  0.75464437  0.36102421  -0.00688830  1
  O  O251  1  0.75912501  0.37224464  0.50414867  1
  O  O252  1  0.75439100  0.86843998  0.00174385  1
  O  O253  1  0.75878965  0.88962104  0.50601332  1
  O  O254  1  0.13531943  0.48758858  0.25307212  1
  O  O255  1  0.13020436  0.49020426  0.74631807  1
  O  O256  1  0.11973300  0.97628871  0.26139675  1
  O  O257  1  0.14050045  1.00606146  0.74576319  1
  O  O258  1  0.63534099  0.50619863  0.24211796  1
  O  O259  1  0.63451535  0.49337081  0.76074307  1
  O  O260  1  0.63710998  1.00555277  0.24054952  1
  O  O261  1  0.63314195  0.98904364  0.75456656  1
  O  O262  1  0.41633098  0.08709963  0.20526071  1
  O  O263  1  0.36910908  0.01128794  0.75166548  1
  O  O264  1  0.37360963  0.50458410  0.25262838  1
  O  O265  1  0.36979603  0.49813983  0.76441736  1
  O  O266  1  0.85748712  0.00993954  0.26141971  1
  O  O267  1  0.86933715  0.00404699  0.75906449  1
  O  O268  1  0.86595318  0.49617592  0.25564603  1
  O  O269  1  0.86704239  0.50334724  0.75992703  1
  O  O270  1  0.11146512  0.36952944  0.37376477  1
  O  O271  1  0.12873509  0.36242926  0.85956751  1
  O  O272  1  0.11220489  0.86343301  0.39681230  1
  O  O273  1  0.11033443  0.86454854  0.88395635  1
  O  O274  1  0.60904671  0.37515075  0.38703890  1
  O  O275  1  0.61606240  0.36981434  0.86759285  1
  O  O276  1  0.62666684  0.86015373  0.38455967  1
  O  O277  1  0.61526738  0.86687569  0.86992942  1
  O  O278  1  0.40051048  0.13132764  0.14613698  1
  O  O279  1  0.38153809  0.12779271  0.63341781  1
  O  O280  1  0.38695592  0.63540007  0.13268076  1
  O  O281  1  0.38578253  0.60221479  0.64947619  1
  O  O282  1  0.88179448  0.13874511  0.12013960  1
  O  O283  1  0.87341598  0.14071647  0.63296827  1
  O  O284  1  0.87293302  0.64884840  0.11650060  1
  O  O285  1  0.89088150  0.64790205  0.61529215  1
  O  O286  1  0.24459832  0.23011385  0.10133059  1
  O  O287  1  0.24662298  0.24724501  0.61150457  1
  O  O288  1  0.27187128  0.74217256  0.12436560  1
  O  O289  1  0.27941908  0.68635891  0.58186599  1
  O  O290  1  0.75365332  0.24089257  0.11259244  1
  O  O291  1  0.76019013  0.25917205  0.62322554  1
  O  O292  1  0.74017608  0.76048043  0.11383889  1
  O  O293  1  0.75692445  0.74539963  0.62155963  1
  O  O294  1  0.23804814  0.25100363  0.38598725  1
  O  O295  1  0.24436949  0.24179488  0.88248597  1
  O  O296  1  0.27289111  0.72457241  0.39282292  1
  O  O297  1  0.25756079  0.72525564  0.88272924  1
  O  O298  1  0.75304266  0.25427743  0.39225783  1
  O  O299  1  0.74326012  0.24386702  0.88156524  1
  O  O300  1  0.73721486  0.74243368  0.37290080  1
  O  O301  1  0.74747862  0.74282430  0.88387474  1
  O  O302  1  -0.00366546  0.11976282  0.00794425  1
  O  O303  1  0.00220034  0.12466028  0.50183381  1
  O  O304  1  0.00293265  0.60400949  -0.00500930  1
  O  O305  1  0.01269613  0.62813111  0.51074932  1
  O  O306  1  0.51011086  0.11101478  -0.01042693  1
  O  O307  1  0.48906386  0.10946453  0.50549674  1
  O  O308  1  0.51483559  0.61108070  -0.01019139  1
  O  O309  1  0.50994280  0.61636550  0.50044560  1
  O  O310  1  0.48912805  0.38132128  0.49354652  1
  O  O311  1  0.51122429  0.37977965  0.99068934  1
  O  O312  1  0.49027228  0.87980979  0.49618234  1
  O  O313  1  0.50150880  0.87976237  0.99230828  1
  O  O314  1  0.99203794  0.37457936  0.49131924  1
  O  O315  1  0.98553060  0.37710700  0.99769910  1
  O  O316  1  0.98168628  0.89750264  0.49495965  1
  O  O317  1  0.98801193  0.89626785  0.98825834  1
  O  O318  1  0.49335232  0.49154709  0.38542839  1
  O  O319  1  0.49532402  0.48978787  0.88456115  1
  O  O320  1  0.49979625  0.98238441  0.38637743  1
  O  O321  1  0.50174304  0.98959475  0.88252219  1
  O  O322  1  0.98884354  0.49182615  0.37601128  1
  O  O323  1  0.98548872  0.50180301  0.88004971  1
  O  O324  1  0.97816570  1.01079617  0.38272642  1
  O  O325  1  0.99037554  1.00926152  0.88463391  1
  O  O326  1  -0.01047174  0.01526513  0.11094260  1
  O  O327  1  -0.01424028  0.00726492  0.60989096  1
  O  O328  1  -0.01023475  0.49463950  0.10979390  1
  O  O329  1  0.00997365  0.50698099  0.62588789  1
  O  O330  1  0.51239730  -0.01247848  0.11137721  1
  O  O331  1  0.49697391  0.00632720  0.61372432  1
  O  O332  1  0.51048655  0.48998298  0.11304929  1
  O  O333  1  0.49945675  0.49782977  0.61056585  1
  O  O334  1  0.23343819  0.37792451  0.25185174  1
  O  O335  1  0.24344739  0.38409183  0.75364497  1
  O  O336  1  0.25726822  0.88218586  0.26933945  1
  O  O337  1  0.26352065  0.89735688  0.75804556  1
  O  O338  1  0.74941295  0.38878318  0.25869270  1
  O  O339  1  0.74026471  0.38559952  0.75073187  1
  O  O340  1  0.76036416  0.86827394  0.23651168  1
  O  O341  1  0.73844922  0.88271546  0.75801478  1
  O  O342  1  0.23912939  0.14030603  0.27400930  1
  O  O343  1  0.25856777  0.12493020  0.75441932  1
  O  O344  1  0.27007399  0.61430036  0.25285833  1
  O  O345  1  0.26106409  0.60846198  0.76400926  1
  O  O346  1  0.74199090  0.12713298  0.24191012  1
  O  O347  1  0.75338785  0.11869721  0.75509174  1
  O  O348  1  0.75428118  0.62074838  0.26477051  1
  O  O349  1  0.74856426  0.61970819  0.76172519  1
  O  O350  1  0.36067933  0.13405229  0.37871708  1
  O  O351  1  0.36718309  0.12527193  0.86010425  1
  O  O352  1  0.38846257  0.61058634  0.36589001  1
  O  O353  1  0.37121407  0.60779270  0.87224330  1
  O  O354  1  0.86675583  0.12011779  0.38009676  1
  O  O355  1  0.86776900  0.11948456  0.86939676  1
  O  O356  1  0.86879646  0.60937714  0.38831604  1
  O  O357  1  0.86200080  0.61461168  0.87624436  1
  O  O358  1  0.11533781  0.37283967  0.14059435  1
  O  O359  1  0.12110244  0.38293628  0.63572567  1
  O  O360  1  0.13876190  0.86227733  0.13319698  1
  O  O361  1  0.11468198  0.88378345  0.60793817  1
  O  O362  1  0.63741121  0.39054984  0.11616185  1
  O  O363  1  0.62155812  0.37496588  0.64103810  1
  O  O364  1  0.64009997  0.88933162  0.11683914  1
  O  O365  1  0.61906415  0.86740093  0.63709809  1
  O  O366  1  0.11034103  0.26468013  0.26218152  1
  O  O367  1  0.11765542  0.25480645  0.75258412  1
  O  O368  1  0.13529716  0.74662900  0.25264068  1
  O  O369  1  0.17414706  0.75717936  0.73559824  1
  O  O370  1  0.62244784  0.19787033  0.31661194  1
  O  O371  1  0.62005642  0.25912142  0.75583486  1
  O  O372  1  0.61707671  0.74233472  0.26469322  1
  O  O373  1  0.61717686  0.75590024  0.75706362  1
  O  O374  1  0.38120026  0.28416659  0.22715907  1
  O  O375  1  0.38065515  0.24477027  0.74796576  1
  O  O376  1  0.39068824  0.74089818  0.23617657  1
  O  O377  1  0.38166874  0.73376971  0.75876221  1
  O  O378  1  0.88623018  0.25956834  0.24120143  1
  O  O379  1  0.87949828  0.24932665  0.74788810  1
  O  O380  1  0.89781850  0.74324944  0.30233273  1
  O  O381  1  0.86894161  0.75103458  0.73378027  1
  O  O382  1  0.37911918  0.49840750  0.49356940  1
  O  O383  1  0.39024927  0.50056609  0.99394132  1
  O  O384  1  0.37969066  0.97979905  0.50622333  1
  O  O385  1  0.38689210  0.98521189  0.99441042  1
  O  O386  1  0.87711298  0.48776627  0.51082249  1
  O  O387  1  0.87904146  0.49053220  0.99541759  1
  O  O388  1  0.87344444  1.00246979  0.49207157  1
  O  O389  1  0.86774233  0.99739733  0.98661823  1
  O  O390  1  0.10873849  0.00410540  -0.00260210  1
  O  O391  1  0.10033561  0.01324232  0.49415320  1
  O  O392  1  0.10918594  0.48476590  0.00082444  1
  O  O393  1  0.11478228  0.50120942  0.50716748  1
  O  O394  1  0.62120755  0.00411217  0.00097969  1
  O  O395  1  0.60563455  -0.00314646  0.49838034  1
  O  O396  1  0.62451037  0.50627456  0.00559626  1
  O  O397  1  0.61677685  0.51228027  0.49387183  1
  O  O398  1  0.38037382  0.33642389  0.16314406  1
  O  O399  1  0.37664120  0.37772314  0.61159187  1
  O  O400  1  0.37743993  0.85874275  0.11472448  1
  O  O401  1  0.38064590  0.86752118  0.62147524  1
  O  O402  1  0.87418694  0.35709532  0.11261688  1
  O  O403  1  0.87580235  0.36878799  0.62021238  1
  O  O404  1  0.86296902  0.89104310  0.10797567  1
  O  O405  1  0.87574790  0.86478593  0.61718221  1
  O  O406  1  0.12047022  0.13803947  0.38432076  1
  O  O407  1  0.13965156  0.13468389  0.86584854  1
  O  O408  1  0.11031434  0.62017310  0.37950796  1
  O  O409  1  0.14086945  0.61467046  0.87189043  1
  O  O410  1  0.61615112  0.13815929  0.36349130  1
  O  O411  1  0.62825618  0.12943286  0.88013578  1
  O  O412  1  0.63231118  0.63203612  0.38385747  1
  O  O413  1  0.63756531  0.62822110  0.88562228  1
