# generated using pymatgen
data_V79Zn79O256
_symmetry_space_group_name_H-M   'P 1'
_cell_length_a   16.93735922
_cell_length_b   16.90971684
_cell_length_c   16.91443022
_cell_angle_alpha   90.11729177
_cell_angle_beta   90.03572660
_cell_angle_gamma   89.80090815
_symmetry_Int_Tables_number   1
_chemical_formula_structural   V79Zn79O256
_chemical_formula_sum   'V79 Zn79 O256'
_cell_volume   4844.35311175
_cell_formula_units_Z   1
loop_
 _symmetry_equiv_pos_site_id
 _symmetry_equiv_pos_as_xyz
  1  'x, y, z'
loop_
 _atom_site_type_symbol
 _atom_site_label
 _atom_site_symmetry_multiplicity
 _atom_site_fract_x
 _atom_site_fract_y
 _atom_site_fract_z
 _atom_site_occupancy
  V  V0  1  0.36526847  0.11728510  0.24895259  1
  V  V1  1  0.38191246  -0.01102545  0.37094175  1
  V  V2  1  0.49577895  0.11696387  0.12174353  1
  V  V3  1  -0.01060758  0.00222866  -0.01225041  1
  V  V4  1  0.62483108  0.49321825  0.62324749  1
  V  V5  1  0.86706073  0.12105388  0.75905357  1
  V  V6  1  0.49918443  0.48831306  0.49613289  1
  V  V7  1  0.87856086  0.64642013  0.24824547  1
  V  V8  1  0.50538884  0.51678183  0.00100047  1
  V  V9  1  0.88588166  0.37978351  0.48661417  1
  V  V10  1  0.25146498  0.24821636  -0.01321225  1
  V  V11  1  0.13607862  0.63110567  -0.00838804  1
  V  V12  1  0.61840188  -0.00727777  0.12070458  1
  V  V13  1  0.12515592  0.36559816  0.26394740  1
  V  V14  1  0.62681502  0.00562037  0.62683363  1
  V  V15  1  0.13025316  0.87361907  0.74850101  1
  V  V16  1  0.25473057  0.49565211  0.75195129  1
  V  V17  1  0.50307759  0.62164320  0.62166469  1
  V  V18  1  0.50847553  0.74923515  0.75252590  1
  V  V19  1  0.37993961  0.49414496  0.37734054  1
  V  V20  1  -0.00044009  0.49575153  -0.00558709  1
  V  V21  1  0.37739737  0.62132572  0.75510119  1
  V  V22  1  0.25098976  0.50107283  0.24988174  1
  V  V23  1  0.11307624  0.37283126  0.75059735  1
  V  V24  1  0.12490364  0.13929167  0.50165635  1
  V  V25  1  0.12101683  0.51753028  0.62038684  1
  V  V26  1  0.86956086  0.37384958  0.01290733  1
  V  V27  1  -0.00509255  0.63805600  0.12452888  1
  V  V28  1  0.74641255  0.24893265  0.49981127  1
  V  V29  1  0.50267116  -0.00052588  0.50173451  1
  V  V30  1  0.62264038  0.37127888  0.76975477  1
  V  V31  1  0.38529161  0.86794418  0.49681229  1
  V  V32  1  0.73946808  0.62827354  0.87722387  1
  V  V33  1  0.24452159  0.74614724  0.50376456  1
  V  V34  1  -0.00533688  0.74696261  0.73106803  1
  V  V35  1  0.75545042  0.87572207  0.62767548  1
  V  V36  1  0.37356009  0.12772510  0.73395049  1
  V  V37  1  0.75019741  0.37349665  0.62390821  1
  V  V38  1  0.87525902  0.01516245  0.37626888  1
  V  V39  1  0.88235871  0.88089902  0.49785927  1
  V  V40  1  0.61797935  0.37553064  0.24209391  1
  V  V41  1  0.50002701  0.74989125  0.25838933  1
  V  V42  1  0.37328489  0.00430243  0.87951889  1
  V  V43  1  0.87695763  0.62877510  0.74159436  1
  V  V44  1  0.50844475  0.23750850  0.75543183  1
  V  V45  1  0.63007683  0.87759026  0.75098219  1
  V  V46  1  0.24453037  0.86771862  0.10505222  1
  V  V47  1  0.37619820  0.75233623  0.62418521  1
  V  V48  1  -0.00458675  0.13134257  0.12640470  1
  V  V49  1  0.24997908  0.37205973  0.11888302  1
  V  V50  1  0.37902896  0.49498790  0.87441800  1
  V  V51  1  0.74668478  0.74592321  -0.00494342  1
  V  V52  1  0.75885200  0.49428067  0.24712149  1
  V  V53  1  0.24139315  0.62600033  0.38079355  1
  V  V54  1  0.12247684  0.49806037  0.12390460  1
  V  V55  1  0.24651305  0.13658699  0.38166104  1
  V  V56  1  0.62212542  0.12779114  -0.00471913  1
  V  V57  1  0.62031956  0.51742848  0.12667002  1
  V  V58  1  0.12968589  -0.00193563  0.11867588  1
  V  V59  1  0.75195027  0.50032512  0.75112684  1
  V  V60  1  0.26014559  0.36452560  0.61964398  1
  V  V61  1  0.75841646  0.86936035  0.13060698  1
  V  V62  1  0.12250904  -0.00573579  0.61898470  1
  V  V63  1  0.37941298  0.74244959  0.11602462  1
  V  V64  1  0.87779691  0.49250483  0.87365568  1
  V  V65  1  0.13096499  0.12540044  -0.01272190  1
  V  V66  1  0.75170287  0.62556740  0.37240479  1
  V  V67  1  0.00094518  0.13349795  0.63245638  1
  V  V68  1  0.50494991  0.87393390  0.88185981  1
  V  V69  1  -0.00793593  0.86949315  0.87587515  1
  V  V70  1  0.62677054  0.12365059  0.49455139  1
  V  V71  1  0.74806120  0.01859547  0.25624620  1
  V  V72  1  0.25251387  -0.00055408  0.74443240  1
  V  V73  1  0.62028242  0.25467071  0.37484673  1
  V  V74  1  0.19124323  -0.05124402  0.29722379  1
  V  V75  1  0.11192074  0.25603766  0.87049779  1
  V  V76  1  0.49511733  0.25134126  0.25238175  1
  V  V77  1  0.75327857  0.74951730  0.50542790  1
  V  V78  1  0.38674939  0.37146315  -0.00479050  1
  Zn  Zn79  1  0.38153130  0.62104071  0.24587564  1
  Zn  Zn80  1  0.62749282  0.62327224  0.49531657  1
  Zn  Zn81  1  0.85909216  0.24131636  0.13696796  1
  Zn  Zn82  1  0.74868178  0.11838500  0.87417118  1
  Zn  Zn83  1  -0.02753253  0.28209144  0.29797903  1
  Zn  Zn84  1  0.88845680  0.25972331  0.63222606  1
  Zn  Zn85  1  0.88005634  0.86602608  0.00716448  1
  Zn  Zn86  1  0.61776223  0.75666497  0.38240377  1
  Zn  Zn87  1  0.14102793  0.74942106  0.88136321  1
  Zn  Zn88  1  0.61342784  0.88211397  0.26310794  1
  Zn  Zn89  1  0.37510524  0.87171221  -0.00502475  1
  Zn  Zn90  1  0.00696956  0.87246147  0.35578711  1
  Zn  Zn91  1  0.37339609  0.24510805  0.12145926  1
  Zn  Zn92  1  0.73933369  0.25828212  -0.00397887  1
  Zn  Zn93  1  0.36516012  0.34879537  0.49083259  1
  Zn  Zn94  1  0.18443440  0.18494049  0.18169447  1
  Zn  Zn95  1  0.19080928  0.18723390  0.69035736  1
  Zn  Zn96  1  0.19318936  0.68345956  0.17900152  1
  Zn  Zn97  1  0.19720155  0.69386720  0.71021072  1
  Zn  Zn98  1  0.68295424  0.19156882  0.17812475  1
  Zn  Zn99  1  0.68839825  0.18713162  0.68820583  1
  Zn  Zn100  1  0.68713371  0.69164412  0.18961825  1
  Zn  Zn101  1  0.69096179  0.68719346  0.68724440  1
  Zn  Zn102  1  0.31087102  0.31184864  0.30966732  1
  Zn  Zn103  1  0.31520497  0.31174706  0.80934450  1
  Zn  Zn104  1  0.31212795  0.80511188  0.30858694  1
  Zn  Zn105  1  0.31298455  0.81157822  0.81365012  1
  Zn  Zn106  1  0.80195441  0.31001425  0.31331677  1
  Zn  Zn107  1  0.81224226  0.29856156  0.81553479  1
  Zn  Zn108  1  0.80464084  0.82201146  0.31795162  1
  Zn  Zn109  1  0.81253908  0.81179667  0.81434547  1
  Zn  Zn110  1  0.18720020  0.44076089  0.44271957  1
  Zn  Zn111  1  0.18912932  0.44027574  0.93317734  1
  Zn  Zn112  1  0.19782989  0.93308421  0.45718619  1
  Zn  Zn113  1  0.18575625  0.93853924  0.92983708  1
  Zn  Zn114  1  0.68607094  0.43632126  0.43248202  1
  Zn  Zn115  1  0.69190348  0.44668552  0.94373554  1
  Zn  Zn116  1  0.69099318  0.93573224  0.43752926  1
  Zn  Zn117  1  0.69151071  0.93882888  0.94079897  1
  Zn  Zn118  1  0.31002010  0.06024873  0.05928757  1
  Zn  Zn119  1  0.31225075  0.05913766  0.56094296  1
  Zn  Zn120  1  0.31452112  0.55957131  0.05886857  1
  Zn  Zn121  1  0.31085238  0.55666016  0.56548322  1
  Zn  Zn122  1  0.80696404  0.06121092  0.06486629  1
  Zn  Zn123  1  0.81250385  0.06153100  0.56697390  1
  Zn  Zn124  1  0.81181005  0.56261027  0.06470638  1
  Zn  Zn125  1  0.81657903  0.55835768  0.55824660  1
  Zn  Zn126  1  0.43758424  0.43710944  0.18226392  1
  Zn  Zn127  1  0.44478861  0.42415022  0.68546408  1
  Zn  Zn128  1  0.43141577  0.92859219  0.18648275  1
  Zn  Zn129  1  0.44127283  0.93656913  0.68744796  1
  Zn  Zn130  1  0.94378508  0.43645173  0.19152063  1
  Zn  Zn131  1  0.93818175  0.44502235  0.67984552  1
  Zn  Zn132  1  0.93617248  0.95619191  0.18984528  1
  Zn  Zn133  1  0.94101524  0.94144854  0.68607256  1
  Zn  Zn134  1  0.03337957  0.10364598  0.33489817  1
  Zn  Zn135  1  0.06185334  0.06311763  0.80919473  1
  Zn  Zn136  1  0.06791785  0.69528150  0.31873789  1
  Zn  Zn137  1  0.06250057  0.56239524  0.80828591  1
  Zn  Zn138  1  0.56122417  0.06448265  0.31188506  1
  Zn  Zn139  1  0.55714021  0.05515601  0.81206660  1
  Zn  Zn140  1  0.56115178  0.57054506  0.31146265  1
  Zn  Zn141  1  0.56086885  0.55543638  0.81332227  1
  Zn  Zn142  1  0.43562003  0.17496903  0.43252085  1
  Zn  Zn143  1  0.44286370  0.18825833  0.93089835  1
  Zn  Zn144  1  0.43274761  0.67624843  0.43405838  1
  Zn  Zn145  1  0.43773820  0.68948881  0.93483914  1
  Zn  Zn146  1  0.93502116  0.19176493  0.45353203  1
  Zn  Zn147  1  0.93493149  0.19155456  0.93648764  1
  Zn  Zn148  1  0.92566033  0.70379989  0.42548719  1
  Zn  Zn149  1  0.93216014  0.68751444  0.93697775  1
  Zn  Zn150  1  0.06131599  0.31205310  0.05781151  1
  Zn  Zn151  1  0.07044438  0.32032734  0.56496909  1
  Zn  Zn152  1  0.06125924  0.81533151  0.18146474  1
  Zn  Zn153  1  0.05794463  0.80971902  0.55660848  1
  Zn  Zn154  1  0.56219614  0.30843876  0.06856804  1
  Zn  Zn155  1  0.51869083  0.27790569  0.55223006  1
  Zn  Zn156  1  0.56507815  0.80477026  0.06597280  1
  Zn  Zn157  1  0.56720877  0.81295223  0.56335369  1
  O  O158  1  0.12091530  0.11710064  0.10903890  1
  O  O159  1  0.12417940  0.11963929  0.61926566  1
  O  O160  1  0.11463333  0.61511935  0.11640425  1
  O  O161  1  0.13856522  0.61484928  0.64235900  1
  O  O162  1  0.61261996  0.11277611  0.12013404  1
  O  O163  1  0.62776017  0.11382677  0.61676761  1
  O  O164  1  0.62226215  0.61579303  0.12802263  1
  O  O165  1  0.61795047  0.61147428  0.62987040  1
  O  O166  1  0.36447152  0.38854637  0.37774064  1
  O  O167  1  0.37402599  0.38418915  0.88300126  1
  O  O168  1  0.37028359  0.88170180  0.38097336  1
  O  O169  1  0.38408534  0.87858280  0.87264704  1
  O  O170  1  0.87940125  0.36073457  0.38693527  1
  O  O171  1  0.86990791  0.38932929  0.87646897  1
  O  O172  1  0.87413700  0.88403877  0.38705219  1
  O  O173  1  0.89026288  0.87574147  0.87245115  1
  O  O174  1  0.25627464  -0.00021018  0.36717089  1
  O  O175  1  0.26496368  -0.00790025  0.86050447  1
  O  O176  1  0.25620312  0.50841938  0.36944588  1
  O  O177  1  0.26585874  0.49674513  0.86517868  1
  O  O178  1  0.75219892  0.00001651  0.36103801  1
  O  O179  1  0.74589524  0.00613262  0.87444474  1
  O  O180  1  0.73910089  0.51227748  0.35711599  1
  O  O181  1  0.75873732  0.50975537  0.87077488  1
  O  O182  1  0.24540882  0.49189230  0.12844267  1
  O  O183  1  0.24466128  0.49016773  0.63515194  1
  O  O184  1  0.24079886  0.98543167  0.11321886  1
  O  O185  1  0.23850213  1.00282808  0.63390751  1
  O  O186  1  0.73432208  0.50751337  0.13775363  1
  O  O187  1  0.74238596  0.49372576  0.62947479  1
  O  O188  1  0.73724937  0.99524077  0.13575265  1
  O  O189  1  0.73752411  0.98868474  0.61985169  1
  O  O190  1  0.02036410  0.37839956  0.25214076  1
  O  O191  1  0.01495125  0.37798004  0.74276668  1
  O  O192  1  -0.00279586  0.88125147  0.24322102  1
  O  O193  1  0.00314775  0.86898335  0.75681969  1
  O  O194  1  0.50161366  0.36120229  0.24322165  1
  O  O195  1  0.52164166  0.38559908  0.76143603  1
  O  O196  1  0.49712543  0.85856136  0.24670317  1
  O  O197  1  0.50894950  0.86566391  0.75338262  1
  O  O198  1  0.48791220  0.12912041  0.24239902  1
  O  O199  1  0.49441615  0.13146819  0.74788820  1
  O  O200  1  0.49679885  0.64009883  0.24557027  1
  O  O201  1  0.49732931  0.62795573  0.74299604  1
  O  O202  1  1.00739806  0.11161372  0.22337062  1
  O  O203  1  1.00160179  0.12859935  0.73649846  1
  O  O204  1  0.98752805  0.63163377  0.23950298  1
  O  O205  1  0.99423446  0.64136284  0.75413578  1
  O  O206  1  0.36847028  0.25464514  -0.00319077  1
  O  O207  1  0.41554790  0.25151319  0.50840137  1
  O  O208  1  0.37742057  0.75061380  0.01061736  1
  O  O209  1  0.37758100  0.75126812  0.50678806  1
  O  O210  1  0.88430843  0.27037881  0.00338552  1
  O  O211  1  0.86104673  0.25916008  0.51138761  1
  O  O212  1  0.85983976  0.75309904  -0.00064595  1
  O  O213  1  0.86395577  0.76737236  0.49909250  1
  O  O214  1  0.13212907  0.23748526  0.50648927  1
  O  O215  1  0.13208827  0.24603883  0.98966502  1
  O  O216  1  0.14625578  0.75648567  0.50893101  1
  O  O217  1  0.12859108  0.73107986  0.99877705  1
  O  O218  1  0.62008584  0.24256251  0.49440122  1
  O  O219  1  0.61777711  0.23209736  1.00471541  1
  O  O220  1  0.63754723  0.74346827  0.50286693  1
  O  O221  1  0.64585475  0.75105590  1.00831466  1
  O  O222  1  0.49562559  0.23620383  0.13626648  1
  O  O223  1  0.49074373  0.27617569  0.66180897  1
  O  O224  1  0.48347423  0.75453535  0.12853359  1
  O  O225  1  0.49733889  0.73994842  0.63058070  1
  O  O226  1  1.00565166  0.23346395  0.11857024  1
  O  O227  1  1.00714922  0.23718081  0.62068248  1
  O  O228  1  1.00076689  0.73540067  0.11577726  1
  O  O229  1  0.99255010  0.75260764  0.63217277  1
  O  O230  1  0.00768628  0.20984082  0.37116815  1
  O  O231  1  0.01326448  0.25517692  0.87865888  1
  O  O232  1  0.01293834  0.76129753  0.39051305  1
  O  O233  1  0.00590742  0.76392452  0.87609762  1
  O  O234  1  0.50768631  0.23788887  0.35973447  1
  O  O235  1  0.49197886  0.25680507  0.85530777  1
  O  O236  1  0.49506168  0.74466550  0.36343862  1
  O  O237  1  0.49416342  0.76085022  0.86238952  1
  O  O238  1  0.24523761  0.11884844  0.48876000  1
  O  O239  1  0.24151787  0.13579788  1.00249672  1
  O  O240  1  0.25734284  0.63211539  0.49034814  1
  O  O241  1  0.23490401  0.61317299  1.00029419  1
  O  O242  1  0.73890363  0.13807403  0.51065471  1
  O  O243  1  0.72682883  0.11622747  1.00257417  1
  O  O244  1  0.75603279  0.63129726  0.49092511  1
  O  O245  1  0.75661092  0.63558476  0.99332550  1
  O  O246  1  0.25873984  0.37023578  0.00312721  1
  O  O247  1  0.25123520  0.37541931  0.51448437  1
  O  O248  1  0.24761559  0.86832184  0.00208988  1
  O  O249  1  0.26900473  0.85508973  0.49823493  1
  O  O250  1  0.76616082  0.37934199  -0.00189120  1
  O  O251  1  0.75033814  0.36806047  0.50603328  1
  O  O252  1  0.75168946  0.86790732  0.01153794  1
  O  O253  1  0.75465930  0.86733806  0.50992141  1
  O  O254  1  0.13917904  0.48527856  0.23638982  1
  O  O255  1  0.13588989  0.48983539  0.74998594  1
  O  O256  1  0.13472224  1.00566652  0.23345676  1
  O  O257  1  0.13338254  0.99494311  0.74373122  1
  O  O258  1  0.61918850  0.49596457  0.23821490  1
  O  O259  1  0.63276380  0.49073516  0.74520624  1
  O  O260  1  0.63205637  1.00105022  0.24362282  1
  O  O261  1  0.61575826  0.98830994  0.73873410  1
  O  O262  1  0.38031425  0.00769040  0.25781273  1
  O  O263  1  0.37146911  0.00573881  0.75057328  1
  O  O264  1  0.36588154  0.49628494  0.25340042  1
  O  O265  1  0.37873505  0.50044071  0.75734835  1
  O  O266  1  0.85731127  0.00572806  0.26043087  1
  O  O267  1  0.88360604  0.02230746  0.73894555  1
  O  O268  1  0.85941548  0.49733785  0.24497967  1
  O  O269  1  0.87162080  0.50622066  0.75616039  1
  O  O270  1  0.13952623  0.37530896  0.36244655  1
  O  O271  1  0.12950341  0.37241164  0.85996603  1
  O  O272  1  0.12990003  0.90127123  0.36481491  1
  O  O273  1  0.11751876  0.87302123  0.86205129  1
  O  O274  1  0.62175765  0.36374867  0.36305667  1
  O  O275  1  0.63776855  0.37904677  0.86734129  1
  O  O276  1  0.63183690  0.86790897  0.37333785  1
  O  O277  1  0.61146203  0.88239505  0.86627442  1
  O  O278  1  0.37688717  0.11991222  0.13237181  1
  O  O279  1  0.37744002  0.11867797  0.63461426  1
  O  O280  1  0.36421212  0.63911214  0.12541966  1
  O  O281  1  0.38890871  0.62743893  0.63182236  1
  O  O282  1  0.89090417  0.12484890  0.11249809  1
  O  O283  1  0.89450799  0.12510972  0.61945862  1
  O  O284  1  0.88569984  0.61934484  0.13595975  1
  O  O285  1  0.86872800  0.61673302  0.64197580  1
  O  O286  1  0.24988232  0.25792101  0.11079873  1
  O  O287  1  0.25016053  0.26542902  0.63207950  1
  O  O288  1  0.26064852  0.76401167  0.12715740  1
  O  O289  1  0.26683777  0.73601136  0.61361784  1
  O  O290  1  0.75034963  0.24415056  0.10877002  1
  O  O291  1  0.73931496  0.26285934  0.61524585  1
  O  O292  1  0.75014466  0.76402957  0.12224615  1
  O  O293  1  0.74832652  0.76014984  0.61733675  1
  O  O294  1  0.25727091  0.23514541  0.37973032  1
  O  O295  1  0.24289160  0.25628208  0.88387771  1
  O  O296  1  0.25926403  0.73498540  0.38660032  1
  O  O297  1  0.23363227  0.73606682  0.81801203  1
  O  O298  1  0.73400270  0.25435795  0.38924957  1
  O  O299  1  0.75474968  0.23285277  0.88662026  1
  O  O300  1  0.75219745  0.74063436  0.38488318  1
  O  O301  1  0.74975024  0.74505003  0.88587851  1
  O  O302  1  0.00980788  0.11595198  -0.00092912  1
  O  O303  1  0.02044499  0.12299671  0.51120174  1
  O  O304  1  -0.00008440  0.61461257  0.01139869  1
  O  O305  1  -0.01499864  0.60807261  0.49230449  1
  O  O306  1  0.50033128  0.12626423  0.01503026  1
  O  O307  1  0.51155444  0.10877499  0.49820188  1
  O  O308  1  0.50024870  0.61536733  -0.00013656  1
  O  O309  1  0.50325110  0.61746290  0.51095354  1
  O  O310  1  0.50444711  0.38921497  0.50552218  1
  O  O311  1  0.48824462  0.37469651  1.00846002  1
  O  O312  1  0.49292313  0.87930169  0.49871642  1
  O  O313  1  0.50259790  0.86591343  0.98377368  1
  O  O314  1  0.98403272  0.36765076  0.50844209  1
  O  O315  1  0.99167497  0.38943854  1.00305090  1
  O  O316  1  0.98306994  0.87938445  0.50379665  1
  O  O317  1  0.99891115  0.88976226  0.98599016  1
  O  O318  1  0.49181424  0.50872941  0.38303032  1
  O  O319  1  0.49542242  0.49971706  0.89184632  1
  O  O320  1  0.48942143  1.00309204  0.38359851  1
  O  O321  1  0.48475864  0.98132971  0.86681958  1
  O  O322  1  1.00413815  0.55216724  0.44779616  1
  O  O323  1  0.98933574  0.50857116  0.88400867  1
  O  O324  1  0.97794376  1.00355024  0.36672229  1
  O  O325  1  1.00747048  0.99176356  0.88180288  1
  O  O326  1  0.01133582  0.00528169  0.10517228  1
  O  O327  1  0.01851132  0.01305051  0.62965479  1
  O  O328  1  0.00977343  0.50495424  0.11914091  1
  O  O329  1  0.02038390  0.50465868  0.63198895  1
  O  O330  1  0.51004324  0.00281508  0.13580193  1
  O  O331  1  0.51233347  -0.00987066  0.61153091  1
  O  O332  1  0.50732240  0.50063245  0.11359758  1
  O  O333  1  0.50647448  0.50428175  0.61900420  1
  O  O334  1  0.24616004  0.37953964  0.23762625  1
  O  O335  1  0.25179630  0.38309420  0.74194997  1
  O  O336  1  0.24782182  0.88142148  0.24466601  1
  O  O337  1  0.23877401  0.88466274  0.74628114  1
  O  O338  1  0.73551166  0.39162239  0.25571974  1
  O  O339  1  0.74202316  0.37761781  0.74261560  1
  O  O340  1  0.74489674  0.88140246  0.23720300  1
  O  O341  1  0.73954117  0.86507804  0.74235078  1
  O  O342  1  0.25727037  0.12917225  0.25971171  1
  O  O343  1  0.26425198  0.11523988  0.74782139  1
  O  O344  1  0.25211834  0.61305216  0.25637218  1
  O  O345  1  0.27225000  0.60533041  0.73784535  1
  O  O346  1  0.74150709  0.11710722  0.24750265  1
  O  O347  1  0.76156025  0.12388811  0.74860497  1
  O  O348  1  0.76066375  0.62051237  0.25110126  1
  O  O349  1  0.75718174  0.62253502  0.75722375  1
  O  O350  1  0.36182388  0.10973034  0.37081834  1
  O  O351  1  0.38492313  0.10639690  0.86632547  1
  O  O352  1  0.36454407  0.61032663  0.36804583  1
  O  O353  1  0.38498982  0.61370315  0.86323203  1
  O  O354  1  0.86728089  0.11257860  0.39371417  1
  O  O355  1  0.88262992  0.12443258  0.86130122  1
  O  O356  1  0.86756194  0.62792042  0.35694828  1
  O  O357  1  0.86658566  0.61676662  0.86517577  1
  O  O358  1  0.13538328  0.38174175  0.11994704  1
  O  O359  1  0.13743929  0.38248648  0.63834479  1
  O  O360  1  0.13753580  0.88266773  0.11935927  1
  O  O361  1  0.11529577  0.88785966  0.63150968  1
  O  O362  1  0.62188968  0.38015745  0.13786907  1
  O  O363  1  0.63254213  0.38701330  0.63237035  1
  O  O364  1  0.63011330  0.88597564  0.12683381  1
  O  O365  1  0.63395464  0.88187601  0.63178914  1
  O  O366  1  0.13381810  0.26605566  0.24437027  1
  O  O367  1  0.13231474  0.26426181  0.75687924  1
  O  O368  1  0.12826871  0.74770610  0.24185471  1
  O  O369  1  0.10406028  0.76198070  0.74042028  1
  O  O370  1  0.61714485  0.25515156  0.25433406  1
  O  O371  1  0.61874853  0.25916065  0.75241507  1
  O  O372  1  0.60856066  0.75245329  0.24691556  1
  O  O373  1  0.61546417  0.75862785  0.74265456  1
  O  O374  1  0.37906160  0.23800882  0.24854015  1
  O  O375  1  0.37665350  0.22964806  0.75615506  1
  O  O376  1  0.38242282  0.74862684  0.23790714  1
  O  O377  1  0.38782259  0.74109891  0.74089625  1
  O  O378  1  0.87786691  0.27593134  0.24057596  1
  O  O379  1  0.87336177  0.23324334  0.74144631  1
  O  O380  1  0.86810717  0.74417707  0.24844092  1
  O  O381  1  0.88704685  0.74469898  0.75440844  1
  O  O382  1  0.38429775  0.50150589  0.49205877  1
  O  O383  1  0.38751790  0.49421814  0.99519434  1
  O  O384  1  0.38181249  0.98873508  0.49407255  1
  O  O385  1  0.36903200  0.99586710  0.98271222  1
  O  O386  1  0.86612539  0.47946542  0.49585395  1
  O  O387  1  0.87986055  0.49477308  0.99382481  1
  O  O388  1  0.85977617  0.98914225  0.48747665  1
  O  O389  1  0.88892882  1.00274609  0.99877831  1
  O  O390  1  0.12278404  0.00849654  -0.00080940  1
  O  O391  1  0.13338235  0.00415297  0.51653819  1
  O  O392  1  0.11784677  0.50171415  0.00558596  1
  O  O393  1  0.13457276  0.50413331  0.52005690  1
  O  O394  1  0.62083933  0.00311263  0.01748345  1
  O  O395  1  0.62174900  0.00482715  0.50439333  1
  O  O396  1  0.61453763  0.49672141  0.01370963  1
  O  O397  1  0.62000567  0.50262075  0.50656189  1
  O  O398  1  0.36420551  0.37289770  0.11455990  1
  O  O399  1  0.36272753  0.38117104  0.62222735  1
  O  O400  1  0.35995093  0.87128497  0.11640183  1
  O  O401  1  0.38394338  0.86035452  0.61640525  1
  O  O402  1  0.87693792  0.38452019  0.11269475  1
  O  O403  1  0.86127775  0.37739084  0.62259973  1
  O  O404  1  0.85906149  0.89083331  0.12393310  1
  O  O405  1  0.86504166  0.88906103  0.61340117  1
  O  O406  1  0.13934289  0.11659829  0.38876435  1
  O  O407  1  0.12242974  0.13472440  0.88101386  1
  O  O408  1  0.14282876  0.62189497  0.37285951  1
  O  O409  1  0.11775826  0.62215874  0.88871911  1
  O  O410  1  0.62318301  0.13378850  0.38588172  1
  O  O411  1  0.60867478  0.11324103  0.89503999  1
  O  O412  1  0.63786298  0.63376953  0.37379112  1
  O  O413  1  0.63990630  0.61755043  0.86936629  1
