# generated using pymatgen
data_V79Zn79O256
_symmetry_space_group_name_H-M   'P 1'
_cell_length_a   16.87956179
_cell_length_b   16.90767391
_cell_length_c   16.88979095
_cell_angle_alpha   90.06274395
_cell_angle_beta   89.99962914
_cell_angle_gamma   89.98364929
_symmetry_Int_Tables_number   1
_chemical_formula_structural   V79Zn79O256
_chemical_formula_sum   'V79 Zn79 O256'
_cell_volume   4820.24405073
_cell_formula_units_Z   1
loop_
 _symmetry_equiv_pos_site_id
 _symmetry_equiv_pos_as_xyz
  1  'x, y, z'
loop_
 _atom_site_type_symbol
 _atom_site_label
 _atom_site_symmetry_multiplicity
 _atom_site_fract_x
 _atom_site_fract_y
 _atom_site_fract_z
 _atom_site_occupancy
  V  V0  1  0.87888869  0.25059982  0.12724020  1
  V  V1  1  0.49761488  0.62025435  0.61837575  1
  V  V2  1  0.88105090  0.01904912  0.87791004  1
  V  V3  1  -0.00110870  0.37952468  0.87681682  1
  V  V4  1  0.34262160  0.24860711  0.62433112  1
  V  V5  1  0.25347397  0.38561723  0.13046707  1
  V  V6  1  0.62602460  0.23865032  0.87852374  1
  V  V7  1  0.74735095  0.24027298  -0.00419776  1
  V  V8  1  0.75540310  0.87545846  0.11128940  1
  V  V9  1  0.89830678  0.23857057  0.62903757  1
  V  V10  1  0.62387323  0.37335053  0.75022734  1
  V  V11  1  0.87414215  0.50324822  0.87874783  1
  V  V12  1  0.50369520  0.75658597  0.75918957  1
  V  V13  1  0.37509640  0.86537425  -0.00425107  1
  V  V14  1  0.87724112  0.12323922  0.25118226  1
  V  V15  1  0.10788012  -0.00756295  0.61755794  1
  V  V16  1  0.74228374  0.63911424  0.37935915  1
  V  V17  1  0.49795163  0.24456607  0.73864022  1
  V  V18  1  0.61389163  0.36830388  0.25084597  1
  V  V19  1  0.36220080  0.11466651  0.75101042  1
  V  V20  1  0.12244988  0.37255776  0.75317458  1
  V  V21  1  0.24970794  0.01488739  0.22542891  1
  V  V22  1  0.13503517  0.62830012  0.49072717  1
  V  V23  1  0.49280743  0.00368271  -0.01761387  1
  V  V24  1  0.74799754  0.50045502  0.75016275  1
  V  V25  1  -0.00480406  0.37129614  0.37904206  1
  V  V26  1  0.25612535  0.87510253  0.60884942  1
  V  V27  1  -0.00195742  0.75230556  0.74822089  1
  V  V28  1  0.75293716  0.12622813  0.38147632  1
  V  V29  1  0.24889232  0.62809061  0.88221967  1
  V  V30  1  0.49219913  0.75415923  0.24978760  1
  V  V31  1  0.62181971  0.63844913  0.49664606  1
  V  V32  1  0.37402895  0.49976674  0.87504740  1
  V  V33  1  0.11748055  0.50775657  0.13266069  1
  V  V34  1  0.62221196  0.49751690  0.61596377  1
  V  V35  1  0.37363318  0.62433211  0.74817541  1
  V  V36  1  0.12094511  0.62657166  0.00871630  1
  V  V37  1  0.48645256  0.88294287  0.37788137  1
  V  V38  1  0.24929114  0.49550926  0.74815098  1
  V  V39  1  0.75416816  0.36447503  0.62104298  1
  V  V40  1  0.36814094  0.60104925  0.26162368  1
  V  V41  1  0.25797262  0.11728867  0.38355048  1
  V  V42  1  0.50463995  0.50708725  -0.00028824  1
  V  V43  1  0.73702145  0.74567176  -0.00511786  1
  V  V44  1  0.37635625  0.37538621  0.00047307  1
  V  V45  1  0.86760938  0.49714159  0.37999944  1
  V  V46  1  0.87288885  0.62645237  0.75221322  1
  V  V47  1  0.12797477  0.74876471  0.87910430  1
  V  V48  1  0.61992487  0.00233480  0.11205517  1
  V  V49  1  0.00482332  0.25016382  0.24841119  1
  V  V50  1  0.62448942  0.50823279  0.12284617  1
  V  V51  1  0.74700129  0.50182777  0.25321967  1
  V  V52  1  -0.00600240  0.87824559  0.88561374  1
  V  V53  1  0.35796247  0.37884906  0.50765301  1
  V  V54  1  0.88678962  0.74710915  0.11953972  1
  V  V55  1  0.50049418  0.37423204  0.87329939  1
  V  V56  1  0.75253107  0.01971005  0.75190128  1
  V  V57  1  0.11165608  0.11360553  0.49924380  1
  V  V58  1  0.14525279  0.39546081  0.27126793  1
  V  V59  1  0.38472971  0.24689053  0.13504999  1
  V  V60  1  0.86455283  0.75031733  0.61389775  1
  V  V61  1  0.13335655  0.87069092  0.74255238  1
  V  V62  1  0.12754959  0.49503196  0.62801772  1
  V  V63  1  0.74948968  0.37712503  0.12396183  1
  V  V64  1  0.00078955  0.62446369  0.62437961  1
  V  V65  1  -0.00353075  0.49766805  0.50232574  1
  V  V66  1  0.62428961  0.11897670  0.51226165  1
  V  V67  1  0.12494979  0.25226402  0.88748859  1
  V  V68  1  0.48879256  0.00263714  0.50558316  1
  V  V69  1  0.12586230  0.87466200  0.25336283  1
  V  V70  1  0.25015395  0.24717036  -0.00100806  1
  V  V71  1  0.73373067  0.62657533  0.87900044  1
  V  V72  1  0.62807922  0.87111476  0.25108513  1
  V  V73  1  0.13153949  0.24806502  0.38492403  1
  V  V74  1  0.49876522  0.38312510  0.39170993  1
  V  V75  1  0.37091859  0.74772443  0.61153965  1
  V  V76  1  0.49481339  0.63284919  0.12667230  1
  V  V77  1  0.61784725  0.24378690  0.37393870  1
  V  V78  1  0.25333037  0.85074715  0.12021503  1
  Zn  Zn79  1  0.91871505  -0.02958883  0.40830485  1
  Zn  Zn80  1  0.75312353  0.00195828  0.24339358  1
  Zn  Zn81  1  0.00281650  0.76105558  0.26595414  1
  Zn  Zn82  1  0.87611855  0.37953254  0.00304854  1
  Zn  Zn83  1  0.25585755  0.10169783  0.87907189  1
  Zn  Zn84  1  0.25446442  0.74637920  0.46484960  1
  Zn  Zn85  1  -0.04185755  0.17089326  0.76943339  1
  Zn  Zn86  1  0.86643731  0.36264690  0.49822675  1
  Zn  Zn87  1  0.68092731  -0.05426764  0.58966033  1
  Zn  Zn88  1  0.88400780  0.63074240  0.25276151  1
  Zn  Zn89  1  0.62729672  0.88057634  0.75146080  1
  Zn  Zn90  1  0.51172548  0.13327720  0.12482270  1
  Zn  Zn91  1  -0.00593036  0.50911192  0.00766187  1
  Zn  Zn92  1  0.83808581  0.87649190  0.51168621  1
  Zn  Zn93  1  0.40141277  0.11361154  0.27143265  1
  Zn  Zn94  1  0.21596495  0.22180569  0.21384615  1
  Zn  Zn95  1  0.15353809  0.16427757  0.70849158  1
  Zn  Zn96  1  0.19496918  0.68957906  0.21202542  1
  Zn  Zn97  1  0.19024925  0.68616102  0.68518212  1
  Zn  Zn98  1  0.68885934  0.18642470  0.18744282  1
  Zn  Zn99  1  0.69090654  0.18616910  0.69371284  1
  Zn  Zn100  1  0.68774254  0.69182519  0.18688483  1
  Zn  Zn101  1  0.68361238  0.68652623  0.68887026  1
  Zn  Zn102  1  0.32182305  0.31385457  0.32118377  1
  Zn  Zn103  1  0.31132685  0.30875822  0.81026704  1
  Zn  Zn104  1  0.31225302  0.82131326  0.30511622  1
  Zn  Zn105  1  0.31925268  0.81135492  0.80578271  1
  Zn  Zn106  1  0.80616539  0.30744266  0.31177544  1
  Zn  Zn107  1  0.81453480  0.30938279  0.80896445  1
  Zn  Zn108  1  0.81835830  0.81691306  0.30691745  1
  Zn  Zn109  1  0.80712647  0.81856989  0.81532759  1
  Zn  Zn110  1  0.18509168  0.44437777  0.44066851  1
  Zn  Zn111  1  0.18697251  0.44187280  0.94304470  1
  Zn  Zn112  1  0.19395701  0.93875549  0.43286631  1
  Zn  Zn113  1  0.22364434  0.91851303  0.91504577  1
  Zn  Zn114  1  0.68173103  0.43341955  0.43907580  1
  Zn  Zn115  1  0.68715043  0.43530995  0.93653679  1
  Zn  Zn116  1  0.71814121  0.92655247  0.41681036  1
  Zn  Zn117  1  0.69113448  0.94816094  0.92612811  1
  Zn  Zn118  1  0.32177543  0.06528904  0.05627638  1
  Zn  Zn119  1  0.31054186  0.06401890  0.56526474  1
  Zn  Zn120  1  0.31150143  0.56930101  0.06989175  1
  Zn  Zn121  1  0.31374625  0.55921337  0.55891526  1
  Zn  Zn122  1  0.82047256  0.06210494  0.06121428  1
  Zn  Zn123  1  0.82401333  0.06622571  0.56672380  1
  Zn  Zn124  1  0.81315726  0.57172774  0.06476320  1
  Zn  Zn125  1  0.80754174  0.56444607  0.56179741  1
  Zn  Zn126  1  0.44032517  0.43737883  0.18863030  1
  Zn  Zn127  1  0.43463467  0.43227103  0.68246032  1
  Zn  Zn128  1  0.43378663  0.93854791  0.18281971  1
  Zn  Zn129  1  0.43958950  0.93480082  0.68419939  1
  Zn  Zn130  1  0.93929641  0.43842287  0.19461271  1
  Zn  Zn131  1  0.93636205  0.43560638  0.69136565  1
  Zn  Zn132  1  0.93825900  0.93450857  0.18978929  1
  Zn  Zn133  1  0.92714394  0.93726615  0.68949536  1
  Zn  Zn134  1  0.07167233  0.06389546  0.30232411  1
  Zn  Zn135  1  0.09095987  0.04396041  0.82821833  1
  Zn  Zn136  1  0.05531004  0.57045417  0.31542859  1
  Zn  Zn137  1  0.06189743  0.56380250  0.81484466  1
  Zn  Zn138  1  0.56938975  0.05662340  0.30714480  1
  Zn  Zn139  1  0.55862874  0.06587250  0.80299835  1
  Zn  Zn140  1  0.55690502  0.56234366  0.31274572  1
  Zn  Zn141  1  0.55786411  0.56235516  0.80483289  1
  Zn  Zn142  1  0.44045159  0.19381469  0.44825173  1
  Zn  Zn143  1  0.43934996  0.18249004  0.93386966  1
  Zn  Zn144  1  0.44399561  0.69192633  0.42878151  1
  Zn  Zn145  1  0.43709765  0.68642271  0.93823737  1
  Zn  Zn146  1  0.93541448  0.18705970  0.44168170  1
  Zn  Zn147  1  0.94279152  0.19402794  0.94696162  1
  Zn  Zn148  1  0.94269326  0.68417273  0.42766374  1
  Zn  Zn149  1  0.93545692  0.69232497  0.93998476  1
  Zn  Zn150  1  0.06527226  0.32995079  0.06909212  1
  Zn  Zn151  1  0.06799081  0.30983198  0.56223493  1
  Zn  Zn152  1  0.07273862  0.81636829  0.06490500  1
  Zn  Zn153  1  0.05853118  0.81012848  0.55074831  1
  Zn  Zn154  1  0.56528459  0.31683946  0.06005581  1
  Zn  Zn155  1  0.57143527  0.30459196  0.55915135  1
  Zn  Zn156  1  0.55937304  0.81854042  0.05653937  1
  Zn  Zn157  1  0.56095937  0.81665828  0.56499747  1
  O  O158  1  0.07552303  0.11033021  0.03427409  1
  O  O159  1  0.13059291  0.10379636  0.60804603  1
  O  O160  1  0.13571583  0.61803570  0.12013566  1
  O  O161  1  0.11565561  0.61482441  0.62328504  1
  O  O162  1  0.63403538  0.10596227  0.12349485  1
  O  O163  1  0.63133773  0.13340785  0.61052165  1
  O  O164  1  0.61750025  0.61295498  0.13271369  1
  O  O165  1  0.61870255  0.61796084  0.61406828  1
  O  O166  1  0.38915476  0.36429168  0.39550269  1
  O  O167  1  0.37897236  0.37980723  0.88236760  1
  O  O168  1  0.38749624  0.88334457  0.36866726  1
  O  O169  1  0.33917820  0.88124307  0.89317622  1
  O  O170  1  0.87670013  0.37830328  0.37668176  1
  O  O171  1  0.88036616  0.38724340  0.87379535  1
  O  O172  1  0.83446793  0.89027361  0.38805354  1
  O  O173  1  0.89198643  0.87256205  0.87717531  1
  O  O174  1  0.25373394  0.01575215  0.36730845  1
  O  O175  1  0.18621925  0.01621318  0.88558249  1
  O  O176  1  0.21258853  0.44725653  0.32985525  1
  O  O177  1  0.25375159  0.50848313  0.86947941  1
  O  O178  1  0.74122538  0.02364285  0.35973719  1
  O  O179  1  0.77260897  0.01127328  0.87215293  1
  O  O180  1  0.75135551  0.49469900  0.36769275  1
  O  O181  1  0.75585982  0.50618831  0.87232096  1
  O  O182  1  0.24374470  0.49055445  0.12521341  1
  O  O183  1  0.23871382  0.50693017  0.63718008  1
  O  O184  1  0.24173986  1.02196613  0.12581840  1
  O  O185  1  0.24701184  0.97787133  0.61445298  1
  O  O186  1  0.74466727  0.49797785  0.13332387  1
  O  O187  1  0.74228954  0.49457787  0.63156973  1
  O  O188  1  0.74661554  0.98736664  0.11519282  1
  O  O189  1  0.75928830  1.00883707  0.64484872  1
  O  O190  1  0.00685765  0.37216912  0.26696635  1
  O  O191  1  0.01011299  0.38400609  0.76414867  1
  O  O192  1  0.01974979  0.87906955  0.24157142  1
  O  O193  1  0.00932987  0.86265937  0.75177577  1
  O  O194  1  0.50969782  0.37772680  0.26040159  1
  O  O195  1  0.50314004  0.36766374  0.75489329  1
  O  O196  1  0.50884708  0.87456665  0.25179648  1
  O  O197  1  0.48950574  0.85877890  0.75322174  1
  O  O198  1  0.50681927  0.12095290  0.23927289  1
  O  O199  1  0.48259740  0.13736109  0.75485214  1
  O  O200  1  0.49586691  0.63339266  0.24490493  1
  O  O201  1  0.49261162  0.63059493  0.73763457  1
  O  O202  1  0.99710684  0.14327235  0.25194877  1
  O  O203  1  1.05423354  0.12109325  0.75232162  1
  O  O204  1  0.98244851  0.65603799  0.31256202  1
  O  O205  1  0.99626267  0.63203734  0.74372400  1
  O  O206  1  0.37175275  0.26393112  0.00140283  1
  O  O207  1  0.37311521  0.25550448  0.51989212  1
  O  O208  1  0.38169511  0.76522737  -0.00226388  1
  O  O209  1  0.37141910  0.73895617  0.50739270  1
  O  O210  1  0.86556092  0.25684299  0.00829449  1
  O  O211  1  0.88208743  0.25102370  0.52061683  1
  O  O212  1  0.86481067  0.74553704  0.01441197  1
  O  O213  1  0.87533061  0.73800051  0.51289197  1
  O  O214  1  0.12000952  0.23246276  0.49367366  1
  O  O215  1  0.13644998  0.27169938  0.99647701  1
  O  O216  1  0.12720094  0.73065105  0.50175002  1
  O  O217  1  0.12484036  0.74272356  0.98658095  1
  O  O218  1  0.62261327  0.23240584  0.48693254  1
  O  O219  1  0.63872649  0.25617405  0.99552029  1
  O  O220  1  0.62032263  0.73648321  0.50297672  1
  O  O221  1  0.63783135  0.75347143  0.99956400  1
  O  O222  1  0.48873675  0.25480331  0.11755539  1
  O  O223  1  0.50569933  0.25359421  0.63831524  1
  O  O224  1  0.50875764  0.73774750  0.12739729  1
  O  O225  1  0.48875432  0.73810484  0.62703614  1
  O  O226  1  0.99124312  0.27040017  0.13768252  1
  O  O227  1  0.99889330  0.25269950  0.63265728  1
  O  O228  1  0.98716226  0.75903447  0.11955708  1
  O  O229  1  0.99567741  0.73934044  0.62987841  1
  O  O230  1  0.00469087  0.25514163  0.37017547  1
  O  O231  1  0.01142343  0.26577032  0.88375146  1
  O  O232  1  -0.00762150  0.79011244  0.40306561  1
  O  O233  1  0.00697455  0.75559959  0.86653132  1
  O  O234  1  0.51068851  0.25906755  0.37697341  1
  O  O235  1  0.50697938  0.25721756  0.87125191  1
  O  O236  1  0.50237627  0.77058323  0.36429083  1
  O  O237  1  0.49541415  0.73923265  0.85789379  1
  O  O238  1  0.24109755  0.11989721  0.48709689  1
  O  O239  1  0.25977265  0.14452147  0.99481262  1
  O  O240  1  0.23858290  0.62283398  0.50430099  1
  O  O241  1  0.24335178  0.62016728  0.98936748  1
  O  O242  1  0.74284026  0.12037485  0.48715136  1
  O  O243  1  0.75508705  0.14242208  1.00364241  1
  O  O244  1  0.73443970  0.62227955  0.49034963  1
  O  O245  1  0.74638438  0.63599522  0.99516634  1
  O  O246  1  0.26088876  0.37515953  0.00963856  1
  O  O247  1  0.25845271  0.37543252  0.49477021  1
  O  O248  1  0.25535516  0.87347711  0.01555966  1
  O  O249  1  0.24428288  0.86171018  0.50606505  1
  O  O250  1  0.75190098  0.37445094  0.01348174  1
  O  O251  1  0.74764849  0.37703903  0.51668348  1
  O  O252  1  0.75032747  0.86421774  0.00687012  1
  O  O253  1  0.72340710  0.87258930  0.51373364  1
  O  O254  1  0.10609079  0.50133265  0.24226008  1
  O  O255  1  0.12992181  0.49577112  0.74650058  1
  O  O256  1  0.14251971  0.99227558  0.24341983  1
  O  O257  1  0.12518059  0.97984193  0.72517463  1
  O  O258  1  0.63032524  0.49179479  0.24344412  1
  O  O259  1  0.62821564  0.49365991  0.73965163  1
  O  O260  1  0.62946138  0.98629820  0.22966493  1
  O  O261  1  0.64567093  1.00805817  0.76158743  1
  O  O262  1  0.35802479  0.00923470  0.23635600  1
  O  O263  1  0.37717228  0.01650540  0.73894008  1
  O  O264  1  0.37806360  0.50008378  0.25832019  1
  O  O265  1  0.36792471  0.50257870  0.75374136  1
  O  O266  1  0.87516812  0.01859986  0.23520008  1
  O  O267  1  0.86881125  -0.00218296  0.76404308  1
  O  O268  1  0.86535185  0.50407210  0.26197098  1
  O  O269  1  0.86911289  0.50646391  0.75940591  1
  O  O270  1  0.10934453  0.36395988  0.38502068  1
  O  O271  1  0.11621493  0.38115782  0.87177219  1
  O  O272  1  0.14375166  0.87696440  0.35218585  1
  O  O273  1  0.12412374  0.86208980  0.86109797  1
  O  O274  1  0.61765974  0.36544573  0.37078123  1
  O  O275  1  0.61947701  0.36986553  0.86851049  1
  O  O276  1  0.62947348  0.88138476  0.35142112  1
  O  O277  1  0.65382358  0.86697296  0.85951197  1
  O  O278  1  0.37660803  0.14506163  0.12169365  1
  O  O279  1  0.36312754  0.14048135  0.63596758  1
  O  O280  1  0.38867688  0.61592791  0.14046276  1
  O  O281  1  0.38008987  0.62701643  0.62745044  1
  O  O282  1  0.87005629  0.14383706  0.13272692  1
  O  O283  1  0.88574880  0.13866029  0.63019056  1
  O  O284  1  0.87212388  0.64001478  0.13521758  1
  O  O285  1  0.88410292  0.62702874  0.63050935  1
  O  O286  1  0.26361173  0.26142158  0.11409823  1
  O  O287  1  0.24530786  0.24973472  0.63042282  1
  O  O288  1  0.25690311  0.75245545  0.12987958  1
  O  O289  1  0.25817192  0.75368076  0.62223620  1
  O  O290  1  0.75476992  0.26013706  0.11683060  1
  O  O291  1  0.75448757  0.26347117  0.63161143  1
  O  O292  1  0.75249044  0.75756291  0.11394899  1
  O  O293  1  0.76627515  0.73748656  0.63105931  1
  O  O294  1  0.23677694  0.24169050  0.36634570  1
  O  O295  1  0.23786842  0.26421884  0.88653260  1
  O  O296  1  0.24983839  0.74591194  0.35424516  1
  O  O297  1  0.23951846  0.73644488  0.86213119  1
  O  O298  1  0.73660406  0.23867377  0.37087854  1
  O  O299  1  0.74490599  0.25965497  0.88926938  1
  O  O300  1  0.74751335  0.73572364  0.36714629  1
  O  O301  1  0.75985401  0.73928802  0.88818389  1
  O  O302  1  0.00476826  0.13538440  0.03507048  1
  O  O303  1  0.01254155  0.11631200  0.49199548  1
  O  O304  1  0.01532011  0.62706908  -0.00334283  1
  O  O305  1  0.00778810  0.61700945  0.50765962  1
  O  O306  1  0.49387369  0.10916079  0.00558621  1
  O  O307  1  0.51395724  0.11322400  0.49071516  1
  O  O308  1  0.49199724  0.61316028  0.00861983  1
  O  O309  1  0.51008379  0.62599112  0.50612064  1
  O  O310  1  0.50466761  0.37315156  0.49395988  1
  O  O311  1  0.49353657  0.38605149  0.99525457  1
  O  O312  1  0.50440695  0.88593337  0.48530026  1
  O  O313  1  0.48438100  0.88523115  0.99909226  1
  O  O314  1  0.99716584  0.37925692  0.49339371  1
  O  O315  1  0.99641907  0.38461435  0.99008950  1
  O  O316  1  0.99321629  0.84858091  0.45984147  1
  O  O317  1  1.01265389  0.87187919  0.98339775  1
  O  O318  1  0.50774144  0.48207168  0.37868047  1
  O  O319  1  0.49470282  0.49683149  0.88072418  1
  O  O320  1  0.50841166  0.98757638  0.37790977  1
  O  O321  1  0.50485003  1.00239242  0.88371613  1
  O  O322  1  0.98622019  0.49023868  0.38119133  1
  O  O323  1  0.98880690  0.49874122  0.87744713  1
  O  O324  1  1.00888760  0.99401223  0.35759521  1
  O  O325  1  0.99586161  0.98345960  0.86607022  1
  O  O326  1  -0.01138512  0.00750466  0.10136605  1
  O  O327  1  0.00959175  -0.01602522  0.61783272  1
  O  O328  1  0.00937203  0.49433783  0.12310946  1
  O  O329  1  0.00448002  0.50709346  0.62465346  1
  O  O330  1  0.51381829  -0.00408623  0.11533117  1
  O  O331  1  0.49682500  -0.00395848  0.60576563  1
  O  O332  1  0.50778351  0.50572128  0.11852290  1
  O  O333  1  0.50798807  0.51022484  0.63290939  1
  O  O334  1  0.24912244  0.34925497  0.23431519  1
  O  O335  1  0.24097515  0.38978103  0.75939871  1
  O  O336  1  0.25134414  0.89127610  0.22949476  1
  O  O337  1  0.23858458  0.86186453  0.73268393  1
  O  O338  1  0.74214205  0.38350056  0.24221427  1
  O  O339  1  0.74415814  0.38051691  0.74205530  1
  O  O340  1  0.73928079  0.87347967  0.23278906  1
  O  O341  1  0.74695544  0.89132588  0.75685953  1
  O  O342  1  0.24313754  0.12052334  0.25914565  1
  O  O343  1  0.25632778  0.12703657  0.75509456  1
  O  O344  1  0.26903848  0.61479352  0.24675008  1
  O  O345  1  0.25249281  0.61437608  0.75858170  1
  O  O346  1  0.76305599  0.12946378  0.25496363  1
  O  O347  1  0.75768679  0.12120797  0.75702981  1
  O  O348  1  0.74142122  0.61533398  0.26396446  1
  O  O349  1  0.75283464  0.62027142  0.75974124  1
  O  O350  1  0.36061773  0.14307932  0.37620521  1
  O  O351  1  0.36711039  0.13284690  0.85901450  1
  O  O352  1  0.38647035  0.62443388  0.35923905  1
  O  O353  1  0.36651599  0.61952081  0.87023772  1
  O  O354  1  0.86273640  0.13342184  0.36794700  1
  O  O355  1  0.90572764  0.12154576  0.86659421  1
  O  O356  1  0.85054685  0.61222719  0.38311996  1
  O  O357  1  0.86893378  0.61793620  0.87209083  1
  O  O358  1  0.13563767  0.38885837  0.14381290  1
  O  O359  1  0.11684481  0.38726162  0.63587941  1
  O  O360  1  0.14659320  0.87224090  0.13008424  1
  O  O361  1  0.13021546  0.87494042  0.62011626  1
  O  O362  1  0.63067026  0.38482857  0.13230229  1
  O  O363  1  0.63476631  0.37860821  0.62905971  1
  O  O364  1  0.63531715  0.88243203  0.12390889  1
  O  O365  1  0.60404828  0.88438055  0.64170602  1
  O  O366  1  0.11895130  0.26741545  0.26296987  1
  O  O367  1  0.13448750  0.26807234  0.76980535  1
  O  O368  1  0.11938059  0.76568856  0.24285494  1
  O  O369  1  0.11559881  0.74917312  0.75397324  1
  O  O370  1  0.62991844  0.26121764  0.25414620  1
  O  O371  1  0.61812408  0.25354964  0.75891890  1
  O  O372  1  0.61506741  0.76544073  0.23884113  1
  O  O373  1  0.60543300  0.74733803  0.74186648  1
  O  O374  1  0.37472803  0.24992920  0.23667594  1
  O  O375  1  0.37726515  0.25038668  0.73605775  1
  O  O376  1  0.39155266  0.75579457  0.24251349  1
  O  O377  1  0.38132347  0.74160224  0.73758767  1
  O  O378  1  0.88375094  0.24717372  0.24549692  1
  O  O379  1  0.88359127  0.25310583  0.73926427  1
  O  O380  1  0.88061119  0.75492067  0.23644584  1
  O  O381  1  0.88426936  0.74516869  0.74486193  1
  O  O382  1  0.37701363  0.47823789  0.51323570  1
  O  O383  1  0.38212261  0.49279494  0.99729107  1
  O  O384  1  0.38899759  1.01208006  0.49626683  1
  O  O385  1  0.38596226  0.99372621  0.99634659  1
  O  O386  1  0.87568228  0.49645145  0.49301191  1
  O  O387  1  0.87253725  0.50289311  0.99165923  1
  O  O388  1  0.87641612  0.98681449  0.51025048  1
  O  O389  1  0.88181486  1.01090805  0.98000841  1
  O  O390  1  0.06084033  0.00515480  0.08251617  1
  O  O391  1  0.12545224  0.00246121  0.50381240  1
  O  O392  1  0.12327569  0.50927110  0.01260451  1
  O  O393  1  0.11939128  0.50489148  0.51215541  1
  O  O394  1  0.61496822  -0.00968681  0.00477928  1
  O  O395  1  0.62313073  0.01427669  0.50291388  1
  O  O396  1  0.61495585  0.49355302  0.00947333  1
  O  O397  1  0.62644883  0.50420067  0.51265144  1
  O  O398  1  0.37316316  0.37079638  0.11828509  1
  O  O399  1  0.36994146  0.36179343  0.61888070  1
  O  O400  1  0.36253390  0.88047884  0.11087853  1
  O  O401  1  0.36247502  0.86390274  0.62419570  1
  O  O402  1  0.86428441  0.37020133  0.13101381  1
  O  O403  1  0.86362122  0.37265905  0.62702299  1
  O  O404  1  0.86116218  0.86737556  0.12865761  1
  O  O405  1  0.88199134  0.85349272  0.62232018  1
  O  O406  1  0.13428298  0.12900876  0.38332554  1
  O  O407  1  0.12075952  0.15505480  0.89022218  1
  O  O408  1  0.12965120  0.60856541  0.39309533  1
  O  O409  1  0.13068173  0.62909974  0.88279883  1
  O  O410  1  0.63401900  0.13108463  0.37420319  1
  O  O411  1  0.62031679  0.14057088  0.87480079  1
  O  O412  1  0.62963388  0.61921068  0.38676824  1
  O  O413  1  0.63447909  0.61734626  0.87149109  1
