# generated using pymatgen
data_V79Zn79O256
_symmetry_space_group_name_H-M   'P 1'
_cell_length_a   16.93335654
_cell_length_b   16.92347958
_cell_length_c   16.93080924
_cell_angle_alpha   90.09024555
_cell_angle_beta   89.85396799
_cell_angle_gamma   90.11415695
_symmetry_Int_Tables_number   1
_chemical_formula_structural   V79Zn79O256
_chemical_formula_sum   'V79 Zn79 O256'
_cell_volume   4851.85287273
_cell_formula_units_Z   1
loop_
 _symmetry_equiv_pos_site_id
 _symmetry_equiv_pos_as_xyz
  1  'x, y, z'
loop_
 _atom_site_type_symbol
 _atom_site_label
 _atom_site_symmetry_multiplicity
 _atom_site_fract_x
 _atom_site_fract_y
 _atom_site_fract_z
 _atom_site_occupancy
  V  V0  1  0.12330075  0.50864173  0.12919030  1
  V  V1  1  0.12576251  0.37463632  0.25243446  1
  V  V2  1  0.73410736  0.12976680  0.37264391  1
  V  V3  1  0.25328730  0.12497043  0.87362063  1
  V  V4  1  0.37799608  0.87385158  0.50434492  1
  V  V5  1  0.36442816  0.00891938  0.38648253  1
  V  V6  1  0.86954630  0.00302703  0.86918378  1
  V  V7  1  0.86604779  0.87465454  0.00082916  1
  V  V8  1  0.49268765  0.63391730  0.12616959  1
  V  V9  1  0.00614109  0.37170404  0.38751235  1
  V  V10  1  0.12948462  0.12053124  0.50140523  1
  V  V11  1  0.48811270  0.49192514  -0.00023530  1
  V  V12  1  0.63936162  0.38056649  0.75569509  1
  V  V13  1  0.13272932  0.24149532  0.37576422  1
  V  V14  1  0.48490197  -0.01917583  0.01926394  1
  V  V15  1  0.37913959  0.38004114  0.50207490  1
  V  V16  1  0.13732726  0.74957053  0.88030821  1
  V  V17  1  0.25425166  0.00070442  0.75148201  1
  V  V18  1  -0.00294592  0.74667174  0.24824185  1
  V  V19  1  0.62029558  0.87828513  0.24628669  1
  V  V20  1  0.24122999  0.37587303  0.63550269  1
  V  V21  1  0.49918752  0.13780782  0.12383867  1
  V  V22  1  0.61218583  0.75270378  0.36998571  1
  V  V23  1  0.36678402  0.12713195  0.25282892  1
  V  V24  1  0.38097288  0.61663773  0.75953555  1
  V  V25  1  0.49067493  0.86016395  0.87045685  1
  V  V26  1  0.25773160  0.37507919  0.12451934  1
  V  V27  1  0.62979540  0.00652367  0.12983477  1
  V  V28  1  0.87264492  0.48972791  0.37688019  1
  V  V29  1  0.12977642  0.26063246  0.86832938  1
  V  V30  1  0.11991863  0.87107947  0.75099997  1
  V  V31  1  0.40746781  0.74353711  0.62778895  1
  V  V32  1  0.61729227  0.12665357  -0.00482435  1
  V  V33  1  -0.00344859  0.00677277  0.00760683  1
  V  V34  1  0.01636541  0.51992022  0.49016398  1
  V  V35  1  -0.00181387  0.24313882  0.23958047  1
  V  V36  1  0.74462772  -0.00239168  0.74518158  1
  V  V37  1  0.74145700  0.12395071  0.87150777  1
  V  V38  1  0.12625370  0.50406849  0.62877067  1
  V  V39  1  0.75606796  0.64721143  0.37098210  1
  V  V40  1  -0.00393417  0.38788843  0.87298517  1
  V  V41  1  0.88478216  0.23716654  0.61124262  1
  V  V42  1  0.61308668  0.24614455  0.86200846  1
  V  V43  1  0.48467828  0.37658953  0.86961360  1
  V  V44  1  -0.00567572  0.00705041  0.50744196  1
  V  V45  1  0.12737547  0.87923682  0.24507044  1
  V  V46  1  0.25189554  0.86563166  0.62498274  1
  V  V47  1  0.11754928  0.00309258  0.62803533  1
  V  V48  1  0.25888914  0.50186846  0.25299734  1
  V  V49  1  -0.00300041  0.49985310  0.00431269  1
  V  V50  1  0.87169272  0.01246313  0.36367030  1
  V  V51  1  0.37611488  -0.00168419  0.87950428  1
  V  V52  1  0.11893856  0.12868361  0.00324620  1
  V  V53  1  0.74861102  0.87828822  0.12845552  1
  V  V54  1  0.13378886  0.00122456  0.12274856  1
  V  V55  1  0.25236606  0.63169120  0.39207322  1
  V  V56  1  0.49407209  0.12432139  0.63099909  1
  V  V57  1  0.63125417  0.62854124  -0.00156010  1
  V  V58  1  0.13314359  0.62872744  0.00405096  1
  V  V59  1  0.63674834  0.74733111  0.88082783  1
  V  V60  1  0.50358244  0.25722543  0.26283175  1
  V  V61  1  0.72353014  0.24622835  0.49929139  1
  V  V62  1  0.00426874  0.63518014  0.62850538  1
  V  V63  1  -0.00066752  0.87866124  0.37389767  1
  V  V64  1  0.37819036  0.64392301  0.24898855  1
  V  V65  1  0.00032702  0.87662621  0.87965858  1
  V  V66  1  0.25649926  0.25251204  0.00137936  1
  V  V67  1  0.37363914  0.24444713  0.65076669  1
  V  V68  1  0.86544394  0.87246048  0.50647591  1
  V  V69  1  0.25493464  0.24569734  0.49892425  1
  V  V70  1  0.64104483  0.37768951  0.25160615  1
  V  V71  1  0.26137329  0.76538080  0.02209983  1
  V  V72  1  -0.00967240  0.23741074  0.75892736  1
  V  V73  1  0.63562401  0.50079779  0.13091401  1
  V  V74  1  0.49712884  0.88768493  0.37237873  1
  V  V75  1  0.62763100  0.49644932  0.61408871  1
  V  V76  1  0.61786989  0.00592578  0.60903327  1
  V  V77  1  0.62566727  0.86967985  0.74944338  1
  V  V78  1  0.87274407  0.74356506  0.12668439  1
  Zn  Zn79  1  0.73459296  0.85070218  0.60757751  1
  Zn  Zn80  1  0.87029784  0.13218744  0.23283263  1
  Zn  Zn81  1  0.51156020  0.37876305  0.38762275  1
  Zn  Zn82  1  0.82459513  0.69939658  0.65071897  1
  Zn  Zn83  1  -0.01238972  0.73147488  0.76959086  1
  Zn  Zn84  1  0.81211941  0.31902445  0.05022850  1
  Zn  Zn85  1  0.37899314  0.25663079  0.12318688  1
  Zn  Zn86  1  0.50187556  0.52514131  0.50644050  1
  Zn  Zn87  1  0.86742758  0.61193771  0.24050601  1
  Zn  Zn88  1  0.63554188  0.65818703  0.52278152  1
  Zn  Zn89  1  0.77871373  0.52351018  0.76508960  1
  Zn  Zn90  1  0.24716280  0.00137301  0.25484808  1
  Zn  Zn91  1  0.75718461  0.36770611  0.61941411  1
  Zn  Zn92  1  0.38178361  0.50277912  0.37675277  1
  Zn  Zn93  1  0.12531832  0.74189954  0.38460918  1
  Zn  Zn94  1  0.18481523  0.18772310  0.18448617  1
  Zn  Zn95  1  0.18750259  0.18646988  0.68918547  1
  Zn  Zn96  1  0.18847394  0.69352687  0.19602073  1
  Zn  Zn97  1  0.18942215  0.68384652  0.69273113  1
  Zn  Zn98  1  0.69047981  0.19096160  0.18843190  1
  Zn  Zn99  1  0.68722664  0.18432282  0.68588999  1
  Zn  Zn100  1  0.68914947  0.68769140  0.19002132  1
  Zn  Zn101  1  0.66714584  0.68157583  0.69546585  1
  Zn  Zn102  1  0.31672979  0.31323155  0.31516939  1
  Zn  Zn103  1  0.30448082  0.45025944  0.81308561  1
  Zn  Zn104  1  0.31075146  0.81640843  0.31655058  1
  Zn  Zn105  1  0.31515043  0.80584249  0.80600374  1
  Zn  Zn106  1  0.81516696  0.30830783  0.31858301  1
  Zn  Zn107  1  0.81843831  0.30653575  0.85411485  1
  Zn  Zn108  1  0.81224700  0.82401526  0.30797260  1
  Zn  Zn109  1  0.81771535  0.70313317  0.81675849  1
  Zn  Zn110  1  0.19613432  0.43630797  0.43978844  1
  Zn  Zn111  1  0.19250124  0.43768417  0.94764124  1
  Zn  Zn112  1  0.18192059  0.91817360  0.44393740  1
  Zn  Zn113  1  0.18976082  0.93647853  0.94281149  1
  Zn  Zn114  1  0.69329173  0.42855126  0.43899975  1
  Zn  Zn115  1  0.69144210  0.43739694  0.93679242  1
  Zn  Zn116  1  0.68852338  0.94363337  0.42901771  1
  Zn  Zn117  1  0.67886527  0.93778330  0.94000302  1
  Zn  Zn118  1  0.31218328  0.06796822  0.06310849  1
  Zn  Zn119  1  0.31110062  0.06266109  0.56763941  1
  Zn  Zn120  1  0.31093278  0.56672900  0.06237708  1
  Zn  Zn121  1  0.30412418  0.57812214  0.59542823  1
  Zn  Zn122  1  0.80628826  0.06582015  0.05401948  1
  Zn  Zn123  1  0.80773799  0.06843706  0.56202670  1
  Zn  Zn124  1  0.81705425  0.56523570  -0.06108711  1
  Zn  Zn125  1  0.84584886  0.52501800  0.59157761  1
  Zn  Zn126  1  0.44506041  0.44088929  0.18517926  1
  Zn  Zn127  1  0.44269986  0.43616364  0.68641605  1
  Zn  Zn128  1  0.43870544  0.94671423  0.19323619  1
  Zn  Zn129  1  0.44004026  0.93775797  0.69007683  1
  Zn  Zn130  1  0.92894708  0.43541662  0.18723395  1
  Zn  Zn131  1  0.92489362  0.40953971  0.71339910  1
  Zn  Zn132  1  0.93874686  0.93794987  0.18645607  1
  Zn  Zn133  1  0.89173110  0.87660486  0.72040899  1
  Zn  Zn134  1  0.06082326  0.06239602  0.31217680  1
  Zn  Zn135  1  0.06548613  0.06002909  0.81782908  1
  Zn  Zn136  1  0.06726112  0.56664084  0.31218258  1
  Zn  Zn137  1  0.12280118  0.54015598  0.83121039  1
  Zn  Zn138  1  0.55514267  0.06417667  0.30962504  1
  Zn  Zn139  1  0.55307738  0.05595605  0.80705990  1
  Zn  Zn140  1  0.55930062  0.56006669  0.31697400  1
  Zn  Zn141  1  0.55940986  0.55943555  0.81038424  1
  Zn  Zn142  1  0.44369545  0.18443801  0.44476662  1
  Zn  Zn143  1  0.43683361  0.18673732  0.93351673  1
  Zn  Zn144  1  0.44152002  0.68975872  0.44092359  1
  Zn  Zn145  1  0.42934480  0.68124254  0.93952084  1
  Zn  Zn146  1  0.94682738  0.18519719  0.43154399  1
  Zn  Zn147  1  0.93347166  0.19262655  0.94363999  1
  Zn  Zn148  1  0.93291580  0.69003965  0.43922337  1
  Zn  Zn149  1  0.95115080  0.68808044  0.95365917  1
  Zn  Zn150  1  0.06395964  0.31892067  0.06104075  1
  Zn  Zn151  1  0.06118911  0.30544438  0.57034856  1
  Zn  Zn152  1  0.06074546  0.81384952  0.06489117  1
  Zn  Zn153  1  0.06489197  0.81799123  0.55499849  1
  Zn  Zn154  1  0.60448769  0.33181551  0.04264605  1
  Zn  Zn155  1  0.55595965  0.31014798  0.57927927  1
  Zn  Zn156  1  0.54762834  0.81920082  0.06488267  1
  Zn  Zn157  1  0.56313767  0.82491203  0.55194233  1
  O  O158  1  0.12654794  0.11899613  0.11094916  1
  O  O159  1  0.13176526  0.11318826  0.61706192  1
  O  O160  1  0.12988542  0.61489828  0.12785965  1
  O  O161  1  0.12446338  0.61161340  0.62150184  1
  O  O162  1  0.62129211  0.12497023  0.11604940  1
  O  O163  1  0.60999969  0.11430944  0.63068278  1
  O  O164  1  0.61374751  0.62101035  0.12217469  1
  O  O165  1  0.62645251  0.59967835  0.62516752  1
  O  O166  1  0.37215895  0.37847449  0.39356305  1
  O  O167  1  0.38607984  0.38246086  0.86874230  1
  O  O168  1  0.37847390  0.88560125  0.38204765  1
  O  O169  1  0.38557736  0.87881128  0.86863627  1
  O  O170  1  0.89138414  0.38360061  0.37061858  1
  O  O171  1  0.89697990  0.39761406  0.86643535  1
  O  O172  1  0.87960358  0.89411134  0.37704272  1
  O  O173  1  0.88510187  0.88409108  0.88728319  1
  O  O174  1  0.26225700  -0.00518475  0.37801635  1
  O  O175  1  0.25501795  0.00413045  0.87232732  1
  O  O176  1  0.25600092  0.50919594  0.36749684  1
  O  O177  1  0.22583107  0.50534472  0.86756359  1
  O  O178  1  0.76366434  0.01579621  0.37680923  1
  O  O179  1  0.74976674  -0.00060981  0.86633552  1
  O  O180  1  0.77321229  0.48768276  0.37859230  1
  O  O181  1  0.74822140  0.50650694  0.87296819  1
  O  O182  1  0.24474478  0.49477043  0.13439909  1
  O  O183  1  0.23615959  0.48500109  0.61355130  1
  O  O184  1  0.23696593  1.00300518  0.12389484  1
  O  O185  1  0.24347710  0.99293010  0.63614502  1
  O  O186  1  0.73083841  0.50707924  0.12455950  1
  O  O187  1  0.73677114  0.48263468  0.61733128  1
  O  O188  1  0.73673860  0.99616135  0.11815012  1
  O  O189  1  0.73104752  1.01026971  0.63205905  1
  O  O190  1  0.01641080  0.36844373  0.26061354  1
  O  O191  1  0.01096139  0.36061836  0.76777775  1
  O  O192  1  0.00216603  0.87053507  0.25595198  1
  O  O193  1  0.00902003  0.87500819  0.76337243  1
  O  O194  1  0.49456947  0.36246489  0.25566723  1
  O  O195  1  0.50947232  0.38285560  0.76731690  1
  O  O196  1  0.50842282  0.88157521  0.25819813  1
  O  O197  1  0.51190700  0.88333596  0.76446151  1
  O  O198  1  0.49349428  0.13961877  0.24538572  1
  O  O199  1  0.49138672  0.11596498  0.73577792  1
  O  O200  1  0.48596619  0.61862486  0.23990481  1
  O  O201  1  0.48383253  0.62033274  0.75123971  1
  O  O202  1  1.00097151  0.13922884  0.24948368  1
  O  O203  1  1.00366313  0.13791837  0.76538203  1
  O  O204  1  0.99724174  0.64359220  0.26203134  1
  O  O205  1  1.00380389  0.62540525  0.72836709  1
  O  O206  1  0.35975155  0.24242834  0.00242471  1
  O  O207  1  0.36270085  0.25257968  0.50118353  1
  O  O208  1  0.35880598  0.74598067  0.00212253  1
  O  O209  1  0.38411665  0.76410846  0.51462820  1
  O  O210  1  0.85754410  0.26911936  -0.04236682  1
  O  O211  1  0.89172319  0.24516763  0.51124223  1
  O  O212  1  0.88577041  0.76577471  0.01761352  1
  O  O213  1  0.87781991  0.77366826  0.49287979  1
  O  O214  1  0.13205153  0.24049608  0.49679309  1
  O  O215  1  0.13040662  0.24389635  0.99367012  1
  O  O216  1  0.13587902  0.81174513  0.47052839  1
  O  O217  1  0.13117127  0.74734138  1.00016941  1
  O  O218  1  0.62456167  0.24925360  0.50554621  1
  O  O219  1  0.61035173  0.23066336  0.98609328  1
  O  O220  1  0.62614959  0.76713954  0.47344908  1
  O  O221  1  0.61368046  0.74033852  0.99224112  1
  O  O222  1  0.49864074  0.24358399  0.13263419  1
  O  O223  1  0.48247490  0.24088190  0.63683527  1
  O  O224  1  0.50302402  0.73227722  0.12357481  1
  O  O225  1  0.50584096  0.76047797  0.62916452  1
  O  O226  1  1.01232368  0.25685091  0.14122010  1
  O  O227  1  0.99250983  0.24972584  0.64538047  1
  O  O228  1  0.98623567  0.76028025  0.13621777  1
  O  O229  1  1.02093221  0.73575054  0.61699637  1
  O  O230  1  0.01582341  0.25563917  0.36833004  1
  O  O231  1  0.01542116  0.25914902  0.87590359  1
  O  O232  1  -0.00367398  0.76674396  0.36856426  1
  O  O233  1  0.01193719  0.76367429  0.88237906  1
  O  O234  1  0.50063871  0.24960098  0.36496231  1
  O  O235  1  0.50121771  0.26506414  0.88004552  1
  O  O236  1  0.50757391  0.76701533  0.36924653  1
  O  O237  1  0.49679642  0.75932178  0.87687811  1
  O  O238  1  0.24093348  0.13264868  0.50458207  1
  O  O239  1  0.24048327  0.13206343  0.99397934  1
  O  O240  1  0.26456204  0.61642898  0.48922448  1
  O  O241  1  0.23860133  0.63903451  1.00977704  1
  O  O242  1  0.74979745  0.13547637  0.48566347  1
  O  O243  1  0.72583491  0.10641896  0.98132915  1
  O  O244  1  0.72605212  0.61597777  0.46232396  1
  O  O245  1  0.72891068  0.62465149  1.00355689  1
  O  O246  1  0.24420731  0.36433458  0.01385899  1
  O  O247  1  0.25966044  0.36412250  0.50893646  1
  O  O248  1  0.24755756  0.86531034  0.00616713  1
  O  O249  1  0.27042650  0.88960736  0.51516370  1
  O  O250  1  0.71292649  0.35976108  0.01187031  1
  O  O251  1  0.75079245  0.34883824  0.49833499  1
  O  O252  1  0.75767203  0.88235724  0.00918213  1
  O  O253  1  0.76186597  0.88561949  0.49404682  1
  O  O254  1  0.13515361  0.49406905  0.24768536  1
  O  O255  1  0.11393375  0.49548482  0.72637355  1
  O  O256  1  0.12493517  1.00125971  0.23740854  1
  O  O257  1  0.13048503  0.99071071  0.74750725  1
  O  O258  1  0.62008847  0.49202182  0.24176634  1
  O  O259  1  0.62991915  0.48715300  0.74649869  1
  O  O260  1  0.61996857  0.99580296  0.23773418  1
  O  O261  1  0.63019554  0.98792721  0.75034564  1
  O  O262  1  0.36917219  0.00852818  0.25925349  1
  O  O263  1  0.36098417  -0.00844151  0.76118330  1
  O  O264  1  0.36568933  0.50184138  0.25093536  1
  O  O265  1  0.37651474  0.50765567  0.74493645  1
  O  O266  1  0.88323848  0.01101582  0.25955016  1
  O  O267  1  0.85834427  -0.01866654  0.76151671  1
  O  O268  1  0.89753803  0.50584775  0.27136948  1
  O  O269  1  0.86978629  0.50172522  0.70205199  1
  O  O270  1  0.12589390  0.36602881  0.36949383  1
  O  O271  1  0.12892451  0.36088283  0.87854859  1
  O  O272  1  0.10359792  0.90473627  0.35514541  1
  O  O273  1  0.11813057  0.87400363  0.87060616  1
  O  O274  1  0.62460009  0.38263464  0.35601540  1
  O  O275  1  0.61669801  0.36418151  0.86679782  1
  O  O276  1  0.61727514  0.87935935  0.36419372  1
  O  O277  1  0.62112479  0.86278970  0.86822434  1
  O  O278  1  0.38284370  0.12738538  0.13516251  1
  O  O279  1  0.37424354  0.13571761  0.63133754  1
  O  O280  1  0.38260816  0.62389836  0.13703392  1
  O  O281  1  0.39913151  0.64326867  0.61077674  1
  O  O282  1  0.84305396  0.15518638  0.11820314  1
  O  O283  1  0.86871042  0.13867136  0.63164209  1
  O  O284  1  0.87051625  0.64470259  0.12616085  1
  O  O285  1  0.90120984  0.63152157  0.59762849  1
  O  O286  1  0.24950639  0.25828434  0.11864976  1
  O  O287  1  0.25418312  0.25651202  0.62085653  1
  O  O288  1  0.24909459  0.75542391  0.12217969  1
  O  O289  1  0.24332433  0.76624553  0.62568913  1
  O  O290  1  0.77966518  0.21448617  0.11511273  1
  O  O291  1  0.75351514  0.23861474  0.60693389  1
  O  O292  1  0.76254688  0.76371608  0.13095629  1
  O  O293  1  0.72396025  0.73759113  0.60867322  1
  O  O294  1  0.24088337  0.25520615  0.38469174  1
  O  O295  1  0.23794873  0.24068633  0.88448931  1
  O  O296  1  0.25691520  0.73452918  0.37696732  1
  O  O297  1  0.23950566  0.76152094  0.88351079  1
  O  O298  1  0.75000878  0.24025563  0.38770108  1
  O  O299  1  0.72769370  0.23074163  0.86780993  1
  O  O300  1  0.74507055  0.75076919  0.36960649  1
  O  O301  1  0.73455498  0.75169202  0.88476977  1
  O  O302  1  0.00688075  0.11849895  -0.01036509  1
  O  O303  1  0.01499407  0.11568543  0.49789035  1
  O  O304  1  0.01960864  0.61070569  0.00471140  1
  O  O305  1  0.01642473  0.62175453  0.48492133  1
  O  O306  1  0.49909402  0.11580201  0.00841374  1
  O  O307  1  0.49157607  0.12775335  0.52685991  1
  O  O308  1  0.49927811  0.61680575  0.01144860  1
  O  O309  1  0.52435957  0.63437442  0.49041535  1
  O  O310  1  0.48237901  0.35816644  0.50296799  1
  O  O311  1  0.50650310  0.38677504  0.99475563  1
  O  O312  1  0.48832795  0.88269287  0.48625632  1
  O  O313  1  0.51821367  0.88138157  0.97027221  1
  O  O314  1  1.01066296  0.37372477  0.48921647  1
  O  O315  1  1.01064080  0.38774542  0.98752133  1
  O  O316  1  0.98549653  0.89025887  0.49230836  1
  O  O317  1  0.99365694  0.88677732  0.99526422  1
  O  O318  1  0.49647185  0.49588898  0.38789844  1
  O  O319  1  0.50678120  0.49022873  0.89076442  1
  O  O320  1  0.48501236  0.99457632  0.36893167  1
  O  O321  1  0.48533530  0.99570675  0.88458516  1
  O  O322  1  1.00908541  0.49166880  0.38231932  1
  O  O323  1  1.02456259  0.49102989  0.88651551  1
  O  O324  1  0.98694957  1.00080260  0.38362836  1
  O  O325  1  0.99195238  0.99400478  0.88298558  1
  O  O326  1  0.00287656  0.00320718  0.11187305  1
  O  O327  1  0.01279223  -0.00584116  0.61661173  1
  O  O328  1  0.01376436  0.48796449  0.11516971  1
  O  O329  1  0.01300655  0.51376017  0.60204309  1
  O  O330  1  0.51068763  0.02530323  0.13058462  1
  O  O331  1  0.50829930  0.00630343  0.62650904  1
  O  O332  1  0.50464421  0.50900445  0.11522927  1
  O  O333  1  0.52026337  0.48041215  0.61779310  1
  O  O334  1  0.24360139  0.38139560  0.24844189  1
  O  O335  1  0.25204850  0.37722329  0.73305615  1
  O  O336  1  0.23169234  0.87798575  0.25995039  1
  O  O337  1  0.23969864  0.88113152  0.74644682  1
  O  O338  1  0.73919392  0.36422618  0.24924275  1
  O  O339  1  0.73885657  0.36811098  0.76725215  1
  O  O340  1  0.74014956  0.88351084  0.23691655  1
  O  O341  1  0.73401200  0.88206952  0.73515755  1
  O  O342  1  0.26279958  0.12787943  0.24677465  1
  O  O343  1  0.23907734  0.11110341  0.76219617  1
  O  O344  1  0.26502238  0.61984758  0.25256050  1
  O  O345  1  0.27887165  0.61802365  0.70849385  1
  O  O346  1  0.75618226  0.13953576  0.26823286  1
  O  O347  1  0.73855357  0.10959220  0.76054782  1
  O  O348  1  0.75107863  0.62396279  0.26402389  1
  O  O349  1  0.76392734  0.63608037  0.73850131  1
  O  O350  1  0.37996615  0.11447047  0.37014203  1
  O  O351  1  0.36105725  0.11522409  0.87875571  1
  O  O352  1  0.37164710  0.62547615  0.36324361  1
  O  O353  1  0.36507763  0.63111266  0.85787612  1
  O  O354  1  0.87508759  0.11712971  0.37369337  1
  O  O355  1  0.85904198  0.10786828  0.88269790  1
  O  O356  1  0.86281200  0.62266174  0.37529660  1
  O  O357  1  0.88066995  0.63962115  0.88359313  1
  O  O358  1  0.13627473  0.38371182  0.13658528  1
  O  O359  1  0.13584292  0.37831414  0.61945954  1
  O  O360  1  0.11350987  0.88922877  0.13527464  1
  O  O361  1  0.13089501  0.88405684  0.63495566  1
  O  O362  1  0.61496991  0.39137832  0.14082823  1
  O  O363  1  0.63058457  0.37063647  0.64537906  1
  O  O364  1  0.62827381  0.88426049  0.12766942  1
  O  O365  1  0.61999436  0.89086627  0.62937535  1
  O  O366  1  0.12349847  0.25505797  0.25824850  1
  O  O367  1  0.12181112  0.24414949  0.76571074  1
  O  O368  1  0.11521812  0.76279776  0.25685666  1
  O  O369  1  0.12559458  0.75807322  0.76128860  1
  O  O370  1  0.61203462  0.26459429  0.24058162  1
  O  O371  1  0.62137678  0.25710611  0.75613170  1
  O  O372  1  0.62984424  0.77051821  0.25486534  1
  O  O373  1  0.62152080  0.75617034  0.76966495  1
  O  O374  1  0.38511973  0.24435926  0.25096913  1
  O  O375  1  0.36216259  0.25209373  0.74482384  1
  O  O376  1  0.37527419  0.74255380  0.25133757  1
  O  O377  1  0.37596643  0.74197866  0.73142138  1
  O  O378  1  0.89599774  0.25139552  0.25895644  1
  O  O379  1  0.89175878  0.24764346  0.77453204  1
  O  O380  1  0.88054781  0.75755955  0.23958875  1
  O  O381  1  0.88123249  0.76355980  0.73734163  1
  O  O382  1  0.37847967  0.48232375  0.51433680  1
  O  O383  1  0.38780516  0.50243820  1.00478938  1
  O  O384  1  0.37459141  1.00033173  0.49009077  1
  O  O385  1  0.37669053  1.00304862  0.99111509  1
  O  O386  1  0.90101853  0.50325396  0.48468029  1
  O  O387  1  0.89920083  0.50769867  1.00116903  1
  O  O388  1  0.88082621  1.00158886  0.49414696  1
  O  O389  1  0.87937411  0.99489287  0.99443745  1
  O  O390  1  0.11607814  0.00748578  0.00424959  1
  O  O391  1  0.11930715  0.00360934  0.50765378  1
  O  O392  1  0.12789113  0.50958618  0.01456281  1
  O  O393  1  0.11876227  0.49525101  0.50178126  1
  O  O394  1  0.60536168  0.00339345  0.01177217  1
  O  O395  1  0.62562804  -0.00145251  0.51079551  1
  O  O396  1  0.61336502  0.51457182  0.01168387  1
  O  O397  1  0.62398523  0.48301565  0.51059307  1
  O  O398  1  0.36124016  0.37542257  0.13401957  1
  O  O399  1  0.36595120  0.36082765  0.61992515  1
  O  O400  1  0.45206969  0.90408106  0.08815117  1
  O  O401  1  0.37326086  0.86737868  0.62414727  1
  O  O402  1  0.87920169  0.36096866  0.12738652  1
  O  O403  1  0.86443453  0.33826403  0.64476577  1
  O  O404  1  0.86458768  0.88018127  0.11862395  1
  O  O405  1  0.86287004  0.88139576  0.60904131  1
  O  O406  1  0.12424879  0.13229794  0.38424306  1
  O  O407  1  0.13444159  0.12769547  0.88701642  1
  O  O408  1  0.14649326  0.62726069  0.37131529  1
  O  O409  1  0.12225618  0.64134831  0.88843658  1
  O  O410  1  0.63536069  0.11758138  0.37071484  1
  O  O411  1  0.61798936  0.12574100  0.87618935  1
  O  O412  1  0.62430178  0.65132229  0.35231500  1
  O  O413  1  0.61408867  0.63628712  0.88723632  1
