# generated using pymatgen
data_V79Zn79O256
_symmetry_space_group_name_H-M   'P 1'
_cell_length_a   16.93061855
_cell_length_b   16.94587050
_cell_length_c   16.92063272
_cell_angle_alpha   89.73471286
_cell_angle_beta   90.27804253
_cell_angle_gamma   90.05449076
_symmetry_Int_Tables_number   1
_chemical_formula_structural   V79Zn79O256
_chemical_formula_sum   'V79 Zn79 O256'
_cell_volume   4854.48709567
_cell_formula_units_Z   1
loop_
 _symmetry_equiv_pos_site_id
 _symmetry_equiv_pos_as_xyz
  1  'x, y, z'
loop_
 _atom_site_type_symbol
 _atom_site_label
 _atom_site_symmetry_multiplicity
 _atom_site_fract_x
 _atom_site_fract_y
 _atom_site_fract_z
 _atom_site_occupancy
  V  V0  1  0.73935134  0.36982381  0.13091928  1
  V  V1  1  0.87976770  0.74547747  0.12325967  1
  V  V2  1  0.39532650  0.13180844  0.74085834  1
  V  V3  1  0.76152806  0.24718230  0.52034133  1
  V  V4  1  0.24447238  0.36151396  0.60914739  1
  V  V5  1  0.74793617  0.49822259  0.25202776  1
  V  V6  1  0.49636998  0.75006170  0.24312786  1
  V  V7  1  0.12713632  0.36719572  0.76075852  1
  V  V8  1  0.12479598  0.74834101  0.88121442  1
  V  V9  1  -0.00239034  0.24994234  0.26392219  1
  V  V10  1  0.75019551  0.87535074  0.12497725  1
  V  V11  1  0.62580531  0.87511754  0.24845258  1
  V  V12  1  0.87842623  -0.00608942  0.38942341  1
  V  V13  1  0.37648741  0.62706991  0.24983252  1
  V  V14  1  0.24734446  0.00816145  0.24911334  1
  V  V15  1  0.50010708  0.89010053  0.87710361  1
  V  V16  1  -0.00648775  0.40184123  0.39044350  1
  V  V17  1  0.87467155  0.38006882  -0.00149798  1
  V  V18  1  0.61503487  0.62209895  0.50770546  1
  V  V19  1  0.24655156  0.49430481  0.74549918  1
  V  V20  1  0.49375642  0.13811855  0.12571185  1
  V  V21  1  0.01026068  0.12597082  0.12731983  1
  V  V22  1  0.74734963  0.13080695  0.37675002  1
  V  V23  1  0.00134125  0.87643268  0.87413352  1
  V  V24  1  0.12803645  0.87680222  0.75562106  1
  V  V25  1  0.87588225  0.38163503  0.51330828  1
  V  V26  1  0.88040277  0.62317218  0.24946166  1
  V  V27  1  0.87633607  0.12055246  0.25248947  1
  V  V28  1  0.86520440  0.00724932  0.87465484  1
  V  V29  1  0.49870638  0.63056281  0.11642771  1
  V  V30  1  0.09017546  0.39693789  0.21170086  1
  V  V31  1  0.50678264  0.36058252  0.86407533  1
  V  V32  1  0.11379328  0.61076468  0.01137515  1
  V  V33  1  0.75715168  0.50670737  0.74471758  1
  V  V34  1  0.62279625  0.12345024  -0.00917358  1
  V  V35  1  0.00595990  0.00285623  0.00362892  1
  V  V36  1  0.12603147  0.12420888  0.49803402  1
  V  V37  1  0.61471537  0.00194790  0.12322884  1
  V  V38  1  0.24605879  0.12710254  0.86553217  1
  V  V39  1  0.86397169  0.12919972  0.75600333  1
  V  V40  1  0.25173958  0.62052446  0.87827447  1
  V  V41  1  0.11317707  -0.00480587  0.62378856  1
  V  V42  1  0.62944750  0.36442271  0.74968415  1
  V  V43  1  0.00020492  0.37754123  0.88020688  1
  V  V44  1  0.26710284  0.36205566  0.13490590  1
  V  V45  1  0.75980796  0.75709075  0.51212734  1
  V  V46  1  0.37471317  0.89695651  -0.00578302  1
  V  V47  1  0.75066915  -0.00235138  0.25193350  1
  V  V48  1  0.25287986  0.86707470  0.13109583  1
  V  V49  1  0.37469851  0.62708184  0.74485164  1
  V  V50  1  0.50026164  0.87786858  0.37396595  1
  V  V51  1  0.62744696  0.74847800  0.37712292  1
  V  V52  1  0.00201811  0.24625377  0.75724554  1
  V  V53  1  -0.00370434  0.87407600  0.39172549  1
  V  V54  1  0.87375525  0.87348366  0.00205122  1
  V  V55  1  0.25487897  0.62195317  0.37680876  1
  V  V56  1  0.63369584  0.89720692  0.74660076  1
  V  V57  1  0.00262689  0.75620763  0.24784382  1
  V  V58  1  0.11745452  0.62244664  0.50595691  1
  V  V59  1  0.50650017  0.50660787  -0.00696122  1
  V  V60  1  0.74480404  0.62774358  0.88447833  1
  V  V61  1  0.61717488  0.11791608  0.51024623  1
  V  V62  1  0.25276708  0.50391422  0.24089677  1
  V  V63  1  0.37637040  0.49681423  0.86991258  1
  V  V64  1  -0.00917891  0.12394159  0.62395360  1
  V  V65  1  0.87120798  0.24522345  0.12677584  1
  V  V66  1  0.37218656  0.00345635  0.37815256  1
  V  V67  1  0.60995067  0.49677674  0.62568788  1
  V  V68  1  0.74580436  0.24478694  -0.01549342  1
  V  V69  1  0.26775422  0.74748343  0.00119358  1
  V  V70  1  0.51141367  0.74545045  0.75396258  1
  V  V71  1  0.62595409  0.50527795  0.12052281  1
  V  V72  1  -0.01517236  0.62468716  0.63858377  1
  V  V73  1  0.12705974  0.75611139  0.37202832  1
  V  V74  1  0.48790774  0.40567682  0.36038989  1
  V  V75  1  0.38006604  0.36430399  -0.00081416  1
  V  V76  1  0.39427973  0.88426096  0.51563801  1
  V  V77  1  0.75522651  0.62234637  0.37526690  1
  V  V78  1  0.24692981  0.87079844  0.62185975  1
  Zn  Zn79  1  0.73169338  0.74473226  0.00097212  1
  Zn  Zn80  1  0.87955202  0.50854918  0.87326367  1
  Zn  Zn81  1  0.38173162  0.74207284  0.62551021  1
  Zn  Zn82  1  0.25550238  0.74824618  0.50039096  1
  Zn  Zn83  1  0.11744524  0.49189556  0.61633943  1
  Zn  Zn84  1  0.28714568  0.18050795  0.42543850  1
  Zn  Zn85  1  0.12921082  0.26849152  0.39444118  1
  Zn  Zn86  1  0.12470592  -0.00704717  0.13118562  1
  Zn  Zn87  1  0.37714337  0.24817118  0.60687829  1
  Zn  Zn88  1  0.37989359  0.13259961  0.25126621  1
  Zn  Zn89  1  -0.00666255  0.74610473  0.75183096  1
  Zn  Zn90  1  0.26640168  -0.00373971  0.75757022  1
  Zn  Zn91  1  0.24061546  0.25432255  -0.01436183  1
  Zn  Zn92  1  0.52760707  0.27391076  0.23921302  1
  Zn  Zn93  1  0.12329816  0.13888012  -0.01203803  1
  Zn  Zn94  1  0.19853463  0.21174140  0.23205816  1
  Zn  Zn95  1  0.18276484  0.18388745  0.68767277  1
  Zn  Zn96  1  0.18590005  0.68868131  0.18555184  1
  Zn  Zn97  1  0.18383597  0.68752640  0.69287710  1
  Zn  Zn98  1  0.68612268  0.18031031  0.18489630  1
  Zn  Zn99  1  0.68302671  0.17767249  0.68694250  1
  Zn  Zn100  1  0.68810975  0.68825047  0.18444484  1
  Zn  Zn101  1  0.68904825  0.68523049  0.68994594  1
  Zn  Zn102  1  0.31440327  0.32347566  0.33429543  1
  Zn  Zn103  1  0.32053393  0.30380439  0.80208803  1
  Zn  Zn104  1  0.31651836  0.81371112  0.31663890  1
  Zn  Zn105  1  0.31666613  0.80913983  0.81792302  1
  Zn  Zn106  1  0.69788056  0.31065026  0.32120476  1
  Zn  Zn107  1  0.81414377  0.31716796  0.80642301  1
  Zn  Zn108  1  0.81514484  0.81029787  0.31505373  1
  Zn  Zn109  1  0.80592790  0.81377276  0.81907122  1
  Zn  Zn110  1  0.18261631  0.44421845  0.42937318  1
  Zn  Zn111  1  0.18847050  0.43225302  0.94496700  1
  Zn  Zn112  1  0.18578793  0.94186412  0.43959110  1
  Zn  Zn113  1  0.19279555  0.94467182  0.93967794  1
  Zn  Zn114  1  0.70408705  0.44366056  0.45147130  1
  Zn  Zn115  1  0.69109850  0.43780488  0.93361283  1
  Zn  Zn116  1  0.68878352  0.93996142  0.44243203  1
  Zn  Zn117  1  0.68385416  0.93712184  0.93658034  1
  Zn  Zn118  1  0.30550079  0.06976007  0.06185805  1
  Zn  Zn119  1  0.31052870  0.05909729  0.57321423  1
  Zn  Zn120  1  0.31795694  0.56168126  0.05887429  1
  Zn  Zn121  1  0.31287545  0.55356098  0.56018327  1
  Zn  Zn122  1  0.81000303  0.06090892  0.06097486  1
  Zn  Zn123  1  0.79775642  0.05301598  0.56550785  1
  Zn  Zn124  1  0.81254535  0.56266516  0.06364845  1
  Zn  Zn125  1  0.80772910  0.56677596  0.56424877  1
  Zn  Zn126  1  0.43598431  0.44840599  0.18387234  1
  Zn  Zn127  1  0.43235633  0.41311781  0.55771060  1
  Zn  Zn128  1  0.43079211  0.93880628  0.18556298  1
  Zn  Zn129  1  0.44025348  0.93908770  0.69314093  1
  Zn  Zn130  1  0.91617829  0.42354658  0.20120093  1
  Zn  Zn131  1  0.94265500  0.43883505  0.68764415  1
  Zn  Zn132  1  0.93982002  0.93506249  0.19102760  1
  Zn  Zn133  1  0.90402967  0.94824321  0.67049781  1
  Zn  Zn134  1  0.06128002  0.05482403  0.31411125  1
  Zn  Zn135  1  0.06275306  0.06050118  0.81216033  1
  Zn  Zn136  1  0.06622785  0.56740137  0.31294338  1
  Zn  Zn137  1  0.06293870  0.55977989  0.81462759  1
  Zn  Zn138  1  0.56064925  0.06670798  0.31483157  1
  Zn  Zn139  1  0.55926144  0.06471782  0.80967380  1
  Zn  Zn140  1  0.56986690  0.56659995  0.30614092  1
  Zn  Zn141  1  0.56457315  0.55977708  0.80674745  1
  Zn  Zn142  1  0.46009796  0.23283273  0.45908733  1
  Zn  Zn143  1  0.43556698  0.17634823  0.93051932  1
  Zn  Zn144  1  0.43580752  0.69407553  0.43903858  1
  Zn  Zn145  1  0.56316982  0.69658604  0.92718655  1
  Zn  Zn146  1  0.93353850  0.18680673  0.44086688  1
  Zn  Zn147  1  0.93817742  0.19188666  0.93960513  1
  Zn  Zn148  1  0.93795873  0.68614723  0.43915558  1
  Zn  Zn149  1  0.93415393  0.68288277  0.93598602  1
  Zn  Zn150  1  0.06200017  0.31660628  0.06448404  1
  Zn  Zn151  1  0.05804301  0.30905097  0.57038335  1
  Zn  Zn152  1  0.06762968  0.80945432  0.06303271  1
  Zn  Zn153  1  0.06206247  0.80197839  0.56442963  1
  Zn  Zn154  1  0.56302140  0.31214115  0.05239704  1
  Zn  Zn155  1  0.58947084  0.30661320  0.56084216  1
  Zn  Zn156  1  0.55574666  0.82127294  0.06108140  1
  Zn  Zn157  1  0.55474895  0.83834913  0.57989294  1
  O  O158  1  0.11040822  0.12586909  0.13618202  1
  O  O159  1  0.11191792  0.11317539  0.62212123  1
  O  O160  1  0.12646006  0.62946086  0.11028079  1
  O  O161  1  0.13137589  0.62442726  0.61119208  1
  O  O162  1  0.61518425  0.11797806  0.11819745  1
  O  O163  1  0.61746961  0.12811567  0.61188861  1
  O  O164  1  0.61389443  0.61653727  0.12702804  1
  O  O165  1  0.62194143  0.61639199  0.61426054  1
  O  O166  1  0.39238843  0.38727955  0.38747161  1
  O  O167  1  0.38714324  0.38024509  0.87569154  1
  O  O168  1  0.38410242  0.87872703  0.38804840  1
  O  O169  1  0.37956952  0.87685927  0.88584392  1
  O  O170  1  0.89445125  0.37428418  0.39433855  1
  O  O171  1  0.88026380  0.37575160  0.88391776  1
  O  O172  1  0.88720774  0.87846834  0.37281189  1
  O  O173  1  0.88258609  0.88511256  0.88398527  1
  O  O174  1  0.25950694  -0.01630931  0.35870971  1
  O  O175  1  0.25060501  0.01565675  0.87331303  1
  O  O176  1  0.24248509  0.51433145  0.35831239  1
  O  O177  1  0.25721352  0.50120646  0.87194950  1
  O  O178  1  0.76165189  0.00250497  0.36915924  1
  O  O179  1  0.76743912  0.00124020  0.88709645  1
  O  O180  1  0.74305006  0.51087308  0.36370466  1
  O  O181  1  0.75147859  0.50994711  0.86786967  1
  O  O182  1  0.25664100  0.49924909  0.13672761  1
  O  O183  1  0.24238488  0.49012855  0.63615866  1
  O  O184  1  0.25098273  0.99248075  0.13592883  1
  O  O185  1  0.23474119  0.98457787  0.63235476  1
  O  O186  1  0.74268154  0.49121788  0.12858398  1
  O  O187  1  0.74135212  0.50856409  0.64121228  1
  O  O188  1  0.74369496  0.99503588  0.13242911  1
  O  O189  1  0.79966117  0.96944653  0.63340481  1
  O  O190  1  -0.00966864  0.36844329  0.27519175  1
  O  O191  1  0.00664827  0.36577067  0.75785768  1
  O  O192  1  -0.00170798  0.86092647  0.25802040  1
  O  O193  1  0.01090434  0.87487674  0.76724364  1
  O  O194  1  0.49769965  0.38665221  0.25671194  1
  O  O195  1  0.51515160  0.37167753  0.76133786  1
  O  O196  1  0.50262346  0.86784527  0.25396260  1
  O  O197  1  0.50794622  0.87228978  0.76161628  1
  O  O198  1  0.50123156  0.12447234  0.23273683  1
  O  O199  1  0.49541064  0.13414328  0.74921868  1
  O  O200  1  0.49502250  0.63214844  0.24084015  1
  O  O201  1  0.48987862  0.63670570  0.75752777  1
  O  O202  1  0.99417423  0.12798341  0.24665450  1
  O  O203  1  0.99543642  0.13109107  0.74898610  1
  O  O204  1  0.98836505  0.63629545  0.25767720  1
  O  O205  1  0.99920074  0.62744874  0.74622385  1
  O  O206  1  0.37895475  0.26335692  -0.00675235  1
  O  O207  1  0.35315483  0.23980505  0.49168108  1
  O  O208  1  0.36483222  0.75302239  -0.00081091  1
  O  O209  1  0.37558203  0.76675378  0.50923157  1
  O  O210  1  0.86247188  0.25134635  0.00868056  1
  O  O211  1  0.86767647  0.25350357  0.50264298  1
  O  O212  1  0.87941632  0.76172915  0.00793482  1
  O  O213  1  0.85864341  0.74378665  0.49428891  1
  O  O214  1  0.11507116  0.22957483  0.50427745  1
  O  O215  1  0.13085834  0.24849477  1.01361671  1
  O  O216  1  0.13043855  0.73999947  0.48885121  1
  O  O217  1  0.13325034  0.74351497  0.99043630  1
  O  O218  1  0.65231510  0.23560477  0.49948984  1
  O  O219  1  0.63817251  0.23963286  1.00164303  1
  O  O220  1  0.63394023  0.73603272  0.48879521  1
  O  O221  1  0.62050339  0.75406600  1.00352145  1
  O  O222  1  0.50436694  0.24286497  0.12661707  1
  O  O223  1  0.47848711  0.30833588  0.55545914  1
  O  O224  1  0.50642336  0.74427157  0.13542353  1
  O  O225  1  0.49405205  0.76436030  0.64845494  1
  O  O226  1  0.98529038  0.24365577  0.13140914  1
  O  O227  1  1.00197630  0.23213351  0.64105536  1
  O  O228  1  0.99008565  0.75786423  0.13253333  1
  O  O229  1  1.01181293  0.73003995  0.63444248  1
  O  O230  1  0.00830603  0.23777066  0.36668557  1
  O  O231  1  -0.00360950  0.25955627  0.86669189  1
  O  O232  1  0.00511779  0.75859691  0.37022469  1
  O  O233  1  0.00653960  0.75954994  0.87727999  1
  O  O234  1  0.46761430  0.24897677  0.33874024  1
  O  O235  1  0.50127699  0.26332899  0.88078127  1
  O  O236  1  0.51016077  0.75248442  0.36068958  1
  O  O237  1  0.49548833  0.76400479  0.85974234  1
  O  O238  1  0.23006998  0.11504784  0.50459859  1
  O  O239  1  0.24957327  0.13179808  0.98564121  1
  O  O240  1  0.24645006  0.62704715  0.49021002  1
  O  O241  1  0.24670059  0.62908753  0.99373062  1
  O  O242  1  0.75357657  0.13021818  0.49570515  1
  O  O243  1  0.74089327  0.13682427  1.00551000  1
  O  O244  1  0.74174229  0.63021934  0.48931606  1
  O  O245  1  0.74686646  0.62270927  0.99106632  1
  O  O246  1  0.26230175  0.37174687  0.01400509  1
  O  O247  1  0.22969337  0.37777336  0.51034618  1
  O  O248  1  0.26185875  0.86988137  0.00177436  1
  O  O249  1  0.25363146  0.87586850  0.51457871  1
  O  O250  1  0.75297168  0.36034959  0.00604358  1
  O  O251  1  0.76225254  0.35666303  0.49963754  1
  O  O252  1  0.76200418  0.87564139  0.00459766  1
  O  O253  1  0.74208192  0.85505149  0.49299371  1
  O  O254  1  0.12957542  0.48712024  0.24933339  1
  O  O255  1  0.13603971  0.48915727  0.75518703  1
  O  O256  1  0.14235240  1.00138788  0.25212288  1
  O  O257  1  0.12360348  0.98665890  0.74428480  1
  O  O258  1  0.63742926  0.50524876  0.23433511  1
  O  O259  1  0.62883254  0.49556589  0.73715931  1
  O  O260  1  0.63037739  0.99461735  0.24327976  1
  O  O261  1  0.62395980  0.99756573  0.74867871  1
  O  O262  1  0.36564117  -0.00078904  0.26000424  1
  O  O263  1  0.37813920  0.01964257  0.73715327  1
  O  O264  1  0.36901471  0.51926270  0.24924641  1
  O  O265  1  0.36282399  0.50681430  0.76075219  1
  O  O266  1  0.87251540  0.00750486  0.25356383  1
  O  O267  1  0.88140526  0.01145700  0.77052722  1
  O  O268  1  0.86115305  0.51303332  0.23948453  1
  O  O269  1  0.85899163  0.49030241  0.75012504  1
  O  O270  1  0.10307078  0.37843863  0.37798392  1
  O  O271  1  0.11691851  0.37683761  0.87014212  1
  O  O272  1  0.11324538  0.86539650  0.38305945  1
  O  O273  1  0.12132351  0.86962494  0.87623854  1
  O  O274  1  0.62541253  0.38782456  0.37888815  1
  O  O275  1  0.61498875  0.37999734  0.86621494  1
  O  O276  1  0.62006448  0.86850709  0.36687500  1
  O  O277  1  0.60679373  0.88167279  0.87417643  1
  O  O278  1  0.39189222  0.12171020  0.12176177  1
  O  O279  1  0.37420549  0.13032940  0.63158192  1
  O  O280  1  0.39060300  0.62279068  0.13063790  1
  O  O281  1  0.36122900  0.62467692  0.64105159  1
  O  O282  1  0.87944315  0.12760749  0.13328299  1
  O  O283  1  0.88615532  0.11583999  0.64421611  1
  O  O284  1  0.87011181  0.63678262  0.13238350  1
  O  O285  1  0.88659968  0.62438751  0.62411494  1
  O  O286  1  0.26625628  0.26301018  0.14719660  1
  O  O287  1  0.23630347  0.26051156  0.62283594  1
  O  O288  1  0.24998857  0.76121483  0.11846125  1
  O  O289  1  0.23965029  0.76361159  0.62521070  1
  O  O290  1  0.75803857  0.25308508  0.12360122  1
  O  O291  1  0.75776518  0.24143366  0.61920526  1
  O  O292  1  0.76101764  0.75700953  0.12274405  1
  O  O293  1  0.74631774  0.74033604  0.61056211  1
  O  O294  1  0.22982039  0.24386338  0.34542494  1
  O  O295  1  0.25467142  0.23666761  0.86972563  1
  O  O296  1  0.24215567  0.74500022  0.37378824  1
  O  O297  1  0.24448162  0.73997682  0.88294135  1
  O  O298  1  0.76131031  0.23292274  0.37953468  1
  O  O299  1  0.75449677  0.25111613  0.88687752  1
  O  O300  1  0.74070100  0.74107085  0.37293352  1
  O  O301  1  0.75338502  0.73360395  0.87900529  1
  O  O302  1  -0.00165960  0.11888295  0.01046494  1
  O  O303  1  -0.00130463  0.12489994  0.52025032  1
  O  O304  1  0.01538292  0.62601474  -0.00696201  1
  O  O305  1  0.01268571  0.63161663  0.50978389  1
  O  O306  1  0.51355436  0.13300417  0.01053916  1
  O  O307  1  0.52319670  0.13820171  0.47898580  1
  O  O308  1  0.50002596  0.61453301  0.00235412  1
  O  O309  1  0.51733272  0.63025696  0.49097772  1
  O  O310  1  0.56126988  0.35681135  0.42986727  1
  O  O311  1  0.49761509  0.38539218  0.98897047  1
  O  O312  1  0.50562662  0.85229881  0.47515833  1
  O  O313  1  0.48371559  0.87676184  0.99053206  1
  O  O314  1  0.99451164  0.37682726  0.49883283  1
  O  O315  1  0.98575238  0.36296725  0.99084760  1
  O  O316  1  0.99778119  0.86580150  0.49085105  1
  O  O317  1  0.99424310  0.88247705  0.99616339  1
  O  O318  1  0.50176622  0.50389688  0.37050992  1
  O  O319  1  0.49298145  0.49611544  0.87717715  1
  O  O320  1  0.48481569  0.98926976  0.36575493  1
  O  O321  1  0.49349314  0.98893219  0.87126222  1
  O  O322  1  0.99584895  0.50104216  0.37683700  1
  O  O323  1  0.99495246  0.48301055  0.86774469  1
  O  O324  1  0.99462341  0.98024136  0.37067592  1
  O  O325  1  0.99596608  0.99345763  0.88686910  1
  O  O326  1  0.00118839  0.00640994  0.12111432  1
  O  O327  1  0.00270200  0.00856260  0.63797393  1
  O  O328  1  0.02039705  0.42461666  0.14353619  1
  O  O329  1  0.00705836  0.51862381  0.63427800  1
  O  O330  1  0.51084770  0.00491100  0.12790386  1
  O  O331  1  0.46494818  -0.06998853  0.58053312  1
  O  O332  1  0.50768441  0.50874907  0.11346637  1
  O  O333  1  0.51272335  0.49178329  0.62141445  1
  O  O334  1  0.26984022  0.38838970  0.24187175  1
  O  O335  1  0.24170280  0.37891991  0.75163041  1
  O  O336  1  0.26048124  0.87707698  0.23438632  1
  O  O337  1  0.23974773  0.87329969  0.74904189  1
  O  O338  1  0.75397245  0.38561809  0.24244396  1
  O  O339  1  0.73559902  0.39114458  0.76322389  1
  O  O340  1  0.74596936  0.87796426  0.24518630  1
  O  O341  1  0.72911469  0.88048362  0.77528267  1
  O  O342  1  0.25911459  0.11173177  0.24249722  1
  O  O343  1  0.24869573  0.12070556  0.75642800  1
  O  O344  1  0.25677997  0.62399623  0.25311555  1
  O  O345  1  0.25029360  0.61541360  0.75976353  1
  O  O346  1  0.76009380  0.11782881  0.25680779  1
  O  O347  1  0.76540925  0.12820814  0.75049198  1
  O  O348  1  0.75659781  0.61988314  0.25484399  1
  O  O349  1  0.74514891  0.61268748  0.76144520  1
  O  O350  1  0.36821574  0.10408042  0.37630783  1
  O  O351  1  0.36742488  0.12979371  0.85285290  1
  O  O352  1  0.36371505  0.63663078  0.36604229  1
  O  O353  1  0.36056720  0.61378441  0.86723233  1
  O  O354  1  0.87339891  0.11405904  0.36705458  1
  O  O355  1  0.87990088  0.11577304  0.87150150  1
  O  O356  1  0.86417731  0.63170452  0.36337116  1
  O  O357  1  0.85930874  0.62135477  0.87886366  1
  O  O358  1  0.15604448  0.37606621  0.13007218  1
  O  O359  1  0.12717281  0.37624421  0.64027963  1
  O  O360  1  0.14660040  0.87733519  0.11444208  1
  O  O361  1  0.12559366  0.87625889  0.63492743  1
  O  O362  1  0.63428232  0.38241078  0.11879103  1
  O  O363  1  0.62845986  0.38608309  0.63692411  1
  O  O364  1  0.62895789  0.88430011  0.12915550  1
  O  O365  1  0.63315167  0.87575796  0.64737594  1
  O  O366  1  0.10211786  0.28045226  0.23566382  1
  O  O367  1  0.11513083  0.25841134  0.75035180  1
  O  O368  1  0.11497490  0.74076890  0.26122444  1
  O  O369  1  0.12572802  0.75772847  0.76833661  1
  O  O370  1  0.63506040  0.25081243  0.25164922  1
  O  O371  1  0.63793456  0.26610154  0.74458663  1
  O  O372  1  0.61918851  0.75409135  0.25604935  1
  O  O373  1  0.61283330  0.74755248  0.75127262  1
  O  O374  1  0.39244476  0.24328406  0.29366278  1
  O  O375  1  0.37709787  0.23861071  0.73088531  1
  O  O376  1  0.38673659  0.74273270  0.25286120  1
  O  O377  1  0.37557994  0.73829905  0.75121258  1
  O  O378  1  0.88336109  0.23493244  0.24291849  1
  O  O379  1  0.88260964  0.23584021  0.75854955  1
  O  O380  1  0.88117622  0.74357492  0.24167563  1
  O  O381  1  0.87916104  0.78407844  0.73109069  1
  O  O382  1  0.38982134  0.49955875  0.50467752  1
  O  O383  1  0.38446024  0.49209930  0.98755266  1
  O  O384  1  0.35866980  0.99095166  0.48541212  1
  O  O385  1  0.37079128  0.99479563  0.99767036  1
  O  O386  1  0.85545639  0.48073472  0.50541299  1
  O  O387  1  0.86860301  0.48214382  1.00415292  1
  O  O388  1  0.87650109  1.00482957  0.48659002  1
  O  O389  1  0.88508546  0.99423360  0.99616443  1
  O  O390  1  0.11314099  0.00517320  0.00437749  1
  O  O391  1  0.12092351  0.00373906  0.51539483  1
  O  O392  1  0.12952404  0.51189145  -0.00064970  1
  O  O393  1  0.12757864  0.51971438  0.49747838  1
  O  O394  1  0.63512456  0.01411108  0.01170410  1
  O  O395  1  0.63197813  0.01618411  0.50062741  1
  O  O396  1  0.61712200  0.49391023  0.00803079  1
  O  O397  1  0.63374372  0.51058844  0.51413807  1
  O  O398  1  0.37276644  0.38288867  0.11335276  1
  O  O399  1  0.34544820  0.37016366  0.62598493  1
  O  O400  1  0.36437382  0.88081989  0.10834282  1
  O  O401  1  0.35011151  0.86955524  0.63564630  1
  O  O402  1  0.86083679  0.36253696  0.11937101  1
  O  O403  1  0.89011523  0.36990119  0.61339824  1
  O  O404  1  0.87124161  0.86958237  0.11921353  1
  O  O405  1  0.88013818  0.83023755  0.66528201  1
  O  O406  1  0.11204097  0.11343881  0.39791871  1
  O  O407  1  0.13716041  0.12465185  0.87118725  1
  O  O408  1  0.13258973  0.63445831  0.38325037  1
  O  O409  1  0.13511635  0.62955105  0.88112994  1
  O  O410  1  0.64424926  0.11546027  0.37784895  1
  O  O411  1  0.61948846  0.11789081  0.89240220  1
  O  O412  1  0.63454784  0.63165685  0.37874570  1
  O  O413  1  0.63492239  0.62066236  0.87508374  1
