# generated using pymatgen
data_V79Zn79O256
_symmetry_space_group_name_H-M   'P 1'
_cell_length_a   16.89660742
_cell_length_b   16.87562159
_cell_length_c   16.87942976
_cell_angle_alpha   89.95685990
_cell_angle_beta   90.14101937
_cell_angle_gamma   89.95488855
_symmetry_Int_Tables_number   1
_chemical_formula_structural   V79Zn79O256
_chemical_formula_sum   'V79 Zn79 O256'
_cell_volume   4812.99587158
_cell_formula_units_Z   1
loop_
 _symmetry_equiv_pos_site_id
 _symmetry_equiv_pos_as_xyz
  1  'x, y, z'
loop_
 _atom_site_type_symbol
 _atom_site_label
 _atom_site_symmetry_multiplicity
 _atom_site_fract_x
 _atom_site_fract_y
 _atom_site_fract_z
 _atom_site_occupancy
  V  V0  1  -0.00266496  0.37424649  0.39281939  1
  V  V1  1  0.76274164  0.87852938  0.62661264  1
  V  V2  1  0.62410006  0.37564019  0.25125115  1
  V  V3  1  0.62846737  0.63591557  0.49982222  1
  V  V4  1  0.75212101  0.25233711  0.50012554  1
  V  V5  1  0.75681306  0.86084255  0.12831003  1
  V  V6  1  0.62274891  0.11453620  0.50328113  1
  V  V7  1  0.37355374  0.50946078  0.37595313  1
  V  V8  1  0.36904401  0.11463150  0.76038965  1
  V  V9  1  0.24813668  0.50884581  0.25346117  1
  V  V10  1  0.88091577  0.87066840  -0.00972514  1
  V  V11  1  0.12635981  0.75161194  0.37287459  1
  V  V12  1  0.24738017  0.49651640  0.73439111  1
  V  V13  1  0.88733235  0.12822802  0.24469665  1
  V  V14  1  0.24821812  0.62540531  0.87431707  1
  V  V15  1  0.25961512  0.74777309  0.00629490  1
  V  V16  1  0.63076070  0.12962207  0.00224261  1
  V  V17  1  0.75110046  0.37513290  0.62247087  1
  V  V18  1  0.12763946  -0.01506131  0.63260871  1
  V  V19  1  -0.00309205  0.75889307  0.24001242  1
  V  V20  1  0.11799468  0.11524670  0.49997243  1
  V  V21  1  0.74843500  -0.00547431  0.25059108  1
  V  V22  1  0.49154701  0.63718843  0.12602433  1
  V  V23  1  0.50063720  0.11975718  0.62537158  1
  V  V24  1  0.62035565  0.49891947  0.61543328  1
  V  V25  1  0.36970824  0.25373158  0.62861113  1
  V  V26  1  0.49753926  0.62467773  0.61456027  1
  V  V27  1  0.74691740  0.74219610  -0.01407364  1
  V  V28  1  0.49144284  -0.01008914  -0.00586971  1
  V  V29  1  0.62351953  0.24907895  0.37676429  1
  V  V30  1  0.50133706  0.37824924  0.88115682  1
  V  V31  1  0.87899374  0.49574635  0.38532012  1
  V  V32  1  0.75427837  0.11417819  0.88006561  1
  V  V33  1  0.87535258  0.75010906  0.60511982  1
  V  V34  1  0.87882957  -0.00336246  0.38658545  1
  V  V35  1  0.00196919  0.75475303  0.74848515  1
  V  V36  1  0.24657375  0.25094531  0.50164101  1
  V  V37  1  0.50825182  0.86389445  0.86137145  1
  V  V38  1  0.48961425  0.24614145  0.25157657  1
  V  V39  1  0.24560273  0.24247674  -0.00202716  1
  V  V40  1  0.24891780  -0.00190517  0.25038128  1
  V  V41  1  0.12162506  0.75165599  0.87334299  1
  V  V42  1  0.37528667  0.37573141  0.00269177  1
  V  V43  1  0.37325209  0.37700862  0.50305818  1
  V  V44  1  0.37332679  0.63694008  0.74348259  1
  V  V45  1  0.49794191  0.37893583  0.37994277  1
  V  V46  1  0.25181546  0.87046624  0.12342780  1
  V  V47  1  -0.00158709  0.38830585  0.87913109  1
  V  V48  1  0.52331185  0.74703554  0.74311057  1
  V  V49  1  0.74934644  0.12182719  0.37495926  1
  V  V50  1  -0.00020108  0.24760347  0.74964592  1
  V  V51  1  0.86954862  0.10956044  0.75242697  1
  V  V52  1  0.00238264  0.60971169  0.61548519  1
  V  V53  1  -0.00385464  0.87597715  0.39281578  1
  V  V54  1  0.50069834  0.24960780  0.75563309  1
  V  V55  1  -0.00120780  0.01874766  0.00310326  1
  V  V56  1  0.00348007  0.60776528  0.12158156  1
  V  V57  1  0.86893282  0.37724625  -0.00495182  1
  V  V58  1  0.12538678  0.61361795  0.49601785  1
  V  V59  1  0.40400837  0.91406881  0.50051020  1
  V  V60  1  0.25090521  0.75683961  0.50802857  1
  V  V61  1  0.49376460  0.12430454  0.12784582  1
  V  V62  1  0.87507518  0.62520983  0.24130582  1
  V  V63  1  0.12862965  0.37790300  0.73824873  1
  V  V64  1  0.87462223  0.25217764  0.62431166  1
  V  V65  1  0.74665719  0.49843201  0.24339918  1
  V  V66  1  0.11309005  0.37578411  0.24629441  1
  V  V67  1  0.26102573  0.12702065  0.36735680  1
  V  V68  1  0.62485326  0.37582978  0.74928817  1
  V  V69  1  0.87662918  0.62004640  0.75944955  1
  V  V70  1  0.12601477  0.24209434  0.87609970  1
  V  V71  1  0.74992458  0.36149112  0.12333412  1
  V  V72  1  0.12113190  0.61049484  0.00176207  1
  V  V73  1  0.37674011  0.50067980  0.87563565  1
  V  V74  1  0.75010879  0.62843853  0.37825185  1
  V  V75  1  0.63162437  -0.00639750  0.64671078  1
  V  V76  1  0.62252140  0.76150155  0.35828927  1
  V  V77  1  0.24580534  0.38086713  0.12599838  1
  V  V78  1  0.62696253  -0.00754729  0.12594356  1
  Zn  Zn79  1  0.60569826  0.61499493  -0.00952800  1
  Zn  Zn80  1  0.88422196  0.23997839  0.12259722  1
  Zn  Zn81  1  0.11313282  0.24417967  0.37302280  1
  Zn  Zn82  1  0.37083461  0.66100029  0.23752108  1
  Zn  Zn83  1  0.24509765  0.10470353  0.88014867  1
  Zn  Zn84  1  0.10712245  -0.02000801  0.13218181  1
  Zn  Zn85  1  0.36622966  0.24487902  0.13120899  1
  Zn  Zn86  1  0.76215679  0.49227395  0.75615473  1
  Zn  Zn87  1  0.60408674  0.49492773  0.11042064  1
  Zn  Zn88  1  -0.00608925  0.11562928  0.61644139  1
  Zn  Zn89  1  -0.00187045  0.88335362  0.86933505  1
  Zn  Zn90  1  0.30531623  0.82668882  0.67037810  1
  Zn  Zn91  1  0.64161264  0.25756806  0.88874777  1
  Zn  Zn92  1  0.18147223  0.92365130  0.78960678  1
  Zn  Zn93  1  0.73528879  0.61677733  0.87220753  1
  Zn  Zn94  1  0.17718178  0.19345291  0.18925517  1
  Zn  Zn95  1  0.18602489  0.18132492  0.68826782  1
  Zn  Zn96  1  0.18000131  0.68703897  0.18736840  1
  Zn  Zn97  1  0.18251134  0.68183261  0.68594267  1
  Zn  Zn98  1  0.68403801  0.18283202  0.19177338  1
  Zn  Zn99  1  0.68937026  0.18563444  0.69285138  1
  Zn  Zn100  1  0.67620142  0.68075741  0.18252248  1
  Zn  Zn101  1  0.69743668  0.68635281  0.68071565  1
  Zn  Zn102  1  0.30669061  0.31684964  0.31549768  1
  Zn  Zn103  1  0.31061798  0.31191470  0.81290574  1
  Zn  Zn104  1  0.30975456  0.83478600  0.32362060  1
  Zn  Zn105  1  0.33503994  0.93427030  0.84052477  1
  Zn  Zn106  1  0.81619985  0.31027896  0.31063648  1
  Zn  Zn107  1  0.81239820  0.30513730  0.81472703  1
  Zn  Zn108  1  0.81491261  0.81076676  0.31651891  1
  Zn  Zn109  1  0.81192419  0.80972951  0.80566245  1
  Zn  Zn110  1  0.18883481  0.43432564  0.43448912  1
  Zn  Zn111  1  0.18856818  0.43204229  0.92805174  1
  Zn  Zn112  1  0.18698288  0.93678943  0.43376937  1
  Zn  Zn113  1  0.17659410  0.93772874  0.95760499  1
  Zn  Zn114  1  0.68929140  0.44086085  0.43527404  1
  Zn  Zn115  1  0.69342417  0.44421730  0.93508578  1
  Zn  Zn116  1  0.69311699  0.93098818  0.44428700  1
  Zn  Zn117  1  0.68632066  0.93409390  0.93882770  1
  Zn  Zn118  1  0.31055506  0.05619242  0.06389284  1
  Zn  Zn119  1  0.30637583  0.06361837  0.56695937  1
  Zn  Zn120  1  0.31785744  0.56268318  0.06517734  1
  Zn  Zn121  1  0.31178335  0.57040096  0.55444874  1
  Zn  Zn122  1  0.81791657  0.05447380  0.06113997  1
  Zn  Zn123  1  0.80837827  0.06341994  0.56612156  1
  Zn  Zn124  1  0.81396966  0.55702481  0.05804605  1
  Zn  Zn125  1  0.81199529  0.56187879  0.56604049  1
  Zn  Zn126  1  0.43522467  0.44206294  0.19013168  1
  Zn  Zn127  1  0.43626100  0.44197816  0.68903551  1
  Zn  Zn128  1  0.42584538  0.94371234  0.18184562  1
  Zn  Zn129  1  0.44097068  0.93642820  0.68156335  1
  Zn  Zn130  1  0.92834252  0.43794896  0.18474677  1
  Zn  Zn131  1  0.94133471  0.43405266  0.68634859  1
  Zn  Zn132  1  0.92824985  0.94010120  0.18472839  1
  Zn  Zn133  1  0.94840117  0.93546891  0.67524753  1
  Zn  Zn134  1  0.06897284  0.05632951  0.31238895  1
  Zn  Zn135  1  0.05369917  0.06097374  0.81590877  1
  Zn  Zn136  1  0.06104904  0.56118146  0.31216699  1
  Zn  Zn137  1  0.06388792  0.56463697  0.80571273  1
  Zn  Zn138  1  0.56468370  0.06170052  0.30906214  1
  Zn  Zn139  1  0.56380722  0.06432114  0.82005624  1
  Zn  Zn140  1  0.55837104  0.57076195  0.30784788  1
  Zn  Zn141  1  0.56472137  0.56110038  0.81011877  1
  Zn  Zn142  1  0.43700806  0.18645560  0.44086151  1
  Zn  Zn143  1  0.43868195  0.18596324  0.94357303  1
  Zn  Zn144  1  0.41886986  0.72471062  0.39875704  1
  Zn  Zn145  1  0.44146623  0.69087658  0.93252097  1
  Zn  Zn146  1  0.93420320  0.18693368  0.43147578  1
  Zn  Zn147  1  0.93010293  0.19560487  0.93369550  1
  Zn  Zn148  1  0.94276650  0.68258479  0.42928076  1
  Zn  Zn149  1  0.93559016  0.69092480  0.94398575  1
  Zn  Zn150  1  0.06508648  0.31961467  0.05718589  1
  Zn  Zn151  1  0.06200109  0.30845738  0.56162098  1
  Zn  Zn152  1  0.06763402  0.80491499  0.06317390  1
  Zn  Zn153  1  0.06644269  0.80720265  0.56374396  1
  Zn  Zn154  1  0.56155805  0.31277087  0.06802562  1
  Zn  Zn155  1  0.56015223  0.30730905  0.56291964  1
  Zn  Zn156  1  0.56772104  0.80690852  0.06615860  1
  Zn  Zn157  1  0.56287615  0.81686427  0.55849863  1
  O  O158  1  0.07425294  0.17120789  0.13171251  1
  O  O159  1  0.12181848  0.12514788  0.61001984  1
  O  O160  1  0.11181075  0.62347329  0.11806759  1
  O  O161  1  0.10992521  0.62706239  0.61247055  1
  O  O162  1  0.61865370  0.11564827  0.12081371  1
  O  O163  1  0.62254072  0.11744851  0.62350906  1
  O  O164  1  0.60974402  0.61616049  0.11891462  1
  O  O165  1  0.62358342  0.61684432  0.61931732  1
  O  O166  1  0.38111572  0.37676612  0.38510409  1
  O  O167  1  0.38099486  0.38082300  0.88072150  1
  O  O168  1  0.36167387  0.88763832  0.41157452  1
  O  O169  1  0.41142856  0.87310478  0.89346137  1
  O  O170  1  0.88404357  0.38576079  0.36925531  1
  O  O171  1  0.88592261  0.36795360  0.88343420  1
  O  O172  1  0.88580986  0.88157319  0.37360015  1
  O  O173  1  0.87448249  0.86942176  0.88561183  1
  O  O174  1  0.24046531  0.01298973  0.36041634  1
  O  O175  1  0.24173816  -0.00959532  0.87962996  1
  O  O176  1  0.26070298  0.49534017  0.36455815  1
  O  O177  1  0.25762660  0.50991375  0.86841475  1
  O  O178  1  0.75725124  0.00037617  0.36954285  1
  O  O179  1  0.74458072  0.01350012  0.87587601  1
  O  O180  1  0.76020528  0.50363329  0.36507271  1
  O  O181  1  0.75812749  0.50377863  0.86758774  1
  O  O182  1  0.25809578  0.49003471  0.13923975  1
  O  O183  1  0.25559036  0.50534539  0.63564638  1
  O  O184  1  0.24392834  0.98263463  0.12190642  1
  O  O185  1  0.22862016  1.00504099  0.62343511  1
  O  O186  1  0.75367026  0.48854689  0.13637592  1
  O  O187  1  0.74255939  0.48895564  0.62886020  1
  O  O188  1  0.74518895  0.99281541  0.13206530  1
  O  O189  1  0.74386995  0.99098814  0.62918431  1
  O  O190  1  0.01149611  0.38427069  0.24723783  1
  O  O191  1  0.00429455  0.36555023  0.75692163  1
  O  O192  1  -0.00891321  0.86024858  0.24566017  1
  O  O193  1  -0.00739616  0.85963265  0.75221274  1
  O  O194  1  0.50417873  0.36662744  0.25954440  1
  O  O195  1  0.50503116  0.36809179  0.75729763  1
  O  O196  1  0.48857742  0.91364095  0.28426039  1
  O  O197  1  0.50027032  0.86034586  0.75161519  1
  O  O198  1  0.50595130  0.13449844  0.24166491  1
  O  O199  1  0.49472908  0.13353030  0.74754633  1
  O  O200  1  0.48916008  0.62347199  0.23752730  1
  O  O201  1  0.49510138  0.63544424  0.74218232  1
  O  O202  1  0.98538030  0.11800543  0.25873129  1
  O  O203  1  0.98753164  0.13525649  0.75070694  1
  O  O204  1  0.99401919  0.62633716  0.23974630  1
  O  O205  1  0.99511467  0.62972414  0.73431057  1
  O  O206  1  0.36514888  0.26170344  -0.00103840  1
  O  O207  1  0.36795001  0.25487007  0.50957016  1
  O  O208  1  0.35678456  0.74399974  -0.00627994  1
  O  O209  1  0.34915934  0.74032952  0.48959945  1
  O  O210  1  0.89060325  0.26761620  0.01087000  1
  O  O211  1  0.86238270  0.23983383  0.51073832  1
  O  O212  1  0.86232781  0.76034608  0.00193800  1
  O  O213  1  0.88201502  0.74513522  0.50642480  1
  O  O214  1  0.13418437  0.24440255  0.49809645  1
  O  O215  1  0.13455995  0.25779588  0.98767579  1
  O  O216  1  0.12701373  0.74136524  0.48932511  1
  O  O217  1  0.12979539  0.73503404  0.99017483  1
  O  O218  1  0.63404329  0.24110618  0.49763722  1
  O  O219  1  0.61934846  0.23507029  1.00418245  1
  O  O220  1  0.63206093  0.73737518  0.50506336  1
  O  O221  1  0.64537623  0.74650883  1.00490264  1
  O  O222  1  0.49779316  0.24239923  0.13526821  1
  O  O223  1  0.49253515  0.24194028  0.63611570  1
  O  O224  1  0.50540387  0.73895229  0.12965942  1
  O  O225  1  0.50764186  0.74179628  0.63508815  1
  O  O226  1  1.02439012  0.23368270  0.12842151  1
  O  O227  1  0.98980809  0.24814831  0.63202159  1
  O  O228  1  1.00291393  0.73975354  0.13873868  1
  O  O229  1  0.99125298  0.74540867  0.62990027  1
  O  O230  1  -0.00553714  0.26949058  0.37723076  1
  O  O231  1  0.00648285  0.25526964  0.86436513  1
  O  O232  1  0.00110801  0.76210420  0.36696169  1
  O  O233  1  0.00837394  0.74576341  0.86680150  1
  O  O234  1  0.50340798  0.25536816  0.37059601  1
  O  O235  1  0.50039673  0.25908402  0.86751698  1
  O  O236  1  0.52701417  0.75008184  0.38793656  1
  O  O237  1  0.50167663  0.75308774  0.85506220  1
  O  O238  1  0.24089122  0.13252914  0.49058682  1
  O  O239  1  0.25728589  0.13782644  0.99860766  1
  O  O240  1  0.23067906  0.63526836  0.50278026  1
  O  O241  1  0.24320524  0.62887558  0.99610122  1
  O  O242  1  0.74141671  0.13339159  0.49653306  1
  O  O243  1  0.74686148  0.11857635  0.99128663  1
  O  O244  1  0.74279564  0.61532143  0.48781210  1
  O  O245  1  0.76097292  0.63764745  0.99865819  1
  O  O246  1  0.25437788  0.36939373  0.00647653  1
  O  O247  1  0.25935790  0.36238387  0.49385511  1
  O  O248  1  0.24690142  0.85808361  0.01078337  1
  O  O249  1  0.23621334  0.85740314  0.49999632  1
  O  O250  1  0.76165555  0.37167757  0.00587676  1
  O  O251  1  0.74272043  0.36383877  0.50970336  1
  O  O252  1  0.75769320  0.86541295  0.00644735  1
  O  O253  1  0.74163752  0.87016579  0.52573022  1
  O  O254  1  0.13999000  0.49189197  0.25990227  1
  O  O255  1  0.13565385  0.49118245  0.75387883  1
  O  O256  1  0.14257148  1.02878625  0.22925690  1
  O  O257  1  0.11710990  1.00175690  0.73975290  1
  O  O258  1  0.63593219  0.49321118  0.25730908  1
  O  O259  1  0.62567861  0.48531503  0.73927790  1
  O  O260  1  0.63884146  1.00267717  0.24078941  1
  O  O261  1  0.62886628  1.00462715  0.74529617  1
  O  O262  1  0.34727312  0.01422676  0.23419076  1
  O  O263  1  0.38435483  0.01197022  0.75313064  1
  O  O264  1  0.36169028  0.49331103  0.26490480  1
  O  O265  1  0.36655916  0.50399808  0.75904831  1
  O  O266  1  0.86506144  0.00816081  0.25836951  1
  O  O267  1  0.88498864  0.01218538  0.74184105  1
  O  O268  1  0.86554704  0.50723821  0.25648819  1
  O  O269  1  0.87929094  0.51592624  0.73813690  1
  O  O270  1  0.10761835  0.38058070  0.36840693  1
  O  O271  1  0.11291805  0.36624757  0.86529009  1
  O  O272  1  0.10842431  0.86352817  0.37712598  1
  O  O273  1  0.12269342  0.86071833  0.87830319  1
  O  O274  1  0.61674522  0.37035747  0.37389602  1
  O  O275  1  0.61799913  0.37291554  0.86676685  1
  O  O276  1  0.64416869  0.86001474  0.37234754  1
  O  O277  1  0.60766817  0.87378070  0.88462817  1
  O  O278  1  0.38969891  0.12728711  0.11739834  1
  O  O279  1  0.38324131  0.13305363  0.63834157  1
  O  O280  1  0.38091021  0.63151451  0.12685647  1
  O  O281  1  0.38763723  0.61408686  0.63117492  1
  O  O282  1  0.87069851  0.12175396  0.13986000  1
  O  O283  1  0.87319199  0.13303028  0.63595367  1
  O  O284  1  0.88613023  0.61792366  0.13336946  1
  O  O285  1  0.88602839  0.63383873  0.62356531  1
  O  O286  1  0.24720698  0.25878242  0.11750601  1
  O  O287  1  0.26178883  0.24147511  0.61760468  1
  O  O288  1  0.24498888  0.75054669  0.11489677  1
  O  O289  1  0.24394612  0.74733749  0.61487445  1
  O  O290  1  0.74797615  0.25952326  0.13211839  1
  O  O291  1  0.75412474  0.25509966  0.61989296  1
  O  O292  1  0.74780892  0.75942757  0.12628313  1
  O  O293  1  0.77103695  0.75180220  0.62135180  1
  O  O294  1  0.24750715  0.24186172  0.38453609  1
  O  O295  1  0.24118077  0.25194419  0.88243021  1
  O  O296  1  0.22759577  0.75524030  0.37727863  1
  O  O297  1  0.24020988  0.73371265  0.88659813  1
  O  O298  1  0.74561367  0.24563173  0.38266267  1
  O  O299  1  0.75057509  0.23015597  0.87114869  1
  O  O300  1  0.74569547  0.73374535  0.36832026  1
  O  O301  1  0.75296014  0.74438570  0.88305789  1
  O  O302  1  -0.01536673  0.11703090  -0.00145759  1
  O  O303  1  0.01436061  0.13308217  0.49536329  1
  O  O304  1  0.00368596  0.62773620  0.01442210  1
  O  O305  1  0.00668521  0.62580968  0.50845852  1
  O  O306  1  0.50957952  0.11520191  0.00714327  1
  O  O307  1  0.51129011  0.13678242  0.51522644  1
  O  O308  1  0.49179719  0.63096626  0.01320812  1
  O  O309  1  0.51143100  0.62761912  0.51312778  1
  O  O310  1  0.48944362  0.36622679  0.49056523  1
  O  O311  1  0.49020063  0.36634051  0.99035965  1
  O  O312  1  0.50314533  0.89032929  0.49650945  1
  O  O313  1  0.50940412  0.89064243  1.01169397  1
  O  O314  1  1.00144478  0.37891017  0.49205137  1
  O  O315  1  0.99914935  0.37835249  0.98407227  1
  O  O316  1  0.99769381  0.87169581  0.49114818  1
  O  O317  1  0.98588033  0.86152544  0.99975560  1
  O  O318  1  0.48650698  0.48729583  0.36710890  1
  O  O319  1  0.48834211  0.48783639  0.86471136  1
  O  O320  1  0.49295747  0.96999288  0.33706973  1
  O  O321  1  0.50647791  0.99256825  0.88804265  1
  O  O322  1  0.98567466  0.49278254  0.37120039  1
  O  O323  1  1.00068318  0.48630062  0.86460101  1
  O  O324  1  0.99537877  0.98253976  0.36794561  1
  O  O325  1  1.00567412  0.99538178  0.89501248  1
  O  O326  1  -0.00675418  -0.00462932  0.11180728  1
  O  O327  1  0.01744068  0.00347548  0.61820164  1
  O  O328  1  0.00162687  0.50883581  0.12793092  1
  O  O329  1  -0.00284946  0.51070454  0.62111139  1
  O  O330  1  0.50773892  0.00526884  0.12305702  1
  O  O331  1  0.51652806  0.01309442  0.63477310  1
  O  O332  1  0.49227830  0.51167729  0.12658986  1
  O  O333  1  0.51123464  0.50975511  0.63222614  1
  O  O334  1  0.24149815  0.38273462  0.24375437  1
  O  O335  1  0.24124618  0.38385637  0.75590960  1
  O  O336  1  0.24203970  0.89193663  0.24819987  1
  O  O337  1  0.27440626  0.86939196  0.76619494  1
  O  O338  1  0.74567175  0.37910039  0.24490764  1
  O  O339  1  0.74104022  0.36819970  0.73989238  1
  O  O340  1  0.76272960  0.88136239  0.23741255  1
  O  O341  1  0.74865217  0.86139876  0.72797898  1
  O  O342  1  0.24715457  0.13602404  0.26414337  1
  O  O343  1  0.26598413  0.12714359  0.75379360  1
  O  O344  1  0.25131669  0.61173603  0.24364208  1
  O  O345  1  0.25407928  0.61794403  0.75560806  1
  O  O346  1  0.75359228  0.11426984  0.25769820  1
  O  O347  1  0.76270125  0.12209359  0.75603272  1
  O  O348  1  0.75580299  0.61661765  0.25369893  1
  O  O349  1  0.76883071  0.62628157  0.74902187  1
  O  O350  1  0.36035315  0.12658430  0.38047049  1
  O  O351  1  0.37599783  0.12945312  0.86300373  1
  O  O352  1  0.38247221  0.60708492  0.38224835  1
  O  O353  1  0.36883485  0.61880599  0.86503820  1
  O  O354  1  0.86836404  0.11745421  0.36552561  1
  O  O355  1  0.86650621  0.12478920  0.86319096  1
  O  O356  1  0.87102288  0.61328896  0.36607985  1
  O  O357  1  0.88628198  0.62596702  0.85942524  1
  O  O358  1  0.13204415  0.37634086  0.13588468  1
  O  O359  1  0.11892251  0.37048463  0.63880334  1
  O  O360  1  0.13942797  0.86619371  0.12839889  1
  O  O361  1  0.12347367  0.88387703  0.62598237  1
  O  O362  1  0.63220571  0.37738828  0.13275481  1
  O  O363  1  0.62898267  0.37852004  0.62867463  1
  O  O364  1  0.64220726  0.88476809  0.11944117  1
  O  O365  1  0.62534401  0.89217071  0.62857077  1
  O  O366  1  0.12846572  0.27278272  0.26006649  1
  O  O367  1  0.11829723  0.25505892  0.75364783  1
  O  O368  1  0.10830051  0.73966849  0.26373601  1
  O  O369  1  0.11503361  0.73999498  0.76013571  1
  O  O370  1  0.61631779  0.25517774  0.25863111  1
  O  O371  1  0.61487112  0.25970872  0.74636401  1
  O  O372  1  0.62500232  0.74867353  0.25861847  1
  O  O373  1  0.62145540  0.74468990  0.74548250  1
  O  O374  1  0.38586441  0.25746149  0.25150584  1
  O  O375  1  0.38256559  0.24628734  0.74563658  1
  O  O376  1  0.37859483  0.75374598  0.29499741  1
  O  O377  1  0.37372159  0.73604089  0.73981709  1
  O  O378  1  0.87341760  0.23344132  0.24812741  1
  O  O379  1  0.88225263  0.24385892  0.74125699  1
  O  O380  1  0.88780294  0.73576504  0.25801495  1
  O  O381  1  0.88632810  0.73628731  0.74176471  1
  O  O382  1  0.36328658  0.48854748  0.48745790  1
  O  O383  1  0.36498634  0.48789087  0.98639908  1
  O  O384  1  0.39085075  1.01549615  0.50866796  1
  O  O385  1  0.39181120  1.00216619  1.00329769  1
  O  O386  1  0.86903358  0.50118436  0.48421787  1
  O  O387  1  0.87962916  0.47733661  1.00834537  1
  O  O388  1  0.87254195  1.01090643  0.48599288  1
  O  O389  1  0.88526346  0.98229834  1.00087213  1
  O  O390  1  0.10603454  0.00446295  0.01422133  1
  O  O391  1  0.12782748  0.01190362  0.50281652  1
  O  O392  1  0.13117801  0.51111116  -0.00887754  1
  O  O393  1  0.12935145  0.51424037  0.49029824  1
  O  O394  1  0.62109849  0.01007180  0.01095585  1
  O  O395  1  0.63185225  0.01280032  0.50693128  1
  O  O396  1  0.62711771  0.50114374  0.00057406  1
  O  O397  1  0.62774264  0.50580485  0.51023536  1
  O  O398  1  0.36555381  0.37229692  0.11702320  1
  O  O399  1  0.38432407  0.36494569  0.61713616  1
  O  O400  1  0.35300454  0.86712432  0.13865513  1
  O  O401  1  0.37973439  0.88028050  0.60219166  1
  O  O402  1  0.86772340  0.36610389  0.11991056  1
  O  O403  1  0.86386229  0.36400874  0.63123284  1
  O  O404  1  0.86025761  0.87492124  0.11363219  1
  O  O405  1  0.87174774  0.86450894  0.62254798  1
  O  O406  1  0.13108088  0.12674937  0.38617528  1
  O  O407  1  0.12782415  0.13839215  0.86589207  1
  O  O408  1  0.10789736  0.63808455  0.38701062  1
  O  O409  1  0.13034712  0.62813995  0.87974543  1
  O  O410  1  0.62685422  0.12700060  0.38368920  1
  O  O411  1  0.63616220  0.12877216  0.88403426  1
  O  O412  1  0.63283834  0.62800921  0.38152528  1
  O  O413  1  0.62166249  0.62749302  0.87710637  1
