# generated using pymatgen
data_V79Zn79O256
_symmetry_space_group_name_H-M   'P 1'
_cell_length_a   16.86345164
_cell_length_b   16.87280735
_cell_length_c   16.86226747
_cell_angle_alpha   89.98925334
_cell_angle_beta   89.99705391
_cell_angle_gamma   89.98084164
_symmetry_Int_Tables_number   1
_chemical_formula_structural   V79Zn79O256
_chemical_formula_sum   'V79 Zn79 O256'
_cell_volume   4797.88418580
_cell_formula_units_Z   1
loop_
 _symmetry_equiv_pos_site_id
 _symmetry_equiv_pos_as_xyz
  1  'x, y, z'
loop_
 _atom_site_type_symbol
 _atom_site_label
 _atom_site_symmetry_multiplicity
 _atom_site_fract_x
 _atom_site_fract_y
 _atom_site_fract_z
 _atom_site_occupancy
  V  V0  1  0.37853372  0.62205647  0.24564631  1
  V  V1  1  0.61542893  0.86101740  0.76587682  1
  V  V2  1  0.88036635  0.11874031  0.25844460  1
  V  V3  1  0.74684188  0.87446948  0.62475793  1
  V  V4  1  0.24500158  0.49859883  0.24871070  1
  V  V5  1  0.87873074  0.37583667  0.00198680  1
  V  V6  1  0.24888392  0.24702460  0.50051430  1
  V  V7  1  0.50287714  0.74620819  0.24607079  1
  V  V8  1  0.63086225  0.37517291  0.73252010  1
  V  V9  1  0.50251518  0.25355643  0.25621490  1
  V  V10  1  0.12100862  0.24719811  0.37952519  1
  V  V11  1  0.13173318  0.37626409  0.75058717  1
  V  V12  1  0.12068538  0.37137609  0.24994691  1
  V  V13  1  0.50461126  0.63233473  0.63542203  1
  V  V14  1  0.12544356  0.50331690  0.62715418  1
  V  V15  1  0.36057487  0.86400662  0.49978480  1
  V  V16  1  0.37622806  0.11351001  0.75381186  1
  V  V17  1  0.62805148  0.63456431  0.00265831  1
  V  V18  1  0.37234682  0.00296001  0.37055619  1
  V  V19  1  0.12045581  0.62672535  0.50311141  1
  V  V20  1  0.50106546  0.25477763  0.75238859  1
  V  V21  1  0.00472646  0.37306070  0.87590405  1
  V  V22  1  0.87724158  0.49899563  0.87938542  1
  V  V23  1  0.74646327  0.49741403  0.73873289  1
  V  V24  1  -0.00198654  0.87774759  0.86960723  1
  V  V25  1  0.50571631  0.49621279  0.50246627  1
  V  V26  1  0.50478156  0.50053059  0.00931083  1
  V  V27  1  0.14119910  0.00024034  0.61865829  1
  V  V28  1  0.62413872  0.11116480  -0.01576765  1
  V  V29  1  0.25096866  0.62760818  0.38086849  1
  V  V30  1  0.12594205  0.75110146  0.87730914  1
  V  V31  1  0.12524340  0.13788679  0.00188809  1
  V  V32  1  0.12886876  0.88504155  0.24389262  1
  V  V33  1  0.75274271  0.62155006  0.37534063  1
  V  V34  1  0.00234999  0.12280844  0.62231618  1
  V  V35  1  0.87366083  0.87615567  0.00217101  1
  V  V36  1  0.88184334  0.62538102  0.74621907  1
  V  V37  1  0.50280591  0.87411652  0.37108096  1
  V  V38  1  0.73719116  0.24433733  0.50188813  1
  V  V39  1  0.74926609  0.49488318  0.25372753  1
  V  V40  1  0.87756177  0.24440946  0.13139981  1
  V  V41  1  0.73523550  -0.00271458  0.25137691  1
  V  V42  1  0.74315206  0.24432728  -0.01451253  1
  V  V43  1  0.87113793  0.75101374  0.12052977  1
  V  V44  1  0.37267748  0.50270379  0.86082016  1
  V  V45  1  -0.01586814  -0.00410212  0.50045899  1
  V  V46  1  0.87061836  0.37192103  0.50875230  1
  V  V47  1  -0.01177458  0.87810680  0.37866057  1
  V  V48  1  0.25166790  0.12750217  0.36879569  1
  V  V49  1  0.00149740  0.75084169  0.24898925  1
  V  V50  1  -0.00391811  0.50001112  0.49834990  1
  V  V51  1  0.50756846  0.00279976  0.50251421  1
  V  V52  1  0.37568293  0.37462222  0.00090618  1
  V  V53  1  0.00227045  0.61254110  0.12161005  1
  V  V54  1  0.74720463  0.63524238  0.87917266  1
  V  V55  1  0.73522818  0.12409592  0.37795282  1
  V  V56  1  0.73549296  0.87921041  0.12448943  1
  V  V57  1  0.50439295  0.11604668  0.12102804  1
  V  V58  1  0.24355686  0.12319071  0.86552687  1
  V  V59  1  0.75381333  0.00027252  0.76081896  1
  V  V60  1  0.51222051  0.37753230  0.87504884  1
  V  V61  1  0.36817888  0.75969970  0.12698776  1
  V  V62  1  0.88369943  0.75156577  0.62029180  1
  V  V63  1  0.37613277  0.25667935  0.62080000  1
  V  V64  1  -0.00768934  0.37271355  0.37357813  1
  V  V65  1  0.12340211  0.61282300  0.00446544  1
  V  V66  1  0.24618823  0.37676457  0.12380537  1
  V  V67  1  0.87612971  0.61843659  0.25302467  1
  V  V68  1  0.25342694  0.38051178  0.62053518  1
  V  V69  1  0.74298279  0.37192897  0.12702738  1
  V  V70  1  0.14200159  0.88332075  0.74812985  1
  V  V71  1  0.75276892  0.75679925  0.49782214  1
  V  V72  1  0.01230821  0.00035583  0.00919471  1
  V  V73  1  0.12882436  0.75204755  0.37971674  1
  V  V74  1  0.00529221  0.24798225  0.75075596  1
  V  V75  1  0.36680026  0.74742335  0.63627048  1
  V  V76  1  0.25061173  0.62133560  0.86122746  1
  V  V77  1  0.62653399  0.75369104  0.37062199  1
  V  V78  1  0.37831434  0.48733488  0.38381058  1
  Zn  Zn79  1  0.25135532  0.01057489  0.24354913  1
  Zn  Zn80  1  0.87207329  0.01266755  0.88382512  1
  Zn  Zn81  1  0.00459372  0.74824018  0.74393590  1
  Zn  Zn82  1  0.86952384  0.13071375  0.75710772  1
  Zn  Zn83  1  0.25412022  0.75279054  -0.00121742  1
  Zn  Zn84  1  0.37415223  0.24271123  0.13034981  1
  Zn  Zn85  1  0.00788576  0.12632671  0.13637336  1
  Zn  Zn86  1  0.50372110  0.13420964  0.61554847  1
  Zn  Zn87  1  0.61783169  0.36885176  0.28042765  1
  Zn  Zn88  1  0.62694676  0.62285089  0.50580006  1
  Zn  Zn89  1  0.61982365  0.50352635  0.13234236  1
  Zn  Zn90  1  0.62838374  0.00083828  0.62458202  1
  Zn  Zn91  1  0.24485951  0.25754604  -0.00906779  1
  Zn  Zn92  1  0.24420547  0.89277429  0.10615949  1
  Zn  Zn93  1  0.87396222  0.24809792  0.62632032  1
  Zn  Zn94  1  0.18811421  0.19359998  0.18576641  1
  Zn  Zn95  1  0.18676880  0.18731171  0.68573726  1
  Zn  Zn96  1  0.18756970  0.68635406  0.18992593  1
  Zn  Zn97  1  0.18695172  0.69311206  0.68436684  1
  Zn  Zn98  1  0.68161054  0.18530326  0.18236468  1
  Zn  Zn99  1  0.68686782  0.18722467  0.68284453  1
  Zn  Zn100  1  0.68851258  0.68818432  0.18598084  1
  Zn  Zn101  1  0.68934842  0.68624835  0.68834475  1
  Zn  Zn102  1  0.31666270  0.30838278  0.31009249  1
  Zn  Zn103  1  0.31328121  0.30922077  0.81357547  1
  Zn  Zn104  1  0.31403401  0.81427126  0.31198496  1
  Zn  Zn105  1  0.31763858  0.80851402  0.81839635  1
  Zn  Zn106  1  0.80834975  0.30581717  0.31664013  1
  Zn  Zn107  1  0.81620422  0.31359258  0.80891420  1
  Zn  Zn108  1  0.81003589  0.81206492  0.30523303  1
  Zn  Zn109  1  0.81283792  0.81419082  0.80934516  1
  Zn  Zn110  1  0.18769629  0.43645548  0.43829914  1
  Zn  Zn111  1  0.18910160  0.44006357  0.93452935  1
  Zn  Zn112  1  0.18223273  0.94121975  0.43434124  1
  Zn  Zn113  1  0.19528971  0.94098939  0.93245909  1
  Zn  Zn114  1  0.68921151  0.43753220  0.44209547  1
  Zn  Zn115  1  0.69239634  0.44116730  0.93831446  1
  Zn  Zn116  1  0.69103259  0.93858341  0.43402845  1
  Zn  Zn117  1  0.68303584  0.92962135  0.93807990  1
  Zn  Zn118  1  0.30696379  0.07174689  0.06759064  1
  Zn  Zn119  1  0.32268717  0.06615218  0.55758325  1
  Zn  Zn120  1  0.30950457  0.56118089  0.05991466  1
  Zn  Zn121  1  0.31417166  0.56805906  0.56672271  1
  Zn  Zn122  1  0.80921848  0.06219170  0.06504522  1
  Zn  Zn123  1  0.81339771  0.06459018  0.56747275  1
  Zn  Zn124  1  0.81074364  0.56076565  0.06540457  1
  Zn  Zn125  1  0.81726071  0.56522605  0.55972841  1
  Zn  Zn126  1  0.43505831  0.43220044  0.19188999  1
  Zn  Zn127  1  0.44261374  0.44115173  0.68110150  1
  Zn  Zn128  1  0.44011046  0.93866816  0.18612444  1
  Zn  Zn129  1  0.43699888  0.92674098  0.68541622  1
  Zn  Zn130  1  0.93441711  0.43314977  0.18887528  1
  Zn  Zn131  1  0.94122933  0.43992937  0.68778968  1
  Zn  Zn132  1  0.93492114  0.94081413  0.19021786  1
  Zn  Zn133  1  0.93646824  0.93631973  0.68446926  1
  Zn  Zn134  1  0.06299933  0.06381576  0.32174229  1
  Zn  Zn135  1  0.06240455  0.06165791  0.81414751  1
  Zn  Zn136  1  0.06103577  0.55970398  0.31564690  1
  Zn  Zn137  1  0.06359854  0.55977262  0.81440393  1
  Zn  Zn138  1  0.55443785  0.06756724  0.30795714  1
  Zn  Zn139  1  0.58854605  0.08215124  0.77980772  1
  Zn  Zn140  1  0.56395661  0.56163011  0.31757431  1
  Zn  Zn141  1  0.56380265  0.56271594  0.81436987  1
  Zn  Zn142  1  0.43708620  0.18867934  0.43526539  1
  Zn  Zn143  1  0.43898598  0.18467484  0.93547623  1
  Zn  Zn144  1  0.43914510  0.68211918  0.43993525  1
  Zn  Zn145  1  0.42722081  0.66805334  0.95535861  1
  Zn  Zn146  1  0.93617828  0.18481854  0.43847455  1
  Zn  Zn147  1  0.93639588  0.19036912  0.93824304  1
  Zn  Zn148  1  0.93943239  0.68968179  0.43702992  1
  Zn  Zn149  1  0.93972000  0.68727124  0.93616928  1
  Zn  Zn150  1  0.05952850  0.31448060  0.06651676  1
  Zn  Zn151  1  0.06311029  0.31332668  0.56235924  1
  Zn  Zn152  1  0.06180911  0.80887035  0.06156654  1
  Zn  Zn153  1  0.06815135  0.82046155  0.56221741  1
  Zn  Zn154  1  0.56192158  0.30427856  0.06522907  1
  Zn  Zn155  1  0.56163412  0.31731568  0.55422621  1
  Zn  Zn156  1  0.55415836  0.80938760  0.05747410  1
  Zn  Zn157  1  0.56087632  0.81057113  0.56171256  1
  O  O158  1  0.12358419  0.13284078  0.10937041  1
  O  O159  1  0.11661438  0.10849761  0.63307125  1
  O  O160  1  0.11893084  0.63133718  0.11269589  1
  O  O161  1  0.13011190  0.61898737  0.61324270  1
  O  O162  1  0.61398911  0.12846069  0.10712947  1
  O  O163  1  0.60635737  0.11056624  0.65895537  1
  O  O164  1  0.63805186  0.62070471  0.10835982  1
  O  O165  1  0.61185977  0.63203578  0.62258604  1
  O  O166  1  0.36836734  0.38879143  0.37760259  1
  O  O167  1  0.38004308  0.38869555  0.87982670  1
  O  O168  1  0.38152035  0.87929655  0.38308373  1
  O  O169  1  0.40007994  0.86690125  0.88062370  1
  O  O170  1  0.88560684  0.36655381  0.38314815  1
  O  O171  1  0.88207397  0.38069924  0.88183502  1
  O  O172  1  0.88893818  0.86822989  0.36718720  1
  O  O173  1  0.88322334  0.87006341  0.88680965  1
  O  O174  1  0.25271576  0.01107019  0.37320613  1
  O  O175  1  0.25262955  0.02190515  0.87696793  1
  O  O176  1  0.25870548  0.50601299  0.36983962  1
  O  O177  1  0.26491452  0.50556314  0.87697500  1
  O  O178  1  0.75041591  0.00824534  0.36344459  1
  O  O179  1  0.75451512  -0.01112110  0.86425202  1
  O  O180  1  0.74854205  0.51209187  0.36885638  1
  O  O181  1  0.76292407  0.50423206  0.86596764  1
  O  O182  1  0.25378941  0.49166793  0.13795592  1
  O  O183  1  0.23945477  0.49253688  0.61648468  1
  O  O184  1  0.25410352  1.00101636  0.13220070  1
  O  O185  1  0.24020104  1.00799375  0.61763259  1
  O  O186  1  0.75149153  0.49033710  0.13702705  1
  O  O187  1  0.75436669  0.50699382  0.63974719  1
  O  O188  1  0.74916127  0.98865177  0.13543763  1
  O  O189  1  0.75135122  0.98775207  0.62887554  1
  O  O190  1  0.00912052  0.38246063  0.25958420  1
  O  O191  1  0.00844182  0.36897768  0.75477305  1
  O  O192  1  0.00673837  0.86878979  0.25503311  1
  O  O193  1  0.00417992  0.87406689  0.75945797  1
  O  O194  1  0.50476420  0.36332955  0.24734338  1
  O  O195  1  0.51352398  0.37657018  0.75264753  1
  O  O196  1  0.49396246  0.86391663  0.26308789  1
  O  O197  1  0.51658068  0.87949648  0.74905163  1
  O  O198  1  0.50476863  0.13447353  0.23039745  1
  O  O199  1  0.48609164  0.13991357  0.75857566  1
  O  O200  1  0.49070270  0.63328695  0.25805859  1
  O  O201  1  0.50349065  0.61947990  0.73590109  1
  O  O202  1  0.98608587  0.11695334  0.25256661  1
  O  O203  1  1.00525453  0.13448064  0.74349780  1
  O  O204  1  0.99571725  0.63032327  0.24595852  1
  O  O205  1  0.98682679  0.62689098  0.75683110  1
  O  O206  1  0.37712839  0.26996158  -0.00655141  1
  O  O207  1  0.37037059  0.24777405  0.51306903  1
  O  O208  1  0.37513898  0.73939651  0.02274071  1
  O  O209  1  0.37397523  0.76164996  0.49330590  1
  O  O210  1  0.86519295  0.25652505  0.00794856  1
  O  O211  1  0.87382361  0.26016566  0.50246520  1
  O  O212  1  0.88432672  0.75988828  0.01142177  1
  O  O213  1  0.86834564  0.74321977  0.51144080  1
  O  O214  1  0.13538118  0.25558598  0.49106413  1
  O  O215  1  0.11848929  0.24087114  0.99495133  1
  O  O216  1  0.11590049  0.74257190  0.48913900  1
  O  O217  1  0.12376739  0.74362821  0.98681583  1
  O  O218  1  0.63772777  0.24576561  0.50890656  1
  O  O219  1  0.64099872  0.25268820  0.99637752  1
  O  O220  1  0.63611008  0.74767794  0.48844115  1
  O  O221  1  0.61997007  0.73374946  0.99872555  1
  O  O222  1  0.49539866  0.24331973  0.13131469  1
  O  O223  1  0.49352264  0.25582817  0.63201940  1
  O  O224  1  0.48858546  0.75577568  0.13787288  1
  O  O225  1  0.48958330  0.73904223  0.61701880  1
  O  O226  1  0.98356414  0.24671347  0.12187151  1
  O  O227  1  1.00397492  0.23905568  0.62953976  1
  O  O228  1  0.99290467  0.74173520  0.13396077  1
  O  O229  1  0.98748251  0.75694030  0.62267204  1
  O  O230  1  0.01084354  0.25775750  0.38319920  1
  O  O231  1  -0.00278054  0.26412475  0.86553460  1
  O  O232  1  0.00698616  0.75569604  0.36673567  1
  O  O233  1  0.00911652  0.75948352  0.87318990  1
  O  O234  1  0.50013908  0.23708157  0.35708391  1
  O  O235  1  0.49064411  0.26665718  0.86124987  1
  O  O236  1  0.50768419  0.75422422  0.36882407  1
  O  O237  1  0.45761305  0.82415512  0.91777623  1
  O  O238  1  0.25382614  0.13965282  0.49213642  1
  O  O239  1  0.23623606  0.12961597  0.99240000  1
  O  O240  1  0.23762932  0.61918413  0.48772259  1
  O  O241  1  0.23693459  0.62835029  0.99429130  1
  O  O242  1  0.75584937  0.12944194  0.48790510  1
  O  O243  1  0.74037569  0.13597114  1.00331783  1
  O  O244  1  0.75173453  0.63343501  0.49030034  1
  O  O245  1  0.74408256  0.61939366  0.98810924  1
  O  O246  1  0.25532733  0.37971558  0.00662441  1
  O  O247  1  0.24729085  0.36513343  0.51087531  1
  O  O248  1  0.24487312  0.86617569  -0.00297319  1
  O  O249  1  0.26160116  0.87709137  0.49106532  1
  O  O250  1  0.75944474  0.36667756  0.00577087  1
  O  O251  1  0.76385084  0.36123817  0.49707273  1
  O  O252  1  0.76126062  0.88238845  0.01552085  1
  O  O253  1  0.74901101  0.86416212  0.50443759  1
  O  O254  1  0.13682066  0.48920571  0.26049322  1
  O  O255  1  0.11743782  0.49155165  0.73741243  1
  O  O256  1  0.12089194  0.98728894  0.25448403  1
  O  O257  1  0.12314645  0.98849875  0.74210565  1
  O  O258  1  0.63607656  0.49646639  0.25149753  1
  O  O259  1  0.63854717  0.49127780  0.75366391  1
  O  O260  1  0.63590152  1.00121316  0.25149961  1
  O  O261  1  0.64106705  0.98164179  0.75042381  1
  O  O262  1  0.37322366  -0.00945792  0.26763562  1
  O  O263  1  0.38374762  0.01520365  0.74130841  1
  O  O264  1  0.36858724  0.50429365  0.26183774  1
  O  O265  1  0.38025841  0.49736242  0.76253642  1
  O  O266  1  0.86305642  0.01380152  0.24435007  1
  O  O267  1  0.86200749  -0.00659668  0.75182683  1
  O  O268  1  0.86682790  0.51076365  0.24814911  1
  O  O269  1  0.86709092  0.50424580  0.75487666  1
  O  O270  1  0.11816897  0.36745594  0.37045282  1
  O  O271  1  0.11558974  0.38695847  0.86464085  1
  O  O272  1  0.11493525  0.86750273  0.36689329  1
  O  O273  1  0.11880115  0.87091092  0.86492607  1
  O  O274  1  0.63585732  0.35918001  0.38858104  1
  O  O275  1  0.61525188  0.38329379  0.86932846  1
  O  O276  1  0.61849204  0.86339667  0.37686655  1
  O  O277  1  0.62655759  0.86542636  0.86716141  1
  O  O278  1  0.39566499  0.13239361  0.09681330  1
  O  O279  1  0.37896532  0.13673663  0.63602214  1
  O  O280  1  0.36718224  0.62903698  0.14101852  1
  O  O281  1  0.38409502  0.63917812  0.62093505  1
  O  O282  1  0.87486678  0.13020425  0.13399366  1
  O  O283  1  0.89028792  0.12332712  0.63459529  1
  O  O284  1  0.87980555  0.63196542  0.13080551  1
  O  O285  1  0.86976010  0.63811381  0.63426246  1
  O  O286  1  0.25429928  0.26340909  0.11787329  1
  O  O287  1  0.25521133  0.25677196  0.61862840  1
  O  O288  1  0.26148681  0.75259958  0.13132236  1
  O  O289  1  0.26592041  0.74482313  0.62203808  1
  O  O290  1  0.75808636  0.25664044  0.11827270  1
  O  O291  1  0.75734081  0.23559929  0.60767788  1
  O  O292  1  0.76213078  0.76556853  0.13691155  1
  O  O293  1  0.75646385  0.75424685  0.61506968  1
  O  O294  1  0.24573774  0.24756009  0.38218914  1
  O  O295  1  0.25370656  0.23617340  0.87739798  1
  O  O296  1  0.23817763  0.74060809  0.36609855  1
  O  O297  1  0.24259839  0.73929580  0.87541449  1
  O  O298  1  0.75083849  0.23408505  0.38670385  1
  O  O299  1  0.75635541  0.25387933  0.88657548  1
  O  O300  1  0.74616306  0.74599569  0.37731616  1
  O  O301  1  0.75738609  0.73375284  0.87274031  1
  O  O302  1  0.01094728  0.11435238  -0.00395667  1
  O  O303  1  -0.00440878  0.11003869  0.50850502  1
  O  O304  1  0.01229543  0.62900568  0.00664288  1
  O  O305  1  0.00927439  0.61435610  0.49030122  1
  O  O306  1  0.51709907  0.13392716  0.00160861  1
  O  O307  1  0.49395039  0.10783966  0.49923427  1
  O  O308  1  0.51824283  0.61415977  -0.00963889  1
  O  O309  1  0.50435918  0.61665221  0.50463677  1
  O  O310  1  0.49448639  0.39575327  0.50983273  1
  O  O311  1  0.49625676  0.38192733  0.99266033  1
  O  O312  1  0.49451345  0.88088750  0.48629737  1
  O  O313  1  0.49405677  0.86883213  0.97503378  1
  O  O314  1  0.99195171  0.37937369  0.49354465  1
  O  O315  1  0.98843061  0.36945452  0.99214470  1
  O  O316  1  1.00106325  0.88489482  0.49354194  1
  O  O317  1  0.99772781  0.88483397  0.99510505  1
  O  O318  1  0.48654463  0.50484524  0.38450177  1
  O  O319  1  0.49059470  0.49557314  0.88186251  1
  O  O320  1  0.49434645  0.99427900  0.37983638  1
  O  O321  1  0.42522707  1.00948723  0.94988204  1
  O  O322  1  1.00486197  0.48715285  0.38693635  1
  O  O323  1  0.98634496  0.48940443  0.86851068  1
  O  O324  1  1.00490975  0.99352545  0.39233593  1
  O  O325  1  0.99910691  0.98940777  0.88461314  1
  O  O326  1  -0.00063903  0.00260116  0.11209909  1
  O  O327  1  0.00446573  0.00168514  0.61574554  1
  O  O328  1  -0.00511658  0.51311458  0.12969801  1
  O  O329  1  0.01234406  0.49449128  0.61131896  1
  O  O330  1  0.49783390  0.01424582  0.12636323  1
  O  O331  1  0.49805092  -0.00782358  0.60634814  1
  O  O332  1  0.49964901  0.49504392  0.11409018  1
  O  O333  1  0.48906511  0.51743482  0.61080491  1
  O  O334  1  0.24375335  0.38030484  0.24409647  1
  O  O335  1  0.23948729  0.36912910  0.74024696  1
  O  O336  1  0.23306002  0.87634054  0.25541263  1
  O  O337  1  0.24051714  0.87816321  0.76298838  1
  O  O338  1  0.75431052  0.38161469  0.24520211  1
  O  O339  1  0.74158436  0.38413980  0.75168946  1
  O  O340  1  0.75236443  0.88712667  0.23998895  1
  O  O341  1  0.74435544  0.87900712  0.74220431  1
  O  O342  1  0.24802428  0.13087257  0.26300668  1
  O  O343  1  0.26122214  0.13081863  0.75595993  1
  O  O344  1  0.25304887  0.61577014  0.25939390  1
  O  O345  1  0.23912596  0.62325043  0.76209728  1
  O  O346  1  0.75138998  0.11557344  0.25772247  1
  O  O347  1  0.74856621  0.10463610  0.74453257  1
  O  O348  1  0.75740651  0.61808842  0.25452789  1
  O  O349  1  0.75646983  0.61443636  0.76042543  1
  O  O350  1  0.36395008  0.11413298  0.38202076  1
  O  O351  1  0.36731742  0.12824268  0.86108928  1
  O  O352  1  0.36505622  0.62265796  0.36584278  1
  O  O353  1  0.36761533  0.61357562  0.87716060  1
  O  O354  1  0.86759947  0.12802473  0.36174633  1
  O  O355  1  0.88161234  0.12324778  0.86917476  1
  O  O356  1  0.86620486  0.63502329  0.36295424  1
  O  O357  1  0.86796741  0.61858671  0.87111590  1
  O  O358  1  0.13307770  0.37047883  0.13486176  1
  O  O359  1  0.13272770  0.38306168  0.63003757  1
  O  O360  1  0.12391578  0.86628576  0.14114360  1
  O  O361  1  0.12826561  0.88308387  0.63885493  1
  O  O362  1  0.63966368  0.37727941  0.12020274  1
  O  O363  1  0.62526755  0.38039143  0.63425855  1
  O  O364  1  0.63708450  0.86756924  0.11589947  1
  O  O365  1  0.63646139  0.87380580  0.62698819  1
  O  O366  1  0.12999085  0.26292433  0.26203155  1
  O  O367  1  0.11564845  0.26241909  0.74269721  1
  O  O368  1  0.11527748  0.75364282  0.25830931  1
  O  O369  1  0.12387272  0.76209078  0.75652731  1
  O  O370  1  0.61247828  0.25348292  0.24260187  1
  O  O371  1  0.61803663  0.26600462  0.74409280  1
  O  O372  1  0.61639317  0.74291809  0.25806407  1
  O  O373  1  0.63043159  0.76173362  0.74776453  1
  O  O374  1  0.38947147  0.25330333  0.24568218  1
  O  O375  1  0.38421532  0.25077430  0.73894876  1
  O  O376  1  0.38093411  0.74217390  0.24532978  1
  O  O377  1  0.37795235  0.75870852  0.73558773  1
  O  O378  1  0.86397487  0.23390032  0.24174592  1
  O  O379  1  0.88948002  0.25329238  0.74404094  1
  O  O380  1  0.88412875  0.74134173  0.24174565  1
  O  O381  1  0.87545296  0.74214342  0.73885308  1
  O  O382  1  0.37785315  0.50785663  0.48696689  1
  O  O383  1  0.38461002  0.49505436  0.99483419  1
  O  O384  1  0.38315410  0.98749433  0.49120084  1
  O  O385  1  0.37239010  0.98298584  0.99342843  1
  O  O386  1  0.88210345  0.48655122  0.50389316  1
  O  O387  1  0.86776185  0.48803261  0.99276613  1
  O  O388  1  0.88486360  0.99500829  0.50450540  1
  O  O389  1  0.88491392  0.99120235  1.00237632  1
  O  O390  1  0.11503219  0.00638221  -0.00290069  1
  O  O391  1  0.11764575  -0.00829691  0.51639150  1
  O  O392  1  0.12484285  0.51355795  -0.00249538  1
  O  O393  1  0.11799816  0.50645925  0.50513169  1
  O  O394  1  0.63065546  0.01173413  -0.00328759  1
  O  O395  1  0.61176561  -0.00547049  0.49894530  1
  O  O396  1  0.61875186  0.50479551  0.00215838  1
  O  O397  1  0.61148537  0.50386541  0.49543082  1
  O  O398  1  0.36371521  0.37818024  0.11538190  1
  O  O399  1  0.36392604  0.36946259  0.63320041  1
  O  O400  1  0.37056690  0.86234216  0.13272086  1
  O  O401  1  0.37983980  0.86172346  0.60815950  1
  O  O402  1  0.86797566  0.36767996  0.12014130  1
  O  O403  1  0.88148059  0.37224614  0.61234777  1
  O  O404  1  0.87521355  0.86780668  0.11927326  1
  O  O405  1  0.86380339  0.85841462  0.63103751  1
  O  O406  1  0.13357103  0.13800731  0.37359206  1
  O  O407  1  0.13421552  0.12500442  0.88130221  1
  O  O408  1  0.13031104  0.63189412  0.38043580  1
  O  O409  1  0.12817233  0.62972991  0.88322090  1
  O  O410  1  0.63634096  0.12120100  0.37446971  1
  O  O411  1  0.61958013  0.12206122  0.88273117  1
  O  O412  1  0.63794350  0.63547104  0.37477533  1
  O  O413  1  0.64061369  0.61907674  0.88167167  1
