# generated using pymatgen
data_V79Zn79O256
_symmetry_space_group_name_H-M   'P 1'
_cell_length_a   16.87613371
_cell_length_b   16.85527813
_cell_length_c   16.85418923
_cell_angle_alpha   90.01813812
_cell_angle_beta   90.05234254
_cell_angle_gamma   89.95994798
_symmetry_Int_Tables_number   1
_chemical_formula_structural   V79Zn79O256
_chemical_formula_sum   'V79 Zn79 O256'
_cell_volume   4794.20320191
_cell_formula_units_Z   1
loop_
 _symmetry_equiv_pos_site_id
 _symmetry_equiv_pos_as_xyz
  1  'x, y, z'
loop_
 _atom_site_type_symbol
 _atom_site_label
 _atom_site_symmetry_multiplicity
 _atom_site_fract_x
 _atom_site_fract_y
 _atom_site_fract_z
 _atom_site_occupancy
  V  V0  1  0.50365278  0.86562868  0.36889853  1
  V  V1  1  0.37519176  -0.00026178  0.37249212  1
  V  V2  1  0.12893905  0.13450447  -0.00478133  1
  V  V3  1  0.49572252  0.38528179  0.86195989  1
  V  V4  1  0.37547593  0.23806047  0.62512824  1
  V  V5  1  0.62615227  0.00263936  0.63021065  1
  V  V6  1  0.87745276  0.49247739  0.37572101  1
  V  V7  1  0.10279669  0.87604193  0.74549820  1
  V  V8  1  0.74921268  0.12150314  0.37370463  1
  V  V9  1  -0.01314595  0.50276026  -0.00598072  1
  V  V10  1  0.25591858  0.13772878  0.86869380  1
  V  V11  1  0.01015823  0.51040413  0.51071226  1
  V  V12  1  0.74958155  0.49792248  0.24651425  1
  V  V13  1  0.25005265  -0.00569548  0.24714479  1
  V  V14  1  0.00731194  0.25373269  0.24728880  1
  V  V15  1  0.88999291  0.74903321  0.62781097  1
  V  V16  1  0.49708327  0.50574137  -0.00645596  1
  V  V17  1  -0.00817596  0.00475172  0.49868999  1
  V  V18  1  0.62218312  0.24816478  0.37041924  1
  V  V19  1  0.01696675  0.36987048  0.37135479  1
  V  V20  1  0.94337284  -0.06247020  0.93791298  1
  V  V21  1  0.12175093  0.49537543  0.13502871  1
  V  V22  1  -0.00562965  0.12805319  0.11938904  1
  V  V23  1  0.24544407  0.39135464  0.62015936  1
  V  V24  1  0.24835988  0.37506684  0.12986667  1
  V  V25  1  0.13431368  0.62999087  -0.00140336  1
  V  V26  1  0.62227647  0.13146782  -0.00578342  1
  V  V27  1  0.37725415  0.63243728  0.25541701  1
  V  V28  1  0.75819166  0.87813191  0.62261088  1
  V  V29  1  0.49554491  0.12360993  0.11981424  1
  V  V30  1  0.37043260  0.75131253  0.10731440  1
  V  V31  1  0.12602540  0.01002491  0.61914002  1
  V  V32  1  0.12533662  0.00083385  0.11726071  1
  V  V33  1  0.73760599  0.25722508  0.52181345  1
  V  V34  1  0.74270526  0.11856320  0.86001288  1
  V  V35  1  0.49453374  0.23294493  0.74643687  1
  V  V36  1  0.50152680  0.63071629  0.13071669  1
  V  V37  1  0.24358280  0.74488872  0.50032845  1
  V  V38  1  0.62511121  0.87522788  0.75100401  1
  V  V39  1  0.62707458  0.26282403  0.86906858  1
  V  V40  1  -0.01152222  0.36025997  0.88157343  1
  V  V41  1  0.86621966  0.35179528  0.00887495  1
  V  V42  1  0.62425504  0.75581920  0.87358926  1
  V  V43  1  0.37421469  0.86742979  0.50356797  1
  V  V44  1  0.76068900  0.61933990  0.87611706  1
  V  V45  1  0.62794593  0.62545497  0.00325943  1
  V  V46  1  0.61726489  0.12273787  0.50254413  1
  V  V47  1  0.75720960  0.76696200  0.00402219  1
  V  V48  1  0.37341964  -0.01049281  0.87983060  1
  V  V49  1  0.87899551  0.62758460  0.25267180  1
  V  V50  1  0.38495142  0.38986707  0.49415878  1
  V  V51  1  0.75061760  0.48946888  0.73633799  1
  V  V52  1  0.62093939  0.37212518  0.25240199  1
  V  V53  1  0.52462761  0.50644155  0.50159441  1
  V  V54  1  0.87565209  0.36905451  0.51242402  1
  V  V55  1  0.14473976  0.38259985  0.78017122  1
  V  V56  1  0.49691865  -0.00893886  -0.00257072  1
  V  V57  1  0.11626574  0.75163852  0.86340951  1
  V  V58  1  0.74595693  0.62347498  0.38270801  1
  V  V59  1  0.87061597  -0.00403964  0.37183263  1
  V  V60  1  -0.00079772  0.62834409  0.13107085  1
  V  V61  1  0.25261392  0.87244476  0.10540990  1
  V  V62  1  0.24732434  0.24872758  0.49577287  1
  V  V63  1  0.25327674  0.86976634  0.62775409  1
  V  V64  1  0.37361909  0.38308920  -0.00497941  1
  V  V65  1  0.25596444  0.00049959  0.75009418  1
  V  V66  1  0.74669240  0.74563152  0.50247104  1
  V  V67  1  0.24178742  0.12607592  0.37408214  1
  V  V68  1  0.51925565  0.63687015  0.62816096  1
  V  V69  1  0.89341878  0.62764517  0.75498479  1
  V  V70  1  0.49860084  0.25076806  0.24816801  1
  V  V71  1  0.49852249  0.00131769  0.50416784  1
  V  V72  1  0.25158883  0.62218793  0.38196541  1
  V  V73  1  0.12133834  0.74721717  0.36828226  1
  V  V74  1  -0.00028287  0.87277745  0.36739899  1
  V  V75  1  0.75079973  0.35084011  0.12720359  1
  V  V76  1  0.87261446  0.76218812  0.12946972  1
  V  V77  1  0.63059636  0.87335164  0.23700925  1
  V  V78  1  0.25549395  0.49911862  0.25601018  1
  Zn  Zn79  1  0.75229779  -0.01332276  0.22314202  1
  Zn  Zn80  1  0.12169549  0.86567732  0.24029126  1
  Zn  Zn81  1  0.46038496  0.82591083  0.83116553  1
  Zn  Zn82  1  0.62368043  0.49594732  0.12495187  1
  Zn  Zn83  1  0.87657134  0.11636281  0.75859111  1
  Zn  Zn84  1  0.00692468  0.24046115  0.74500292  1
  Zn  Zn85  1  0.38786311  0.64193622  0.74533791  1
  Zn  Zn86  1  0.61479419  0.73806621  0.37501604  1
  Zn  Zn87  1  0.11798634  0.13397704  0.50083181  1
  Zn  Zn88  1  0.89987968  0.21125148  0.62232481  1
  Zn  Zn89  1  0.37194890  0.25266723  0.12248544  1
  Zn  Zn90  1  0.24848509  0.26188268  -0.00804947  1
  Zn  Zn91  1  0.87103647  0.12996078  0.24389727  1
  Zn  Zn92  1  0.28480049  0.54821935  0.80917745  1
  Zn  Zn93  1  0.37458733  0.12630862  0.24686602  1
  Zn  Zn94  1  0.18612913  0.18804958  0.19061273  1
  Zn  Zn95  1  0.18228125  0.20118479  0.69068313  1
  Zn  Zn96  1  0.19085553  0.68575065  0.18576488  1
  Zn  Zn97  1  0.18427008  0.68344714  0.68171575  1
  Zn  Zn98  1  0.70711426  0.14601971  0.16075572  1
  Zn  Zn99  1  0.68722711  0.20933527  0.68211593  1
  Zn  Zn100  1  0.68830195  0.69414706  0.19404017  1
  Zn  Zn101  1  0.69472921  0.68757140  0.69120313  1
  Zn  Zn102  1  0.31616057  0.31605240  0.31597455  1
  Zn  Zn103  1  0.32023486  0.32223050  0.80519190  1
  Zn  Zn104  1  0.31261767  0.80915084  0.30984047  1
  Zn  Zn105  1  0.28057018  0.77326897  0.80636558  1
  Zn  Zn106  1  0.81446072  0.30427188  0.31441359  1
  Zn  Zn107  1  0.82899436  0.30802312  0.80604864  1
  Zn  Zn108  1  0.81038579  0.81263031  0.31454844  1
  Zn  Zn109  1  0.81995563  0.82306525  0.80832104  1
  Zn  Zn110  1  0.19222420  0.44035839  0.44570442  1
  Zn  Zn111  1  0.17811559  0.44662740  0.94450544  1
  Zn  Zn112  1  0.18337762  0.93467970  0.43588200  1
  Zn  Zn113  1  0.17512774  0.94084515  0.92850683  1
  Zn  Zn114  1  0.69149417  0.43342208  0.43690796  1
  Zn  Zn115  1  0.69203452  0.43646537  0.93770065  1
  Zn  Zn116  1  0.68870079  0.93377288  0.44090835  1
  Zn  Zn117  1  0.68590823  0.94289333  0.94103660  1
  Zn  Zn118  1  0.31102782  0.06436832  0.05840511  1
  Zn  Zn119  1  0.31105653  0.06114194  0.56061323  1
  Zn  Zn120  1  0.31330973  0.56240789  0.06697465  1
  Zn  Zn121  1  0.32933903  0.56335878  0.59408752  1
  Zn  Zn122  1  0.81498226  0.05414426  0.04535633  1
  Zn  Zn123  1  0.80559000  0.07345793  0.56802745  1
  Zn  Zn124  1  0.81060953  0.56659745  0.06632318  1
  Zn  Zn125  1  0.82318574  0.56335547  0.56713115  1
  Zn  Zn126  1  0.43652892  0.44231294  0.18522866  1
  Zn  Zn127  1  0.43122155  0.45187364  0.67758265  1
  Zn  Zn128  1  0.43891269  0.93259255  0.18335322  1
  Zn  Zn129  1  0.43846396  0.93914222  0.68718125  1
  Zn  Zn130  1  0.93525810  0.43408347  0.18654280  1
  Zn  Zn131  1  0.94619133  0.44454400  0.69946390  1
  Zn  Zn132  1  0.93979422  0.94535116  0.18726795  1
  Zn  Zn133  1  0.92511093  0.97189673  0.67968600  1
  Zn  Zn134  1  0.06061508  0.06147110  0.30632655  1
  Zn  Zn135  1  0.06547492  0.05456344  0.81353089  1
  Zn  Zn136  1  0.06634296  0.56164547  0.31987215  1
  Zn  Zn137  1  0.10313019  0.56180466  0.79511062  1
  Zn  Zn138  1  0.56453309  0.05736198  0.30777408  1
  Zn  Zn139  1  0.56149741  0.06009152  0.81389584  1
  Zn  Zn140  1  0.55814227  0.55562149  0.31682306  1
  Zn  Zn141  1  0.57056888  0.56348495  0.80496965  1
  Zn  Zn142  1  0.43383681  0.19055480  0.43615869  1
  Zn  Zn143  1  0.43342100  0.19265585  0.93422976  1
  Zn  Zn144  1  0.43513756  0.67819433  0.44976793  1
  Zn  Zn145  1  0.40687973  0.68086984  0.91475094  1
  Zn  Zn146  1  0.93758235  0.18811214  0.43003349  1
  Zn  Zn147  1  0.95022910  0.15048526  0.91270374  1
  Zn  Zn148  1  0.93424563  0.69216346  0.44242863  1
  Zn  Zn149  1  0.94294980  0.69822341  0.94104808  1
  Zn  Zn150  1  0.06026564  0.31245717  0.06103518  1
  Zn  Zn151  1  0.05830804  0.31495653  0.56298651  1
  Zn  Zn152  1  0.05699251  0.81453536  0.05485681  1
  Zn  Zn153  1  0.06448821  0.82227311  0.55300495  1
  Zn  Zn154  1  0.56070245  0.31427405  0.06153340  1
  Zn  Zn155  1  0.56397355  0.31676962  0.56824675  1
  Zn  Zn156  1  0.55985466  0.80801078  0.05859787  1
  Zn  Zn157  1  0.56776204  0.81323644  0.55975704  1
  O  O158  1  0.12608093  0.12038821  0.11426747  1
  O  O159  1  0.13415666  0.11324772  0.62722988  1
  O  O160  1  0.11714614  0.61470072  0.12410961  1
  O  O161  1  0.12400750  0.59366440  0.68852932  1
  O  O162  1  0.60733303  0.13608427  0.10227822  1
  O  O163  1  0.62939351  0.11659240  0.61094261  1
  O  O164  1  0.61978054  0.62964450  0.11974196  1
  O  O165  1  0.62162565  0.62978820  0.62760136  1
  O  O166  1  0.37952044  0.37070016  0.39460658  1
  O  O167  1  0.38070554  0.38210614  0.88363043  1
  O  O168  1  0.38165038  0.88164602  0.37993082  1
  O  O169  1  0.37190445  0.89005372  0.87743965  1
  O  O170  1  0.87939838  0.38353907  0.37712357  1
  O  O171  1  0.87571842  0.37083808  0.90125942  1
  O  O172  1  0.88242867  0.88593921  0.36854667  1
  O  O173  1  0.88711877  0.87016848  0.88320229  1
  O  O174  1  0.25701235  0.00201166  0.36742863  1
  O  O175  1  0.25762056  0.00575606  0.86847204  1
  O  O176  1  0.24499459  0.50929160  0.36748259  1
  O  O177  1  0.19352927  0.48660836  0.83762829  1
  O  O178  1  0.75839172  0.00513514  0.38334169  1
  O  O179  1  0.73366255  0.01868065  0.87181757  1
  O  O180  1  0.75829720  0.50240924  0.36686698  1
  O  O181  1  0.75692099  0.51760849  0.88224657  1
  O  O182  1  0.24204159  0.49483596  0.13508178  1
  O  O183  1  0.24102539  0.48926314  0.60057342  1
  O  O184  1  0.24902477  0.99296596  0.12912895  1
  O  O185  1  0.24621140  0.99252562  0.63114957  1
  O  O186  1  0.74728468  0.49935479  0.13928645  1
  O  O187  1  0.75660815  0.50212137  0.63591856  1
  O  O188  1  0.74393044  1.04234835  0.12683355  1
  O  O189  1  0.73895972  0.98640824  0.61508037  1
  O  O190  1  -0.00140856  0.36650720  0.25868562  1
  O  O191  1  -0.03382673  0.36200726  0.77987690  1
  O  O192  1  0.00490288  0.88270588  0.26098556  1
  O  O193  1  0.00693012  0.88883843  0.73454288  1
  O  O194  1  0.51078833  0.36791535  0.23982124  1
  O  O195  1  0.48783481  0.39013633  0.76069237  1
  O  O196  1  0.50540988  0.87747536  0.26351350  1
  O  O197  1  0.51591446  0.87803047  0.74805203  1
  O  O198  1  0.50178836  0.12928174  0.23705819  1
  O  O199  1  0.49476947  0.13442224  0.75123105  1
  O  O200  1  0.49304077  0.61594156  0.24045536  1
  O  O201  1  0.50605313  0.62308423  0.73564770  1
  O  O202  1  1.00059860  0.13426212  0.23794790  1
  O  O203  1  0.99259220  0.13728170  0.80087685  1
  O  O204  1  0.98998681  0.61796579  0.24531725  1
  O  O205  1  0.98960567  0.62371527  0.77249237  1
  O  O206  1  0.37149737  0.26841911  0.00001195  1
  O  O207  1  0.37521559  0.25695073  0.51159502  1
  O  O208  1  0.37283051  0.73979153  0.00824976  1
  O  O209  1  0.36339606  0.76286849  0.49299966  1
  O  O210  1  0.87242097  0.25590475  0.01150435  1
  O  O211  1  0.87462107  0.26222001  0.49632557  1
  O  O212  1  0.86473054  0.74910349  0.01465150  1
  O  O213  1  0.86412723  0.74593514  0.51898116  1
  O  O214  1  0.14348435  0.24973754  0.50127080  1
  O  O215  1  0.13153422  0.23953117  1.00369298  1
  O  O216  1  0.13592048  0.75658526  0.48738933  1
  O  O217  1  0.12688368  0.72709244  1.02599303  1
  O  O218  1  0.61893751  0.23872739  0.48475925  1
  O  O219  1  0.60586657  0.24240669  0.97952245  1
  O  O220  1  0.64157261  0.75195919  0.49249623  1
  O  O221  1  0.63974413  0.74468776  0.99854308  1
  O  O222  1  0.49671478  0.24378066  0.13166383  1
  O  O223  1  0.48975540  0.25579162  0.63783576  1
  O  O224  1  0.48692765  0.73958489  0.11845097  1
  O  O225  1  0.50710778  0.73997513  0.61786725  1
  O  O226  1  1.00446728  0.24099407  0.13469955  1
  O  O227  1  1.00874208  0.23933505  0.62700497  1
  O  O228  1  0.98399298  0.73866961  0.12039708  1
  O  O229  1  0.98787559  0.76356918  0.61651887  1
  O  O230  1  0.00325734  0.26285231  0.36884550  1
  O  O231  1  -0.00609280  0.26307010  0.90116820  1
  O  O232  1  0.00805446  0.75928399  0.38328543  1
  O  O233  1  0.02648244  0.76977291  0.91176209  1
  O  O234  1  0.50999263  0.23939557  0.36176175  1
  O  O235  1  0.49403733  0.26226209  0.85788806  1
  O  O236  1  0.49509792  0.76294046  0.38409093  1
  O  O237  1  0.52455378  0.74967235  0.89556751  1
  O  O238  1  0.25137769  0.13119888  0.49055377  1
  O  O239  1  0.24540177  0.13312389  0.99033076  1
  O  O240  1  0.26108287  0.63738472  0.49381723  1
  O  O241  1  0.23289179  0.60755865  0.99882263  1
  O  O242  1  0.73477133  0.12917839  0.48996922  1
  O  O243  1  0.72411279  0.12915396  0.98780987  1
  O  O244  1  0.76017845  0.62779500  0.49123751  1
  O  O245  1  0.74545469  0.63154471  0.99467425  1
  O  O246  1  0.25547618  0.38369943  0.00658433  1
  O  O247  1  0.26372016  0.36637605  0.50186650  1
  O  O248  1  0.24434821  0.88446563  0.00721984  1
  O  O249  1  0.25593201  0.87040571  0.50619495  1
  O  O250  1  0.75688646  0.37504380  0.01285270  1
  O  O251  1  0.76610990  0.36589655  0.49645145  1
  O  O252  1  0.74524213  0.86617666  0.00429529  1
  O  O253  1  0.74882852  0.86508167  0.51386816  1
  O  O254  1  0.13617821  0.50540916  0.24268429  1
  O  O255  1  0.08235475  0.44290525  0.73397464  1
  O  O256  1  0.13752318  1.00140660  0.23713761  1
  O  O257  1  0.13415889  0.99086527  0.74098341  1
  O  O258  1  0.63269323  0.48863574  0.25214783  1
  O  O259  1  0.65204545  0.49929369  0.76072105  1
  O  O260  1  0.62859054  0.98085991  0.25430771  1
  O  O261  1  0.61922208  0.99467420  0.73811237  1
  O  O262  1  0.36914799  -0.00206830  0.25660341  1
  O  O263  1  0.36412040  -0.00252922  0.75886229  1
  O  O264  1  0.36457348  0.51435629  0.24265270  1
  O  O265  1  0.35039530  0.52596289  0.71096474  1
  O  O266  1  0.86847883  0.00831597  0.25775521  1
  O  O267  1  0.87727961  0.00396605  0.77438165  1
  O  O268  1  0.86784368  0.50448565  0.25666087  1
  O  O269  1  0.86980473  0.52276348  0.74875578  1
  O  O270  1  0.11492290  0.37882730  0.37669411  1
  O  O271  1  0.10329900  0.37152068  0.88136011  1
  O  O272  1  0.12051483  0.86668366  0.36695085  1
  O  O273  1  0.12282366  0.87530291  0.84988137  1
  O  O274  1  0.63264914  0.36176680  0.36323739  1
  O  O275  1  0.61240362  0.36801154  0.88182614  1
  O  O276  1  0.60893587  0.87442463  0.37832607  1
  O  O277  1  0.63468638  0.86498468  0.86866131  1
  O  O278  1  0.38206898  0.13069649  0.12389214  1
  O  O279  1  0.37516863  0.13784921  0.62032784  1
  O  O280  1  0.38010548  0.63482440  0.13033081  1
  O  O281  1  0.39406330  0.64826508  0.62526139  1
  O  O282  1  0.89419213  0.12166676  0.11725506  1
  O  O283  1  0.88839774  0.08818881  0.64269059  1
  O  O284  1  0.88170199  0.62830229  0.13606254  1
  O  O285  1  0.88088350  0.63933526  0.63944549  1
  O  O286  1  0.24912510  0.26498189  0.12716010  1
  O  O287  1  0.26343514  0.25132177  0.61764889  1
  O  O288  1  0.26209696  0.75613917  0.12497667  1
  O  O289  1  0.23732364  0.76117782  0.61490366  1
  O  O290  1  0.74554914  0.25206757  0.13419220  1
  O  O291  1  0.78345337  0.20869724  0.60481853  1
  O  O292  1  0.76119104  0.74449256  0.11533262  1
  O  O293  1  0.75449190  0.75983293  0.62061466  1
  O  O294  1  0.26293788  0.23720518  0.38273909  1
  O  O295  1  0.25609614  0.24150422  0.86770050  1
  O  O296  1  0.24272771  0.74454674  0.38047976  1
  O  O297  1  0.21016329  0.76615066  0.89825741  1
  O  O298  1  0.73952454  0.24239739  0.38715646  1
  O  O299  1  0.72701082  0.25628196  0.86550834  1
  O  O300  1  0.75987933  0.73797588  0.38657213  1
  O  O301  1  0.74699605  0.74700369  0.89154962  1
  O  O302  1  0.01689160  0.13115221  0.00972262  1
  O  O303  1  0.00470350  0.11096381  0.48629387  1
  O  O304  1  0.00241495  0.61602148  0.01074125  1
  O  O305  1  -0.00796944  0.60872036  0.49257213  1
  O  O306  1  0.49816940  0.12173925  0.00175410  1
  O  O307  1  0.50564163  0.11255917  0.49105782  1
  O  O308  1  0.51126820  0.62079416  0.00743965  1
  O  O309  1  0.51006052  0.61741561  0.50783974  1
  O  O310  1  0.49305618  0.38853314  0.51477392  1
  O  O311  1  0.49266164  0.38616585  0.99389247  1
  O  O312  1  0.49222201  0.88239407  0.49248238  1
  O  O313  1  0.50770170  0.89171300  0.99809570  1
  O  O314  1  0.99170714  0.37934112  0.48586909  1
  O  O315  1  0.98460132  0.38444586  1.00692264  1
  O  O316  1  1.00803697  0.89348236  0.48021366  1
  O  O317  1  0.98509632  0.89211882  1.02049554  1
  O  O318  1  0.50292018  0.50398111  0.39957647  1
  O  O319  1  0.51463808  0.49721407  0.88700235  1
  O  O320  1  0.49160977  0.99069703  0.38226908  1
  O  O321  1  0.48233981  1.00676094  0.88053574  1
  O  O322  1  0.99354225  0.48778006  0.37534933  1
  O  O323  1  0.99946953  0.48904255  0.89488820  1
  O  O324  1  0.99162984  0.99668637  0.37662637  1
  O  O325  1  1.02093351  0.98293802  0.88938102  1
  O  O326  1  0.01383600  0.01780357  0.13348982  1
  O  O327  1  0.01197554  -0.00831324  0.60408993  1
  O  O328  1  0.00427832  0.50704843  0.12466228  1
  O  O329  1  -0.00686553  0.49609079  0.60887934  1
  O  O330  1  0.48930799  0.00847508  0.10791967  1
  O  O331  1  0.50814399  -0.00462928  0.61272096  1
  O  O332  1  0.50386204  0.51177267  0.11468082  1
  O  O333  1  0.50040302  0.51549460  0.61094172  1
  O  O334  1  0.25972466  0.38620794  0.24282290  1
  O  O335  1  0.24728988  0.37852837  0.73401018  1
  O  O336  1  0.25091829  0.88432906  0.24099058  1
  O  O337  1  0.24797622  0.87828854  0.74001176  1
  O  O338  1  0.74446101  0.37835899  0.24477072  1
  O  O339  1  0.77132030  0.39252825  0.75655403  1
  O  O340  1  0.73782638  0.87473545  0.25105260  1
  O  O341  1  0.73752087  0.87005484  0.73599707  1
  O  O342  1  0.25403313  0.11466278  0.25503625  1
  O  O343  1  0.23826893  0.11643721  0.76241895  1
  O  O344  1  0.25808691  0.61897019  0.25830737  1
  O  O345  1  0.26171210  0.66223165  0.76296051  1
  O  O346  1  0.74696999  0.12934668  0.26890055  1
  O  O347  1  0.73426278  0.13364716  0.75826570  1
  O  O348  1  0.75915853  0.61625222  0.25718557  1
  O  O349  1  0.75760313  0.62332367  0.76734361  1
  O  O350  1  0.36895241  0.11085253  0.37405904  1
  O  O351  1  0.35897221  0.11858084  0.87786279  1
  O  O352  1  0.36388936  0.63279277  0.36798439  1
  O  O353  1  0.37901286  0.58674789  0.86298238  1
  O  O354  1  0.86456835  0.11443570  0.37775455  1
  O  O355  1  0.84050963  0.14395017  0.87996942  1
  O  O356  1  0.87022087  0.61404957  0.36868453  1
  O  O357  1  0.86686513  0.64273665  0.87051762  1
  O  O358  1  0.13367122  0.38605517  0.11770723  1
  O  O359  1  0.14869472  0.36657871  0.60987320  1
  O  O360  1  0.13323622  0.88253813  0.12269241  1
  O  O361  1  0.13345662  0.88466205  0.63060756  1
  O  O362  1  0.63413866  0.37401970  0.13267400  1
  O  O363  1  0.67004585  0.29798913  0.60357918  1
  O  O364  1  0.61739875  0.86833471  0.13778858  1
  O  O365  1  0.63213028  0.88254047  0.63076004  1
  O  O366  1  0.10882265  0.24658710  0.25236862  1
  O  O367  1  0.12297964  0.27956810  0.75289488  1
  O  O368  1  0.12929279  0.74816972  0.26126910  1
  O  O369  1  0.11354240  0.76325954  0.75379645  1
  O  O370  1  0.61671299  0.25517972  0.25507466  1
  O  O371  1  0.60373665  0.25357409  0.75908328  1
  O  O372  1  0.62823219  0.76473088  0.26114740  1
  O  O373  1  0.63085659  0.75492500  0.76802760  1
  O  O374  1  0.38802006  0.24941100  0.24977005  1
  O  O375  1  0.38283595  0.25301929  0.73674337  1
  O  O376  1  0.37255808  0.73768525  0.24000938  1
  O  O377  1  0.38869382  0.74228972  0.81151450  1
  O  O378  1  0.89283869  0.24337445  0.25756552  1
  O  O379  1  0.88061653  0.23179634  0.74070950  1
  O  O380  1  0.86587143  0.73783673  0.24049491  1
  O  O381  1  0.87299959  0.74346549  0.73882221  1
  O  O382  1  0.37363972  0.49005388  0.50380204  1
  O  O383  1  0.38612203  0.49541805  1.00622917  1
  O  O384  1  0.37916806  0.99081475  0.49277174  1
  O  O385  1  0.38145332  1.00204591  0.98887950  1
  O  O386  1  0.88007467  0.48769095  0.49149518  1
  O  O387  1  0.88553814  0.50397629  1.00725688  1
  O  O388  1  0.88725326  1.00368465  0.49198681  1
  O  O389  1  0.88580991  1.01624340  0.97277664  1
  O  O390  1  0.13533012  0.01427074  0.01107196  1
  O  O391  1  0.12298886  0.00505803  0.50533437  1
  O  O392  1  0.10933441  0.51028963  0.01421983  1
  O  O393  1  0.10909682  0.49911347  0.49502080  1
  O  O394  1  0.60424153  0.01833618  -0.01643626  1
  O  O395  1  0.61638067  0.00381415  0.50586111  1
  O  O396  1  0.62213035  0.51166186  0.00271616  1
  O  O397  1  0.62440022  0.49110128  0.50605719  1
  O  O398  1  0.36488152  0.37860429  0.11549763  1
  O  O399  1  0.36313168  0.36945845  0.61478491  1
  O  O400  1  0.37117996  0.85924028  0.12292195  1
  O  O401  1  0.36543200  0.88125434  0.61555535  1
  O  O402  1  0.86257986  0.37686182  0.11945482  1
  O  O403  1  0.88477519  0.37550283  0.61056533  1
  O  O404  1  0.87512023  0.86076805  0.14005385  1
  O  O405  1  0.86175402  0.87114825  0.63472617  1
  O  O406  1  0.13920542  0.11687710  0.37414313  1
  O  O407  1  0.14017168  0.11809841  0.89004628  1
  O  O408  1  0.13902128  0.63372249  0.37312351  1
  O  O409  1  0.11367849  0.63971701  0.88969837  1
  O  O410  1  0.62889648  0.12619808  0.38057233  1
  O  O411  1  0.62155142  0.14007114  0.87600626  1
  O  O412  1  0.64213543  0.62278088  0.36576022  1
  O  O413  1  0.64000517  0.63707172  0.88401979  1
