# generated using pymatgen
data_V79Zn79O256
_symmetry_space_group_name_H-M   'P 1'
_cell_length_a   16.95979513
_cell_length_b   16.94442111
_cell_length_c   16.97826108
_cell_angle_alpha   89.99505138
_cell_angle_beta   89.99919674
_cell_angle_gamma   90.02501844
_symmetry_Int_Tables_number   1
_chemical_formula_structural   V79Zn79O256
_chemical_formula_sum   'V79 Zn79 O256'
_cell_volume   4879.10879968
_cell_formula_units_Z   1
loop_
 _symmetry_equiv_pos_site_id
 _symmetry_equiv_pos_as_xyz
  1  'x, y, z'
loop_
 _atom_site_type_symbol
 _atom_site_label
 _atom_site_symmetry_multiplicity
 _atom_site_fract_x
 _atom_site_fract_y
 _atom_site_fract_z
 _atom_site_occupancy
  V  V0  1  0.00660328  0.24748309  0.74654809  1
  V  V1  1  0.12286161  0.24726468  0.88508661  1
  V  V2  1  0.49809221  0.87762432  0.87862172  1
  V  V3  1  0.38231775  0.53509656  0.88073845  1
  V  V4  1  0.35579754  0.12985593  0.27577762  1
  V  V5  1  0.87632877  0.37143178  0.49732765  1
  V  V6  1  0.88042652  -0.00274973  0.87745903  1
  V  V7  1  0.62791862  -0.00908897  0.63063983  1
  V  V8  1  0.00219155  0.24501955  0.24278989  1
  V  V9  1  0.26186911  0.25018379  0.00178298  1
  V  V10  1  0.74408704  -0.00259492  0.24788883  1
  V  V11  1  0.37336135  0.48770856  0.37205772  1
  V  V12  1  0.49480435  0.13045112  0.62508090  1
  V  V13  1  0.25392826  0.26238645  0.52099860  1
  V  V14  1  0.50468807  0.49482026  0.00115244  1
  V  V15  1  0.87725692  0.74428725  0.11951162  1
  V  V16  1  0.25278301  0.74463878  -0.00229983  1
  V  V17  1  0.23941195  0.62435119  0.37278541  1
  V  V18  1  0.13170030  0.00105856  0.62591251  1
  V  V19  1  0.61732970  0.87458715  0.25358200  1
  V  V20  1  0.63913306  0.62698445  0.49489603  1
  V  V21  1  0.11786770  0.48567678  0.63930456  1
  V  V22  1  0.62899913  0.49665942  0.13334339  1
  V  V23  1  0.86583281  0.49899029  0.36923345  1
  V  V24  1  0.63508870  0.64012862  0.00195795  1
  V  V25  1  0.74773766  0.24428314  -0.00588613  1
  V  V26  1  0.75226863  0.38294078  0.62954511  1
  V  V27  1  0.00659671  0.87679661  0.88635002  1
  V  V28  1  0.49097721  0.00200455  0.49058155  1
  V  V29  1  0.13125115  0.74071951  0.87666034  1
  V  V30  1  0.75008880  0.87092951  0.11860874  1
  V  V31  1  0.86269243  0.62163547  0.25530753  1
  V  V32  1  0.25415093  0.87549423  0.62989402  1
  V  V33  1  0.62919395  0.37657293  0.74728662  1
  V  V34  1  0.25034248  0.39557742  0.10962102  1
  V  V35  1  0.62061702  0.12674445  0.49748096  1
  V  V36  1  0.87401065  0.24600923  0.11936050  1
  V  V37  1  0.37943483  0.75896780  0.13306624  1
  V  V38  1  0.61344259  0.11805225  0.00168423  1
  V  V39  1  0.50401960  0.62858070  0.13376903  1
  V  V40  1  0.49511949  0.49549048  0.49470135  1
  V  V41  1  0.00142172  0.74063560  0.26487249  1
  V  V42  1  0.87541519  0.12072940  0.24881571  1
  V  V43  1  0.24976653  -0.00710719  0.27153003  1
  V  V44  1  -0.00079152  0.49712309  0.49413147  1
  V  V45  1  0.00609782  0.11502794  0.11194705  1
  V  V46  1  0.86733044  0.11727169  0.74577559  1
  V  V47  1  0.87528224  0.24558269  0.62246160  1
  V  V48  1  0.49198248  0.37849433  0.88166811  1
  V  V49  1  0.46037001  0.11965155  0.12644551  1
  V  V50  1  0.12273210  0.38896438  0.22815522  1
  V  V51  1  0.37716319  0.73456421  0.63156428  1
  V  V52  1  0.00303306  0.12007300  0.61526029  1
  V  V53  1  0.37616562  0.62677466  0.25740001  1
  V  V54  1  0.74981635  0.24620026  0.49969804  1
  V  V55  1  -0.00354709  0.37767750  0.87063707  1
  V  V56  1  0.61723445  0.75118946  0.37448738  1
  V  V57  1  0.49028147  0.25380031  0.74659316  1
  V  V58  1  0.62309105  0.24962267  0.87512165  1
  V  V59  1  0.74233032  0.12683083  0.37350575  1
  V  V60  1  0.36810475  0.10667053  0.74617264  1
  V  V61  1  0.13676411  0.24571420  0.36883086  1
  V  V62  1  0.87405360  0.76731302  0.62244650  1
  V  V63  1  0.28629694  0.49016913  0.72229072  1
  V  V64  1  0.00069087  0.37532930  0.36701712  1
  V  V65  1  0.13396576  0.87678310  0.75085103  1
  V  V66  1  0.87247833  0.38135608  -0.00618807  1
  V  V67  1  0.88302057  -0.01099472  0.37772503  1
  V  V68  1  0.74406153  0.37394426  0.12657303  1
  V  V69  1  0.12436595  0.62548853  0.49806781  1
  V  V70  1  0.24802654  0.11194891  0.86748524  1
  V  V71  1  0.75443578  0.76781067  0.49500265  1
  V  V72  1  0.62776369  0.50712994  0.62360669  1
  V  V73  1  0.37070003  0.87724913  0.49508071  1
  V  V74  1  0.24606714  0.87606223  0.12448721  1
  V  V75  1  0.11677290  0.86652862  0.25940851  1
  V  V76  1  0.00345280  0.74364547  0.74745183  1
  V  V77  1  0.76321861  0.64496619  0.88779307  1
  V  V78  1  -0.00904115  0.62343437  0.62470398  1
  Zn  Zn79  1  0.85581427  0.49916765  0.85426203  1
  Zn  Zn80  1  0.61354536  -0.00021541  0.12014427  1
  Zn  Zn81  1  0.74901968  -0.04037683  0.74117398  1
  Zn  Zn82  1  0.69039762  0.43259188  0.29373711  1
  Zn  Zn83  1  0.48867397  0.87845296  0.36768372  1
  Zn  Zn84  1  -0.01796415  -0.03515997  0.50942992  1
  Zn  Zn85  1  0.24938992  0.74691449  0.50083327  1
  Zn  Zn86  1  0.54607711  0.33276058  0.30906341  1
  Zn  Zn87  1  0.35410011  0.31731396  0.63153715  1
  Zn  Zn88  1  0.11290414  -0.01172375  0.11523688  1
  Zn  Zn89  1  0.13333377  0.59428858  0.01216182  1
  Zn  Zn90  1  0.13619083  0.12120704  0.48256087  1
  Zn  Zn91  1  0.88137815  0.87498270  0.00260138  1
  Zn  Zn92  1  0.74421451  0.11061633  0.86870172  1
  Zn  Zn93  1  0.50268932  0.63016317  0.62060000  1
  Zn  Zn94  1  0.19047092  0.18358863  0.18342620  1
  Zn  Zn95  1  0.18777646  0.18917883  0.68726155  1
  Zn  Zn96  1  0.19425656  0.68682510  0.19325056  1
  Zn  Zn97  1  0.19085578  0.67390516  0.68872353  1
  Zn  Zn98  1  0.68608028  0.18768577  0.18470723  1
  Zn  Zn99  1  0.68261317  0.18866333  0.68147398  1
  Zn  Zn100  1  0.68786976  0.69027862  0.19181703  1
  Zn  Zn101  1  0.70730814  0.74481515  0.71717258  1
  Zn  Zn102  1  0.31059575  0.32062882  0.29021610  1
  Zn  Zn103  1  0.30789519  0.32000059  0.81198387  1
  Zn  Zn104  1  0.30607420  0.80648932  0.31615644  1
  Zn  Zn105  1  0.31351398  0.79910331  0.80792122  1
  Zn  Zn106  1  0.81547656  0.30427982  0.31172390  1
  Zn  Zn107  1  0.81465877  0.30418673  0.80797467  1
  Zn  Zn108  1  0.80884191  0.80974862  0.31009012  1
  Zn  Zn109  1  0.82469418  0.81306654  0.81445784  1
  Zn  Zn110  1  0.18469999  0.43708312  0.42895279  1
  Zn  Zn111  1  0.20581781  0.43055496  0.91472970  1
  Zn  Zn112  1  0.16029039  0.91981054  0.45206431  1
  Zn  Zn113  1  0.18402377  0.93040006  0.94442277  1
  Zn  Zn114  1  0.69035821  0.43863405  0.45253341  1
  Zn  Zn115  1  0.68693777  0.44250935  0.94188753  1
  Zn  Zn116  1  0.68316147  0.94310425  0.43640686  1
  Zn  Zn117  1  0.69737161  0.93836983  0.93370513  1
  Zn  Zn118  1  0.28060706  0.04476989  0.04244454  1
  Zn  Zn119  1  0.30609038  0.06617251  0.55796295  1
  Zn  Zn120  1  0.31752643  0.56810934  0.06266807  1
  Zn  Zn121  1  0.30722698  0.54891243  0.55864605  1
  Zn  Zn122  1  0.81056671  0.05978666  0.06021091  1
  Zn  Zn123  1  0.80953011  0.05427787  0.56129158  1
  Zn  Zn124  1  0.81609644  0.56079911  0.06546698  1
  Zn  Zn125  1  0.80671503  0.57881671  0.69193221  1
  Zn  Zn126  1  0.43190340  0.44461807  0.18290257  1
  Zn  Zn127  1  0.45737842  0.45523016  0.69978624  1
  Zn  Zn128  1  0.43217557  0.95428758  0.19499472  1
  Zn  Zn129  1  0.43746830  0.93822372  0.67543190  1
  Zn  Zn130  1  0.93004478  0.43551490  0.18108856  1
  Zn  Zn131  1  0.93851323  0.43568408  0.68805490  1
  Zn  Zn132  1  0.93770999  0.93196720  0.19007838  1
  Zn  Zn133  1  0.94793685  0.93720899  0.69483569  1
  Zn  Zn134  1  0.06618177  0.05594485  0.30474554  1
  Zn  Zn135  1  0.06243700  0.06326719  0.80805066  1
  Zn  Zn136  1  0.05112039  0.56775925  0.17718408  1
  Zn  Zn137  1  0.08605848  0.53840980  0.84635335  1
  Zn  Zn138  1  0.54762925  0.16719012  0.30844485  1
  Zn  Zn139  1  0.56120759  0.06740625  0.80709986  1
  Zn  Zn140  1  0.55987787  0.56725833  0.31818864  1
  Zn  Zn141  1  0.65214018  0.56564591  0.80605519  1
  Zn  Zn142  1  0.42389113  0.20301829  0.44997632  1
  Zn  Zn143  1  0.43300088  0.18390369  0.93506256  1
  Zn  Zn144  1  0.43820440  0.68733752  0.44470109  1
  Zn  Zn145  1  0.44524638  0.69127376  0.95719678  1
  Zn  Zn146  1  0.93857219  0.18283605  0.43216510  1
  Zn  Zn147  1  0.93532193  0.18450337  0.93369988  1
  Zn  Zn148  1  0.93064708  0.68384058  0.43992170  1
  Zn  Zn149  1  0.94751352  0.68012521  0.93495590  1
  Zn  Zn150  1  0.05753407  0.44010048  0.03845264  1
  Zn  Zn151  1  0.06272776  0.30620215  0.55550340  1
  Zn  Zn152  1  0.06053486  0.72578373  0.07017396  1
  Zn  Zn153  1  0.06345561  0.80943377  0.56205218  1
  Zn  Zn154  1  0.54814776  0.29931420  0.14927369  1
  Zn  Zn155  1  0.56635464  0.31318791  0.46179006  1
  Zn  Zn156  1  0.56273699  0.81504042  0.07192379  1
  Zn  Zn157  1  0.55665073  0.81169160  0.55735722  1
  O  O158  1  0.10618766  0.12137006  0.13233229  1
  O  O159  1  0.11554081  0.11479955  0.63569243  1
  O  O160  1  0.12388718  0.63616090  0.12295574  1
  O  O161  1  0.11302189  0.60991237  0.61578803  1
  O  O162  1  0.62968330  0.12157742  0.10564278  1
  O  O163  1  0.61528213  0.11779481  0.61639029  1
  O  O164  1  0.62344323  0.61947365  0.12499359  1
  O  O165  1  0.63113864  0.61183133  0.61576165  1
  O  O166  1  0.36850046  0.38879956  0.36191623  1
  O  O167  1  0.39233085  0.37296773  0.87384325  1
  O  O168  1  0.37120740  0.86679945  0.38998984  1
  O  O169  1  0.39386369  0.87608601  0.87674084  1
  O  O170  1  0.88177886  0.37644845  0.37455459  1
  O  O171  1  0.87782751  0.36910703  0.87875319  1
  O  O172  1  0.87041494  0.89086130  0.36535903  1
  O  O173  1  0.88997386  0.87968359  0.87789647  1
  O  O174  1  0.23020006  -0.01037692  0.36811596  1
  O  O175  1  0.24112040  0.01458864  0.87030913  1
  O  O176  1  0.26657456  0.50879478  0.38216023  1
  O  O177  1  0.28582294  0.51304391  0.89820353  1
  O  O178  1  0.75728404  0.00945960  0.36795353  1
  O  O179  1  0.76192496  -0.00665543  0.85841784  1
  O  O180  1  0.76286206  0.48677996  0.37333968  1
  O  O181  1  0.73957837  0.51746733  0.87359811  1
  O  O182  1  0.23639857  0.49460956  0.09906113  1
  O  O183  1  0.22491242  0.49147556  0.62251142  1
  O  O184  1  0.26345573  0.97638786  0.14234421  1
  O  O185  1  0.24627774  0.98671465  0.62807214  1
  O  O186  1  0.74119680  0.48683161  0.12008903  1
  O  O187  1  0.74455556  0.48963335  0.62519836  1
  O  O188  1  0.75450122  0.98736515  0.13338843  1
  O  O189  1  0.73415148  0.99901309  0.62622574  1
  O  O190  1  0.00460484  0.36380048  0.24744178  1
  O  O191  1  -0.01645953  0.35632085  0.76161387  1
  O  O192  1  0.01084746  0.86564131  0.25087871  1
  O  O193  1  0.01626265  0.86257496  0.75363651  1
  O  O194  1  0.48293557  0.35660910  0.22377747  1
  O  O195  1  0.51131817  0.36915983  0.75747580  1
  O  O196  1  0.51357093  0.88873012  0.25010510  1
  O  O197  1  0.49742256  0.87704964  0.77420482  1
  O  O198  1  0.46136853  0.12197610  0.23912198  1
  O  O199  1  0.48412540  0.13381322  0.74803476  1
  O  O200  1  0.49465870  0.62552119  0.24049775  1
  O  O201  1  0.55621791  0.66151608  0.74837178  1
  O  O202  1  0.98917700  0.12736364  0.24582941  1
  O  O203  1  0.98893140  0.12764307  0.73738260  1
  O  O204  1  0.98927569  0.63790180  0.24709057  1
  O  O205  1  1.00983517  0.64014640  0.73786581  1
  O  O206  1  0.36063194  0.25338867  -0.01019093  1
  O  O207  1  0.36094544  0.26347633  0.52471903  1
  O  O208  1  0.36481773  0.74558912  0.02053910  1
  O  O209  1  0.37069057  0.75947174  0.50992392  1
  O  O210  1  0.86357250  0.25299666  -0.00100565  1
  O  O211  1  0.87112575  0.25163783  0.50235691  1
  O  O212  1  0.88288060  0.74996827  0.01823338  1
  O  O213  1  0.86407530  0.75054687  0.50663508  1
  O  O214  1  0.12942412  0.24871603  0.48048100  1
  O  O215  1  0.12702610  0.23981373  0.98157178  1
  O  O216  1  0.12764896  0.72782851  0.50772485  1
  O  O217  1  0.14341278  0.75827790  0.99105303  1
  O  O218  1  0.63367015  0.23379750  0.50721407  1
  O  O219  1  0.63201298  0.23615256  0.98664149  1
  O  O220  1  0.63451465  0.74836887  0.49580623  1
  O  O221  1  0.62731741  0.73855655  1.01714952  1
  O  O222  1  0.48754339  0.21494609  0.10629771  1
  O  O223  1  0.50370080  0.23686784  0.63786518  1
  O  O224  1  0.48725079  0.74371024  0.12180078  1
  O  O225  1  0.48353652  0.74510097  0.61706040  1
  O  O226  1  0.99116530  0.23278670  0.13529217  1
  O  O227  1  0.99507549  0.24039159  0.62762431  1
  O  O228  1  0.97917812  0.75938637  0.14309937  1
  O  O229  1  0.99487232  0.74332725  0.62552936  1
  O  O230  1  0.00069011  0.25773780  0.36137015  1
  O  O231  1  0.00739785  0.24450132  0.86564533  1
  O  O232  1  -0.00778681  0.74591546  0.36366766  1
  O  O233  1  0.01078803  0.75733104  0.86483970  1
  O  O234  1  0.50548099  0.24881621  0.38494394  1
  O  O235  1  0.50621315  0.25527499  0.86684671  1
  O  O236  1  0.51307336  0.75868860  0.38498131  1
  O  O237  1  0.49872794  0.77329416  0.88063665  1
  O  O238  1  0.24667261  0.15174031  0.51023619  1
  O  O239  1  0.25494651  0.14124246  0.97115870  1
  O  O240  1  0.24026317  0.61723688  0.49140013  1
  O  O241  1  0.24565821  0.64192437  1.00881122  1
  O  O242  1  0.74073005  0.12454691  0.49243845  1
  O  O243  1  0.74714166  0.13371767  0.99248807  1
  O  O244  1  0.73786737  0.63970187  0.49940200  1
  O  O245  1  0.74394547  0.62595728  1.00014480  1
  O  O246  1  0.23872992  0.36138346  0.00424757  1
  O  O247  1  0.23914393  0.35785598  0.48921473  1
  O  O248  1  0.25452175  0.86208880  0.01914944  1
  O  O249  1  0.25359717  0.87094546  0.51279433  1
  O  O250  1  0.75083458  0.36270084  0.00441295  1
  O  O251  1  0.75705946  0.36685874  0.51131601  1
  O  O252  1  0.74945993  0.87710962  0.01637867  1
  O  O253  1  0.74404731  0.86658449  0.50191564  1
  O  O254  1  0.11314401  0.48527221  0.24487940  1
  O  O255  1  0.10636622  0.49851029  0.73742211  1
  O  O256  1  0.13118459  0.98214942  0.24253152  1
  O  O257  1  0.12048118  0.98589640  0.74025883  1
  O  O258  1  0.62108055  0.50491325  0.23963583  1
  O  O259  1  0.61387131  0.48749595  0.73718423  1
  O  O260  1  0.63969053  0.99386411  0.24586452  1
  O  O261  1  0.62346544  1.00549282  0.73441410  1
  O  O262  1  0.35629083  0.00343949  0.26687288  1
  O  O263  1  0.37679100  0.00839858  0.74838404  1
  O  O264  1  0.38276758  0.51274919  0.26482044  1
  O  O265  1  0.38439399  0.51238411  0.77271862  1
  O  O266  1  0.86605711  0.00533809  0.25624805  1
  O  O267  1  0.87161334  0.00215251  0.75207242  1
  O  O268  1  0.87873305  0.51226701  0.25405573  1
  O  O269  1  0.86874436  0.50130851  0.74281106  1
  O  O270  1  0.11669370  0.36559174  0.35757261  1
  O  O271  1  0.10404486  0.35869495  0.87332317  1
  O  O272  1  0.13530784  0.86150517  0.35536890  1
  O  O273  1  0.12529093  0.86802148  0.86791943  1
  O  O274  1  0.62923185  0.37520395  0.37636414  1
  O  O275  1  0.61946371  0.36782506  0.86755688  1
  O  O276  1  0.62247297  0.87145595  0.36788402  1
  O  O277  1  0.60278946  0.87676185  0.87999127  1
  O  O278  1  0.36287486  0.10895467  0.10962728  1
  O  O279  1  0.38121025  0.12183571  0.63723279  1
  O  O280  1  0.38388071  0.63004810  0.13777447  1
  O  O281  1  0.37180109  0.63147564  0.61543756  1
  O  O282  1  0.87837744  0.12464357  0.13302222  1
  O  O283  1  0.88225236  0.12356386  0.62663092  1
  O  O284  1  0.86784234  0.63687983  0.13679229  1
  O  O285  1  0.88781506  0.63540705  0.62417714  1
  O  O286  1  0.24299542  0.24465255  0.10197263  1
  O  O287  1  0.23846398  0.27115617  0.62364390  1
  O  O288  1  0.26233926  0.75682486  0.12516244  1
  O  O289  1  0.25780724  0.75395244  0.62482681  1
  O  O290  1  0.75312300  0.25322446  0.11256958  1
  O  O291  1  0.75648809  0.25564116  0.61847036  1
  O  O292  1  0.76177623  0.76349104  0.13543642  1
  O  O293  1  0.76828419  0.75229930  0.61630679  1
  O  O294  1  0.23504247  0.25645327  0.36391801  1
  O  O295  1  0.23359568  0.26026505  0.87625256  1
  O  O296  1  0.25267518  0.72838264  0.38211869  1
  O  O297  1  0.24999712  0.75808423  0.89150425  1
  O  O298  1  0.75676769  0.23435970  0.38158208  1
  O  O299  1  0.73855557  0.24846623  0.87842149  1
  O  O300  1  0.74226372  0.75684517  0.38958052  1
  O  O301  1  0.76854366  0.74371433  0.89152915  1
  O  O302  1  -0.00712323  0.12617898  0.01379150  1
  O  O303  1  0.00557163  0.12824301  0.51109196  1
  O  O304  1  0.02639664  0.64153137  -0.00075091  1
  O  O305  1  0.00320886  0.61552215  0.50329914  1
  O  O306  1  0.51078961  0.11926348  -0.00680013  1
  O  O307  1  0.50029478  0.12315092  0.50835912  1
  O  O308  1  0.51802625  0.62333285  0.01489069  1
  O  O309  1  0.51276951  0.61518522  0.49968715  1
  O  O310  1  0.50593335  0.39633580  0.50920001  1
  O  O311  1  0.51049965  0.39051734  0.99307170  1
  O  O312  1  0.48601570  0.88594446  0.50092003  1
  O  O313  1  0.49901584  0.87848318  0.98300381  1
  O  O314  1  0.99615497  0.37618044  0.48610163  1
  O  O315  1  0.98489255  0.36667492  0.98004219  1
  O  O316  1  1.05021850  0.88410278  0.48362819  1
  O  O317  1  1.00601560  0.87174897  0.98557842  1
  O  O318  1  0.49125245  0.50002917  0.38542797  1
  O  O319  1  0.49467279  0.49548442  0.88548968  1
  O  O320  1  0.49746306  1.00150984  0.39192296  1
  O  O321  1  0.50005145  0.98176280  0.87555328  1
  O  O322  1  0.99055271  0.48286968  0.37590952  1
  O  O323  1  0.98803741  0.47810664  0.86226609  1
  O  O324  1  0.98379873  1.00581739  0.36974513  1
  O  O325  1  0.99273505  0.98939696  0.86352729  1
  O  O326  1  -0.00377860  0.00935133  0.12809920  1
  O  O327  1  0.00961637  0.00395808  0.62051624  1
  O  O328  1  -0.00680997  0.49665364  0.11260062  1
  O  O329  1  0.00085136  0.50471930  0.61250917  1
  O  O330  1  0.49897186  0.01752849  0.12564695  1
  O  O331  1  0.50670659  0.01307220  0.61999058  1
  O  O332  1  0.50885744  0.51030309  0.12021516  1
  O  O333  1  0.51017972  0.51097560  0.61513610  1
  O  O334  1  0.23115007  0.37323108  0.22324234  1
  O  O335  1  0.24568373  0.41672952  0.78152796  1
  O  O336  1  0.24343759  0.87582611  0.24785915  1
  O  O337  1  0.24351954  0.86620643  0.74390443  1
  O  O338  1  0.75816930  0.36466927  0.23229888  1
  O  O339  1  0.73957972  0.36348478  0.74088389  1
  O  O340  1  0.74174590  0.88109465  0.24320516  1
  O  O341  1  0.73598747  0.84770251  0.75624007  1
  O  O342  1  0.24768526  0.10216415  0.24848712  1
  O  O343  1  0.26162477  0.12844293  0.75129831  1
  O  O344  1  0.25923910  0.62364139  0.26450330  1
  O  O345  1  0.25025376  0.58501567  0.73767100  1
  O  O346  1  0.75613831  0.11901403  0.25340428  1
  O  O347  1  0.76267394  0.13012376  0.74651159  1
  O  O348  1  0.76349336  0.62768943  0.25280535  1
  O  O349  1  0.74120307  0.64232646  0.76940103  1
  O  O350  1  0.36498661  0.13682469  0.37436193  1
  O  O351  1  0.36295106  0.13343955  0.85384403  1
  O  O352  1  0.37281434  0.62101750  0.36948874  1
  O  O353  1  0.39002229  0.63452983  0.87727768  1
  O  O354  1  0.86617239  0.11782951  0.36392766  1
  O  O355  1  0.87533830  0.11378279  0.86190817  1
  O  O356  1  0.87764623  0.61271459  0.36409947  1
  O  O357  1  0.86416286  0.61856780  0.88769635  1
  O  O358  1  0.12268884  0.37982946  0.12481060  1
  O  O359  1  0.10322565  0.38743419  0.62334387  1
  O  O360  1  0.14185393  0.86811040  0.13748289  1
  O  O361  1  0.13595360  0.87912697  0.63362358  1
  O  O362  1  0.63295988  0.38236836  0.12358069  1
  O  O363  1  0.63694889  0.38450651  0.63283059  1
  O  O364  1  0.63409111  0.87917552  0.13303471  1
  O  O365  1  0.61144640  0.89228033  0.61979117  1
  O  O366  1  0.11670921  0.25307309  0.25246922  1
  O  O367  1  0.10925553  0.24810918  0.74975010  1
  O  O368  1  0.11001527  0.75391947  0.24512079  1
  O  O369  1  0.12583416  0.75603511  0.75469345  1
  O  O370  1  0.60578353  0.24177201  0.24071598  1
  O  O371  1  0.61477965  0.25470734  0.75616968  1
  O  O372  1  0.63090870  0.76220039  0.26199862  1
  O  O373  1  0.58854475  0.72939384  0.73874505  1
  O  O374  1  0.34213153  0.22419027  0.24273698  1
  O  O375  1  0.38247245  0.26770955  0.73759639  1
  O  O376  1  0.37093508  0.73951153  0.24208259  1
  O  O377  1  0.37327487  0.74462154  0.73190424  1
  O  O378  1  0.88151974  0.23808124  0.24231715  1
  O  O379  1  0.88272615  0.23631761  0.74136445  1
  O  O380  1  0.87996884  0.73868884  0.25068507  1
  O  O381  1  0.88996427  0.75618546  0.73292623  1
  O  O382  1  0.38740210  0.50290811  0.48777854  1
  O  O383  1  0.39925345  0.52173845  0.99580557  1
  O  O384  1  0.37858993  0.98947668  0.51152735  1
  O  O385  1  0.36617017  1.00138543  0.98328102  1
  O  O386  1  0.88877309  0.48969790  0.48575468  1
  O  O387  1  0.86327986  0.48268679  0.99409767  1
  O  O388  1  0.87610305  1.00176878  0.48438097  1
  O  O389  1  0.86777523  0.99635862  0.98182664  1
  O  O390  1  0.17020965  0.00826531  0.02116862  1
  O  O391  1  0.13758754  0.01274745  0.51956548  1
  O  O392  1  0.12066162  0.49612771  -0.04384067  1
  O  O393  1  0.11017716  0.50210238  0.49667483  1
  O  O394  1  0.63534702  0.01514154  -0.00512063  1
  O  O395  1  0.61491296  0.01098023  0.50760498  1
  O  O396  1  0.62045428  0.51187088  0.01381745  1
  O  O397  1  0.61918776  0.50903586  0.50388326  1
  O  O398  1  0.34899794  0.39134346  0.12162632  1
  O  O399  1  0.35452324  0.42980526  0.65203653  1
  O  O400  1  0.37346666  0.86153766  0.14101933  1
  O  O401  1  0.36801188  0.86514105  0.62042184  1
  O  O402  1  0.86540973  0.36494485  0.11273059  1
  O  O403  1  0.87015252  0.36644688  0.61761291  1
  O  O404  1  0.86482593  0.86700273  0.12605377  1
  O  O405  1  0.89046212  0.86604015  0.61868180  1
  O  O406  1  0.11759589  0.14110246  0.36656265  1
  O  O407  1  0.13854872  0.13735836  0.85651939  1
  O  O408  1  0.13918235  0.61438259  0.38102390  1
  O  O409  1  0.13184029  0.64162328  0.86472084  1
  O  O410  1  0.63232680  0.12051435  0.38282182  1
  O  O411  1  0.62469057  0.13203942  0.87825357  1
  O  O412  1  0.62219497  0.63900340  0.38109686  1
  O  O413  1  0.63726067  0.63646818  0.89738818  1
