# generated using pymatgen
data_V79Zn79O256
_symmetry_space_group_name_H-M   'P 1'
_cell_length_a   16.88860679
_cell_length_b   16.87504584
_cell_length_c   16.88010742
_cell_angle_alpha   90.12042307
_cell_angle_beta   90.19484191
_cell_angle_gamma   89.98370463
_symmetry_Int_Tables_number   1
_chemical_formula_structural   V79Zn79O256
_chemical_formula_sum   'V79 Zn79 O256'
_cell_volume   4810.72470012
_cell_formula_units_Z   1
loop_
 _symmetry_equiv_pos_site_id
 _symmetry_equiv_pos_as_xyz
  1  'x, y, z'
loop_
 _atom_site_type_symbol
 _atom_site_label
 _atom_site_symmetry_multiplicity
 _atom_site_fract_x
 _atom_site_fract_y
 _atom_site_fract_z
 _atom_site_occupancy
  V  V0  1  -0.01184162  0.49916765  -0.00541257  1
  V  V1  1  0.63370739  -0.00074401  0.63375232  1
  V  V2  1  0.00452066  0.00322650  0.50542389  1
  V  V3  1  0.50059580  0.12397991  0.62812444  1
  V  V4  1  0.74578687  0.87049756  0.12529922  1
  V  V5  1  0.12344405  0.75190195  0.37010903  1
  V  V6  1  0.38361171  -0.00518350  0.87994028  1
  V  V7  1  0.48374208  0.37009746  0.88283605  1
  V  V8  1  0.24957064  0.00149977  0.24863054  1
  V  V9  1  0.62821382  0.13096152  0.49575494  1
  V  V10  1  0.12065152  0.50472262  0.12436441  1
  V  V11  1  0.26752915  0.61643577  0.87070621  1
  V  V12  1  0.75000520  0.12821811  0.36413807  1
  V  V13  1  0.61723485  0.24399741  0.87105240  1
  V  V14  1  0.37338947  0.24504848  0.62465074  1
  V  V15  1  0.87938194  0.88752892  0.00890043  1
  V  V16  1  0.37510662  0.25483479  0.12119335  1
  V  V17  1  0.75449706  0.25143803  0.50398944  1
  V  V18  1  0.13072295  0.50405196  0.63091769  1
  V  V19  1  0.50160718  -0.00748307  0.49918463  1
  V  V20  1  0.87955311  0.49323277  0.37015488  1
  V  V21  1  0.88149504  0.37206390  0.51203310  1
  V  V22  1  0.51230057  0.25114581  0.24997359  1
  V  V23  1  0.62749999  -0.00476984  0.12413984  1
  V  V24  1  0.61646822  0.49425967  0.12945970  1
  V  V25  1  0.38940623  0.74878810  0.13072516  1
  V  V26  1  0.12953601  0.12328880  0.48576114  1
  V  V27  1  0.12103214  0.62405003  -0.01008184  1
  V  V28  1  0.24509140  0.37509499  0.12298061  1
  V  V29  1  0.38221091  0.75259438  0.63176473  1
  V  V30  1  0.38897071  0.63028239  0.24845540  1
  V  V31  1  0.24965053  0.25301866  -0.00216572  1
  V  V32  1  0.62654706  0.63268297  0.00393358  1
  V  V33  1  0.24539958  0.49546699  0.24983558  1
  V  V34  1  0.11270952  0.88964670  0.23842534  1
  V  V35  1  0.51288679  0.36961687  0.37051071  1
  V  V36  1  0.62432684  0.11859779  -0.00124705  1
  V  V37  1  0.75848807  0.62372244  0.36653743  1
  V  V38  1  0.87617842  0.02664430  0.84380105  1
  V  V39  1  0.62847881  0.88067567  0.25086663  1
  V  V40  1  0.24508833  0.88248084  0.62578736  1
  V  V41  1  0.13438818  0.26948989  0.37164041  1
  V  V42  1  0.61645146  0.38478825  0.75053654  1
  V  V43  1  0.24349300  0.12256334  0.87343173  1
  V  V44  1  0.24956313  0.74874737  -0.00497803  1
  V  V45  1  0.00151572  0.63063632  0.63488941  1
  V  V46  1  0.37131449  0.12543036  0.25359792  1
  V  V47  1  -0.01399794  0.37555439  0.87131019  1
  V  V48  1  0.38544551  0.87793734  0.00104742  1
  V  V49  1  0.87403476  0.87689778  0.49626849  1
  V  V50  1  0.00181941  0.49973889  0.49811230  1
  V  V51  1  0.75552832  0.88228472  0.63939133  1
  V  V52  1  0.62317368  0.75005139  0.36973659  1
  V  V53  1  -0.00646592  0.73436882  0.24304598  1
  V  V54  1  -0.00060970  0.14927032  0.63215516  1
  V  V55  1  0.00009255  0.25799622  0.26272232  1
  V  V56  1  0.37443413  0.37324404  0.49899052  1
  V  V57  1  0.37478544  0.12291581  0.74945280  1
  V  V58  1  0.75220650  0.24992172  -0.00375259  1
  V  V59  1  0.49812869  0.11654277  0.12085670  1
  V  V60  1  0.88087548  0.74928648  0.63173707  1
  V  V61  1  0.86616267  0.73317568  0.12874739  1
  V  V62  1  0.62354413  0.61702028  0.50619922  1
  V  V63  1  0.75210599  0.74906705  0.49810294  1
  V  V64  1  0.25135777  0.62871186  0.37236891  1
  V  V65  1  0.86928734  0.00777121  0.36370024  1
  V  V66  1  0.25751447  0.76003182  0.49627605  1
  V  V67  1  -0.00239352  0.87661490  0.37217226  1
  V  V68  1  0.48610179  0.49640397  0.00418790  1
  V  V69  1  0.49925280  0.87261419  0.37141633  1
  V  V70  1  0.11682423  0.12071224  0.01305170  1
  V  V71  1  0.12576892  0.37001094  0.75400500  1
  V  V72  1  0.24237130  0.87565084  0.12324233  1
  V  V73  1  0.75278291  0.49303065  0.24886439  1
  V  V74  1  0.37622785  -0.00082202  0.37642892  1
  V  V75  1  0.38096198  0.50081823  0.37597707  1
  V  V76  1  0.11702432  0.86429482  0.76078573  1
  V  V77  1  0.88115745  0.23996099  0.12969256  1
  V  V78  1  0.75146406  0.37134158  0.12555342  1
  Zn  Zn79  1  0.50908703  0.49856597  0.51758922  1
  Zn  Zn80  1  0.23874293  0.00113380  0.74583068  1
  Zn  Zn81  1  -0.00202214  0.87181706  0.87619043  1
  Zn  Zn82  1  0.73886026  0.38321976  0.62522115  1
  Zn  Zn83  1  0.12594577  0.62847955  0.50231633  1
  Zn  Zn84  1  0.75657136  0.50076267  0.75419095  1
  Zn  Zn85  1  0.86820678  0.62619330  0.76774679  1
  Zn  Zn86  1  0.44818623  0.58858204  0.68845928  1
  Zn  Zn87  1  0.11502111  0.24120957  0.86769067  1
  Zn  Zn88  1  0.27423500  0.50139140  0.75274650  1
  Zn  Zn89  1  0.06105058  -0.03150300  0.07673024  1
  Zn  Zn90  1  0.25116160  0.37428332  0.62670983  1
  Zn  Zn91  1  0.51636649  0.76435867  0.77347538  1
  Zn  Zn92  1  0.74550795  0.61271862  0.88258792  1
  Zn  Zn93  1  0.25376715  0.24173565  0.49181052  1
  Zn  Zn94  1  0.18295698  0.19029042  0.19286701  1
  Zn  Zn95  1  0.18267186  0.18092855  0.67841488  1
  Zn  Zn96  1  0.18739627  0.68993287  0.18427097  1
  Zn  Zn97  1  0.19435661  0.69112821  0.68916192  1
  Zn  Zn98  1  0.68950951  0.18398965  0.18189057  1
  Zn  Zn99  1  0.68201434  0.19713180  0.68054171  1
  Zn  Zn100  1  0.67896549  0.68320747  0.18543071  1
  Zn  Zn101  1  0.64411506  0.65625812  0.71935025  1
  Zn  Zn102  1  0.31736970  0.31315474  0.30902715  1
  Zn  Zn103  1  0.30717157  0.30841781  0.80683697  1
  Zn  Zn104  1  0.31215888  0.81826798  0.30737594  1
  Zn  Zn105  1  0.31599191  0.81019535  0.80894560  1
  Zn  Zn106  1  0.81350950  0.31253323  0.31402562  1
  Zn  Zn107  1  0.79799671  0.31814061  0.81846734  1
  Zn  Zn108  1  0.81144176  0.81217793  0.30826130  1
  Zn  Zn109  1  0.81009874  0.79327932  0.83280119  1
  Zn  Zn110  1  0.19111099  0.44153698  0.44177186  1
  Zn  Zn111  1  0.19035217  0.43923129  0.93690476  1
  Zn  Zn112  1  0.18768974  0.93903475  0.43132436  1
  Zn  Zn113  1  0.19172533  0.93850193  0.93455319  1
  Zn  Zn114  1  0.69445763  0.43655627  0.43704832  1
  Zn  Zn115  1  0.68169981  0.43671208  0.93858749  1
  Zn  Zn116  1  0.68637898  0.94137612  0.44112520  1
  Zn  Zn117  1  0.70988302  0.94822150  0.93972599  1
  Zn  Zn118  1  0.30805232  0.06375904  0.06214112  1
  Zn  Zn119  1  0.31129754  0.05933718  0.55630210  1
  Zn  Zn120  1  0.30995177  0.56725299  0.06521755  1
  Zn  Zn121  1  0.31444894  0.56650715  0.55987096  1
  Zn  Zn122  1  0.80621126  0.06526191  0.06906820  1
  Zn  Zn123  1  0.81980966  0.06569918  0.56326487  1
  Zn  Zn124  1  0.80476794  0.55852805  0.06094290  1
  Zn  Zn125  1  0.80886623  0.55919906  0.56915816  1
  Zn  Zn126  1  0.43243828  0.43536982  0.19177199  1
  Zn  Zn127  1  0.44311875  0.42474342  0.69200700  1
  Zn  Zn128  1  0.44010532  0.93244030  0.18769436  1
  Zn  Zn129  1  0.43492318  0.93120085  0.68665253  1
  Zn  Zn130  1  0.93742380  0.43172604  0.18229784  1
  Zn  Zn131  1  0.93884724  0.44511112  0.69114470  1
  Zn  Zn132  1  0.93037544  0.93169311  0.19166850  1
  Zn  Zn133  1  0.94639905  0.94005646  0.69208012  1
  Zn  Zn134  1  0.04667507  0.06191681  0.27325201  1
  Zn  Zn135  1  0.05622469  0.04879791  0.80853109  1
  Zn  Zn136  1  0.06414574  0.55750554  0.31321691  1
  Zn  Zn137  1  0.06423012  0.56254434  0.81343186  1
  Zn  Zn138  1  0.56321022  0.06387892  0.30939671  1
  Zn  Zn139  1  0.56220152  0.05614557  0.81197671  1
  Zn  Zn140  1  0.56969401  0.55989667  0.31619826  1
  Zn  Zn141  1  0.54776535  0.56217970  0.82962626  1
  Zn  Zn142  1  0.44223439  0.18598094  0.43696170  1
  Zn  Zn143  1  0.43558163  0.18287995  0.93860734  1
  Zn  Zn144  1  0.44180173  0.68979682  0.44344465  1
  Zn  Zn145  1  0.44139089  0.68293792  0.94476410  1
  Zn  Zn146  1  0.94173618  0.18870458  0.43694955  1
  Zn  Zn147  1  0.93918610  0.18974123  0.93771800  1
  Zn  Zn148  1  0.93961611  0.68271074  0.43963473  1
  Zn  Zn149  1  0.93042143  0.69745929  0.93814011  1
  Zn  Zn150  1  0.06239450  0.31555311  0.05558373  1
  Zn  Zn151  1  0.06755634  0.31277665  0.56193805  1
  Zn  Zn152  1  0.04186883  0.78969308  0.03639105  1
  Zn  Zn153  1  0.06736532  0.81551669  0.56197720  1
  Zn  Zn154  1  0.56449960  0.31169304  0.06290514  1
  Zn  Zn155  1  0.55877184  0.31004577  0.56002263  1
  Zn  Zn156  1  0.56528082  0.81186820  -0.04721282  1
  Zn  Zn157  1  0.58618187  0.78987714  0.60121045  1
  O  O158  1  0.12960549  0.12727900  0.11330236  1
  O  O159  1  0.11223345  0.13648962  0.59999155  1
  O  O160  1  0.13382456  0.61165086  0.11493706  1
  O  O161  1  0.12005570  0.62202654  0.62480426  1
  O  O162  1  0.61755946  0.11503805  0.12004639  1
  O  O163  1  0.61973760  0.12129645  0.61748313  1
  O  O164  1  0.62610240  0.60460100  0.12072074  1
  O  O165  1  0.63324322  0.63204761  0.60333214  1
  O  O166  1  0.37973805  0.38320336  0.38076125  1
  O  O167  1  0.38512332  0.35921231  0.87608630  1
  O  O168  1  0.38895482  0.88418536  0.36500612  1
  O  O169  1  0.36557211  0.88920598  0.88289059  1
  O  O170  1  0.87165926  0.38817837  0.38530384  1
  O  O171  1  0.88693329  0.37157840  0.86283505  1
  O  O172  1  0.87870360  0.88274042  0.37820477  1
  O  O173  1  0.87335953  0.86274048  0.90682849  1
  O  O174  1  0.26915023  -0.01158060  0.36601405  1
  O  O175  1  0.25918090  0.01267240  0.87306412  1
  O  O176  1  0.25800911  0.50828008  0.36942717  1
  O  O177  1  0.25231270  0.51211308  0.87519814  1
  O  O178  1  0.76225474  0.01086401  0.38321836  1
  O  O179  1  0.78171742  -0.00138257  0.87319677  1
  O  O180  1  0.75820177  0.50452134  0.36671873  1
  O  O181  1  0.74898255  0.49557187  0.87293936  1
  O  O182  1  0.24533965  0.49352576  0.13110967  1
  O  O183  1  0.24054188  0.50281942  0.62329221  1
  O  O184  1  0.25776348  0.98840347  0.13593674  1
  O  O185  1  0.25400441  0.98616884  0.62260466  1
  O  O186  1  0.74384681  0.48988044  0.13153187  1
  O  O187  1  0.74712519  0.49560779  0.63582666  1
  O  O188  1  0.73539536  0.99113793  0.12662317  1
  O  O189  1  0.75110489  0.99015768  0.61808617  1
  O  O190  1  0.00641367  0.35721775  0.23346763  1
  O  O191  1  0.01402493  0.38429260  0.76132050  1
  O  O192  1  -0.00295536  0.85707323  0.26338752  1
  O  O193  1  0.01101800  0.86750149  0.75180901  1
  O  O194  1  0.49409929  0.36640459  0.26244051  1
  O  O195  1  0.50640406  0.36771413  0.77255441  1
  O  O196  1  0.51299556  0.87713114  0.26125191  1
  O  O197  1  0.50721074  0.87823615  0.75149106  1
  O  O198  1  0.49272616  0.13135262  0.24132350  1
  O  O199  1  0.48970712  0.11648615  0.73724390  1
  O  O200  1  0.48801476  0.61984839  0.25817063  1
  O  O201  1  0.52749942  0.64144739  0.75186702  1
  O  O202  1  1.00546493  0.15713125  0.23642696  1
  O  O203  1  1.01944858  0.12576594  0.72942742  1
  O  O204  1  1.00311680  0.63585920  0.25505302  1
  O  O205  1  0.99915715  0.62529880  0.73774799  1
  O  O206  1  0.36293099  0.23806104  0.01248246  1
  O  O207  1  0.37427252  0.25462269  0.50252934  1
  O  O208  1  0.36807258  0.75547630  0.01471617  1
  O  O209  1  0.35975785  0.75319773  0.49152663  1
  O  O210  1  0.85635843  0.24283714  0.00578519  1
  O  O211  1  0.87257967  0.26606101  0.49322616  1
  O  O212  1  0.88055565  0.76067789  0.02909328  1
  O  O213  1  0.87090034  0.75987588  0.49792924  1
  O  O214  1  0.12875777  0.24901907  0.48666791  1
  O  O215  1  0.13542762  0.24044247  0.99677425  1
  O  O216  1  0.13196754  0.75086458  0.48355874  1
  O  O217  1  0.13907952  0.72946508  1.01402950  1
  O  O218  1  0.63190692  0.23857463  0.49971332  1
  O  O219  1  0.63003571  0.23910193  0.99658454  1
  O  O220  1  0.63847746  0.74489234  0.49151655  1
  O  O221  1  0.61316273  0.73096169  1.02024534  1
  O  O222  1  0.49211099  0.24395642  0.13026478  1
  O  O223  1  0.48796260  0.23269585  0.61525199  1
  O  O224  1  0.48479039  0.75293645  0.12755721  1
  O  O225  1  0.47666479  0.76329313  0.59880909  1
  O  O226  1  0.97926796  0.25718293  0.10915864  1
  O  O227  1  0.99763336  0.25063770  0.62642816  1
  O  O228  1  0.99046743  0.74760520  0.13904521  1
  O  O229  1  0.98886670  0.74596736  0.61304437  1
  O  O230  1  0.00461244  0.25829925  0.36741688  1
  O  O231  1  0.00395247  0.27108771  0.88353636  1
  O  O232  1  0.00570995  0.75374876  0.37055034  1
  O  O233  1  0.01407089  0.76913739  0.92424941  1
  O  O234  1  0.49683069  0.26122720  0.36683719  1
  O  O235  1  0.50932414  0.25695657  0.88919958  1
  O  O236  1  0.51251988  0.76153551  0.38450811  1
  O  O237  1  0.49220446  0.76036793  0.88395689  1
  O  O238  1  0.23533721  0.12234031  0.49786868  1
  O  O239  1  0.24186782  0.13234654  0.99282188  1
  O  O240  1  0.24874430  0.63502870  0.48433856  1
  O  O241  1  0.24505367  0.62839937  0.99116531  1
  O  O242  1  0.74601656  0.13285932  0.49753415  1
  O  O243  1  0.73468504  0.13671495  1.00875264  1
  O  O244  1  0.74667618  0.63189894  0.48975881  1
  O  O245  1  0.73326333  0.62295977  1.00230808  1
  O  O246  1  0.24751772  0.36299413  0.00613777  1
  O  O247  1  0.26581824  0.37545882  0.50359871  1
  O  O248  1  0.25681387  0.86820500  0.00646192  1
  O  O249  1  0.23840810  0.86963150  0.50953690  1
  O  O250  1  0.73895397  0.35690755  0.00914214  1
  O  O251  1  0.76234405  0.36957694  0.49950556  1
  O  O252  1  0.75963759  0.87333907  0.01921361  1
  O  O253  1  0.76215218  0.86827780  0.49398036  1
  O  O254  1  0.13695269  0.50635469  0.24157387  1
  O  O255  1  0.12771634  0.49467258  0.74053927  1
  O  O256  1  0.14714913  1.00216145  0.27302841  1
  O  O257  1  0.12645344  0.97872928  0.74970930  1
  O  O258  1  0.63415437  0.50104623  0.23878240  1
  O  O259  1  0.61372971  0.48411037  0.76100473  1
  O  O260  1  0.62206076  0.99172685  0.24056290  1
  O  O261  1  0.62990552  1.01037261  0.73366856  1
  O  O262  1  0.37141616  0.00620181  0.25501336  1
  O  O263  1  0.36892302  0.00873218  0.75967163  1
  O  O264  1  0.36617587  0.50882840  0.25664037  1
  O  O265  1  0.38555974  0.50721707  0.74481811  1
  O  O266  1  0.87080648  -0.00098398  0.26487525  1
  O  O267  1  0.87578574  0.01148082  0.74228361  1
  O  O268  1  0.86804064  0.49337188  0.25678560  1
  O  O269  1  0.87403827  0.51436370  0.74869108  1
  O  O270  1  0.12582835  0.36963394  0.38091797  1
  O  O271  1  0.12592741  0.37634567  0.86138472  1
  O  O272  1  0.11485201  0.86985017  0.36415250  1
  O  O273  1  0.12639267  0.87511830  0.86632878  1
  O  O274  1  0.61125667  0.37834365  0.37896702  1
  O  O275  1  0.61625760  0.35912119  0.87074502  1
  O  O276  1  0.62289156  0.87118774  0.36977368  1
  O  O277  1  0.65335213  0.85649877  0.88656301  1
  O  O278  1  0.38151668  0.13021178  0.13167075  1
  O  O279  1  0.38020064  0.12441598  0.62868492  1
  O  O280  1  0.36861526  0.63935011  0.13468958  1
  O  O281  1  0.37169426  0.64520043  0.61827565  1
  O  O282  1  0.86835689  0.14005493  0.12787468  1
  O  O283  1  0.90144854  0.12342328  0.61297212  1
  O  O284  1  0.86524849  0.63416985  0.12604909  1
  O  O285  1  0.88106568  0.64149879  0.61893090  1
  O  O286  1  0.25410433  0.25676159  0.12084083  1
  O  O287  1  0.26352575  0.24802297  0.61772329  1
  O  O288  1  0.25427306  0.76048898  0.11846195  1
  O  O289  1  0.25883320  0.75697230  0.61328782  1
  O  O290  1  0.75520573  0.25366798  0.11985796  1
  O  O291  1  0.74534041  0.26043015  0.60801309  1
  O  O292  1  0.75911158  0.75497961  0.13945128  1
  O  O293  1  0.76657222  0.76617960  0.61021077  1
  O  O294  1  0.23985793  0.25631852  0.37199920  1
  O  O295  1  0.24984852  0.23891884  0.88206243  1
  O  O296  1  0.24226324  0.74954607  0.37376249  1
  O  O297  1  0.26087495  0.74166443  0.88973861  1
  O  O298  1  0.75831000  0.23542814  0.38434743  1
  O  O299  1  0.73406896  0.25113557  0.88992503  1
  O  O300  1  0.74755245  0.74345218  0.37948360  1
  O  O301  1  0.69675821  0.78992911  0.86708037  1
  O  O302  1  0.01813162  0.13025413  -0.00274099  1
  O  O303  1  0.00867974  0.11930534  0.50155359  1
  O  O304  1  0.01350761  0.61352708  -0.00782894  1
  O  O305  1  0.00337024  0.61638133  0.51053942  1
  O  O306  1  0.50787973  0.12900282  0.01329718  1
  O  O307  1  0.51008941  0.11694226  0.50426320  1
  O  O308  1  0.50639922  0.60232018  0.00272125  1
  O  O309  1  0.51877695  0.62044476  0.48895024  1
  O  O310  1  0.49195701  0.37484195  0.48698302  1
  O  O311  1  0.50115111  0.37984849  0.99377707  1
  O  O312  1  0.51142332  0.89063277  0.48720264  1
  O  O313  1  0.48460334  0.87789127  1.00744414  1
  O  O314  1  0.99070146  0.38655700  0.50570000  1
  O  O315  1  1.00551860  0.38999282  0.98449246  1
  O  O316  1  0.99602854  0.87901088  0.48722641  1
  O  O317  1  0.98609287  0.89161400  1.02975485  1
  O  O318  1  0.49170852  0.48729277  0.37051252  1
  O  O319  1  0.49615887  0.48195989  0.89354007  1
  O  O320  1  0.49678874  0.99460288  0.37836475  1
  O  O321  1  0.48317842  1.00360555  0.87523128  1
  O  O322  1  0.99337882  0.50820453  0.38687819  1
  O  O323  1  1.00253174  0.49320798  0.88478476  1
  O  O324  1  0.98773536  0.99238386  0.37438413  1
  O  O325  1  0.97537772  0.98878249  0.87031351  1
  O  O326  1  0.03297243  -0.02096025  0.18556674  1
  O  O327  1  0.00500775  -0.00969756  0.60483444  1
  O  O328  1  0.01081461  0.49017108  0.10918602  1
  O  O329  1  0.00975259  0.51042577  0.61785956  1
  O  O330  1  0.50719657  0.00887533  0.12930835  1
  O  O331  1  0.50772899  0.00618380  0.61638539  1
  O  O332  1  0.50993831  0.48463151  0.12171947  1
  O  O333  1  0.49538766  0.50149941  0.62689018  1
  O  O334  1  0.25657260  0.38774656  0.24060007  1
  O  O335  1  0.24127832  0.38314047  0.74735970  1
  O  O336  1  0.23833883  0.88160588  0.24100872  1
  O  O337  1  0.24553943  0.87418409  0.73848270  1
  O  O338  1  0.74951213  0.38399536  0.24563843  1
  O  O339  1  0.72735624  0.37301440  0.74978248  1
  O  O340  1  0.73780803  0.87368728  0.24471904  1
  O  O341  1  0.76405134  0.87253789  0.73575854  1
  O  O342  1  0.26336466  0.11765409  0.24128828  1
  O  O343  1  0.25420976  0.12367204  0.75495688  1
  O  O344  1  0.25737707  0.61996473  0.25866744  1
  O  O345  1  0.25003930  0.62691225  0.76770246  1
  O  O346  1  0.74586595  0.12842692  0.26521471  1
  O  O347  1  0.78570704  0.16500542  0.73913569  1
  O  O348  1  0.74554678  0.61320223  0.25982332  1
  O  O349  1  0.74054392  0.62130853  0.76300594  1
  O  O350  1  0.38466132  0.11575099  0.36223632  1
  O  O351  1  0.36818768  0.11820740  0.86870956  1
  O  O352  1  0.37001697  0.62030327  0.37018194  1
  O  O353  1  0.36660066  0.62182270  0.88238659  1
  O  O354  1  0.86689912  0.11498498  0.37987280  1
  O  O355  1  0.88312622  0.12603627  0.86476931  1
  O  O356  1  0.86593584  0.61233375  0.38235187  1
  O  O357  1  0.84387358  0.68144615  0.86879320  1
  O  O358  1  0.13797951  0.38465823  0.11743918  1
  O  O359  1  0.12612577  0.38525310  0.63516238  1
  O  O360  1  0.13435746  0.87237981  0.12162763  1
  O  O361  1  0.13828474  0.86852732  0.63320254  1
  O  O362  1  0.63533681  0.38325767  0.12513896  1
  O  O363  1  0.61194134  0.36204783  0.64677420  1
  O  O364  1  0.62979224  0.88078336  0.13419261  1
  O  O365  1  0.64940491  0.88689565  0.61292540  1
  O  O366  1  0.12076128  0.25437189  0.26457910  1
  O  O367  1  0.13302121  0.26660058  0.74736252  1
  O  O368  1  0.11356182  0.75719232  0.25339968  1
  O  O369  1  0.13284266  0.76371823  0.75032028  1
  O  O370  1  0.61127296  0.24410680  0.24300414  1
  O  O371  1  0.62411756  0.24311612  0.76846611  1
  O  O372  1  0.62897073  0.75625821  0.26402416  1
  O  O373  1  0.61321917  0.76513922  0.70988316  1
  O  O374  1  0.38096963  0.24172505  0.24077936  1
  O  O375  1  0.37014662  0.23408221  0.73900668  1
  O  O376  1  0.37079980  0.74506253  0.24065333  1
  O  O377  1  0.38638316  0.75388733  0.73504609  1
  O  O378  1  0.88501727  0.25675195  0.23988592  1
  O  O379  1  0.83468793  0.22313083  0.74461298  1
  O  O380  1  0.88520574  0.74809644  0.24569024  1
  O  O381  1  0.87496418  0.75584233  0.73104981  1
  O  O382  1  0.37759101  0.49437114  0.48877905  1
  O  O383  1  0.38728788  0.49711370  1.01759249  1
  O  O384  1  0.38858835  1.00851007  0.48723631  1
  O  O385  1  0.36844958  0.99533858  0.98882090  1
  O  O386  1  0.88211882  0.49163489  0.49552262  1
  O  O387  1  0.88982785  0.50760923  1.00305434  1
  O  O388  1  0.88451907  0.99048885  0.49015962  1
  O  O389  1  0.86919599  0.98853265  1.01307506  1
  O  O390  1  0.13051041  0.01345252  0.00024406  1
  O  O391  1  0.11631839  0.01382028  0.48106200  1
  O  O392  1  0.12461032  0.50995204  0.00563451  1
  O  O393  1  0.11862809  0.50238615  0.50900522  1
  O  O394  1  0.63175770  0.00760329  0.00605201  1
  O  O395  1  0.62139929  0.01182920  0.50849032  1
  O  O396  1  0.61707797  0.49922300  0.01668059  1
  O  O397  1  0.62949181  0.51220359  0.49358522  1
  O  O398  1  0.36453345  0.36254848  0.12910228  1
  O  O399  1  0.37976990  0.35997912  0.61607722  1
  O  O400  1  0.36688344  0.86651698  0.12301437  1
  O  O401  1  0.35713190  0.86609156  0.62474630  1
  O  O402  1  0.85770819  0.36544245  0.12349081  1
  O  O403  1  0.87534217  0.37906345  0.61309290  1
  O  O404  1  0.86132431  0.86995318  0.12858816  1
  O  O405  1  0.87328522  0.87080073  0.61352263  1
  O  O406  1  0.11739185  0.14371753  0.38556941  1
  O  O407  1  0.13281223  0.12306823  0.87720585  1
  O  O408  1  0.13547406  0.63504454  0.37140317  1
  O  O409  1  0.13518534  0.62204592  0.88760315  1
  O  O410  1  0.63989104  0.11486667  0.38354535  1
  O  O411  1  0.61244009  0.13319277  0.88521094  1
  O  O412  1  0.63726911  0.63286262  0.37965008  1
  O  O413  1  0.62089104  0.62076705  0.89979219  1
