# generated using pymatgen
data_V79Zn79O256
_symmetry_space_group_name_H-M   'P 1'
_cell_length_a   16.95156367
_cell_length_b   16.91011134
_cell_length_c   16.93999441
_cell_angle_alpha   90.09265675
_cell_angle_beta   90.24117033
_cell_angle_gamma   90.01585471
_symmetry_Int_Tables_number   1
_chemical_formula_structural   V79Zn79O256
_chemical_formula_sum   'V79 Zn79 O256'
_cell_volume   4855.84775890
_cell_formula_units_Z   1
loop_
 _symmetry_equiv_pos_site_id
 _symmetry_equiv_pos_as_xyz
  1  'x, y, z'
loop_
 _atom_site_type_symbol
 _atom_site_label
 _atom_site_symmetry_multiplicity
 _atom_site_fract_x
 _atom_site_fract_y
 _atom_site_fract_z
 _atom_site_occupancy
  V  V0  1  0.49343240  0.63198853  0.62847522  1
  V  V1  1  0.38417681  0.87534150  0.46904695  1
  V  V2  1  0.27672345  0.12305781  0.37109311  1
  V  V3  1  0.37353586  0.37836674  0.00087060  1
  V  V4  1  0.36518732  0.75252355  0.12043621  1
  V  V5  1  0.88641092  0.38227267  0.50116479  1
  V  V6  1  -0.00654852  0.00636275  -0.01240792  1
  V  V7  1  -0.00286790  0.85312819  0.87618140  1
  V  V8  1  0.63680396  0.00080912  0.12863470  1
  V  V9  1  0.74573041  0.61861941  0.37263474  1
  V  V10  1  -0.00100517  0.13131967  0.13794122  1
  V  V11  1  0.49575764  0.12722241  0.13075464  1
  V  V12  1  0.49624221  0.25805821  0.25221088  1
  V  V13  1  0.62348786  0.75622211  0.37579421  1
  V  V14  1  0.49635994  0.00046175  -0.00150196  1
  V  V15  1  0.11999642  0.00173645  0.13010898  1
  V  V16  1  0.87643003  0.49913363  0.37273899  1
  V  V17  1  0.88291675  0.24719754  0.63312520  1
  V  V18  1  0.38029964  0.10632320  0.75415273  1
  V  V19  1  0.00450025  0.50808154  -0.00620932  1
  V  V20  1  0.24879371  0.49342908  0.23521948  1
  V  V21  1  0.49743202  0.49222356  0.49482926  1
  V  V22  1  0.86851590  0.59946819  0.74745432  1
  V  V23  1  0.26082130  0.00065759  0.24980813  1
  V  V24  1  0.36643215  0.62540157  0.25616599  1
  V  V25  1  0.74974066  0.25956758  0.00472563  1
  V  V26  1  0.87131939  0.12392234  0.25032871  1
  V  V27  1  0.87877988  0.75298692  0.63928729  1
  V  V28  1  0.51756193  0.87389898  0.88257459  1
  V  V29  1  0.64016706  0.87955670  0.24642483  1
  V  V30  1  0.87616404  0.25712249  0.13028264  1
  V  V31  1  0.87809371  0.38125268  -0.00157982  1
  V  V32  1  0.74935076  0.12220571  0.37113718  1
  V  V33  1  0.75104732  0.38105490  0.63351219  1
  V  V34  1  0.37522837  0.24457959  0.63729859  1
  V  V35  1  0.75462481  0.75615686  0.50885780  1
  V  V36  1  0.25678775  0.10587142  0.87561602  1
  V  V37  1  0.50291983  0.61989785  0.12170605  1
  V  V38  1  0.13160862  0.24577661  0.86666326  1
  V  V39  1  0.24866268  0.38616147  0.62743025  1
  V  V40  1  0.87462012  0.00093893  0.37940198  1
  V  V41  1  -0.00379457  0.74349427  0.25040473  1
  V  V42  1  0.75409039  -0.00870288  0.74768936  1
  V  V43  1  0.12184605  0.87695289  0.24873152  1
  V  V44  1  0.50028180  0.75582453  0.25296101  1
  V  V45  1  0.25243150  0.75373342  0.49492001  1
  V  V46  1  0.75153746  0.25348603  0.50187137  1
  V  V47  1  0.49991493  -0.00223228  0.48622801  1
  V  V48  1  0.86741162  0.87077623  0.00262941  1
  V  V49  1  0.13051013  0.39217584  0.74746654  1
  V  V50  1  0.50917543  0.75103559  0.76746502  1
  V  V51  1  0.24745600  0.23702383  0.50395129  1
  V  V52  1  0.00069381  0.37758652  0.87384069  1
  V  V53  1  0.62485384  0.12301298  0.50501085  1
  V  V54  1  0.61913287  0.25723891  0.37655579  1
  V  V55  1  0.28645505  0.87232298  0.62974892  1
  V  V56  1  0.61619713  0.25359445  0.87227005  1
  V  V57  1  0.50169177  0.12533118  0.63132855  1
  V  V58  1  0.12954264  0.48459604  0.11836469  1
  V  V59  1  0.76558743  0.12776646  0.86794443  1
  V  V60  1  0.62594376  0.50107667  0.62974396  1
  V  V61  1  0.12487042  0.75019092  0.37502364  1
  V  V62  1  0.18944662  0.57540083  0.42495339  1
  V  V63  1  0.12592186  0.12280675  0.00012401  1
  V  V64  1  0.01016991  0.10327965  0.62445844  1
  V  V65  1  0.22772305  0.64210648  0.87796238  1
  V  V66  1  0.61587957  0.37104880  0.74953696  1
  V  V67  1  0.62538073  0.12875963  -0.00022087  1
  V  V68  1  -0.00628927  0.87734881  0.38065461  1
  V  V69  1  0.00564979  0.62420108  0.12521735  1
  V  V70  1  0.09298744  0.25260988  0.34229211  1
  V  V71  1  0.01787443  0.61995753  0.62457208  1
  V  V72  1  0.36451679  0.87448712  -0.00119796  1
  V  V73  1  0.25022632  0.25356251  0.00305676  1
  V  V74  1  0.37162473  0.25209683  0.12728767  1
  V  V75  1  0.36498864  0.50870416  0.86629928  1
  V  V76  1  0.09685011  0.87805661  0.73421342  1
  V  V77  1  0.63911155  0.38015384  0.25081707  1
  V  V78  1  0.63658566  0.49717629  0.12675358  1
  Zn  Zn79  1  0.24987138  -0.00918414  0.74448706  1
  Zn  Zn80  1  0.02444311  0.50451377  0.50020095  1
  Zn  Zn81  1  0.85477836  0.76396540  0.13004236  1
  Zn  Zn82  1  0.36220076  0.63159640  0.74603337  1
  Zn  Zn83  1  0.37902003  0.49460607  0.37122478  1
  Zn  Zn84  1  0.63971095  -0.02489323  0.62862968  1
  Zn  Zn85  1  0.37851637  0.36585885  0.49839689  1
  Zn  Zn86  1  0.70532665  0.70903568  -0.01680002  1
  Zn  Zn87  1  0.86758933  0.62143977  0.24735322  1
  Zn  Zn88  1  0.12142161  0.11321391  0.49899345  1
  Zn  Zn89  1  0.62386411  0.62674745  0.50440214  1
  Zn  Zn90  1  0.49027070  0.37465811  0.86855216  1
  Zn  Zn91  1  0.50346109  0.50047941  -0.00481183  1
  Zn  Zn92  1  -0.00176322  0.24088403  0.75387221  1
  Zn  Zn93  1  0.87243896  0.88656897  0.51036276  1
  Zn  Zn94  1  0.18858129  0.18602578  0.19238845  1
  Zn  Zn95  1  0.18951713  0.17329201  0.68603032  1
  Zn  Zn96  1  0.18174648  0.68426093  0.06213848  1
  Zn  Zn97  1  0.18917271  0.70292649  0.69532601  1
  Zn  Zn98  1  0.68634098  0.19319249  0.18738598  1
  Zn  Zn99  1  0.68928618  0.18917780  0.68951145  1
  Zn  Zn100  1  0.68518037  0.68888532  0.18565496  1
  Zn  Zn101  1  0.69013106  0.68533405  0.69750280  1
  Zn  Zn102  1  0.31372087  0.31027167  0.31203929  1
  Zn  Zn103  1  0.31157187  0.31049357  0.81264927  1
  Zn  Zn104  1  0.30415687  0.81029521  0.30295076  1
  Zn  Zn105  1  0.32672812  0.80578162  0.81705450  1
  Zn  Zn106  1  0.81680558  0.31267445  0.31594118  1
  Zn  Zn107  1  0.80910710  0.31365581  0.81572555  1
  Zn  Zn108  1  0.81178569  0.80867790  0.31679611  1
  Zn  Zn109  1  0.80594509  0.81884487  0.82315634  1
  Zn  Zn110  1  0.21734022  0.40541858  0.41617532  1
  Zn  Zn111  1  0.18998693  0.44140736  0.93243315  1
  Zn  Zn112  1  0.19505404  0.93886844  0.44109590  1
  Zn  Zn113  1  0.17851830  0.82408345  0.93635715  1
  Zn  Zn114  1  0.68540896  0.43757088  0.44386964  1
  Zn  Zn115  1  0.68376800  0.43998129  0.94048840  1
  Zn  Zn116  1  0.68675381  0.93829009  0.43649823  1
  Zn  Zn117  1  0.69211576  0.94724586  0.93684045  1
  Zn  Zn118  1  0.30964816  0.06057765  0.06547985  1
  Zn  Zn119  1  0.31910572  0.05359913  0.56081550  1
  Zn  Zn120  1  0.31553550  0.56732196  0.05600450  1
  Zn  Zn121  1  0.31567824  0.56464221  0.56201257  1
  Zn  Zn122  1  0.81494925  0.06847171  0.05828660  1
  Zn  Zn123  1  0.81495132  0.06438559  0.56765797  1
  Zn  Zn124  1  0.80425090  0.58925679  0.07632621  1
  Zn  Zn125  1  0.81100091  0.56888415  0.56297433  1
  Zn  Zn126  1  0.43718743  0.43450341  0.18794583  1
  Zn  Zn127  1  0.43470239  0.43954129  0.68450967  1
  Zn  Zn128  1  0.44489409  0.93478293  0.18322981  1
  Zn  Zn129  1  0.47233870  0.92571691  0.67716406  1
  Zn  Zn130  1  0.93881375  0.43621471  0.18588680  1
  Zn  Zn131  1  0.95226013  0.44001861  0.68369701  1
  Zn  Zn132  1  0.93322519  0.94235172  0.19095976  1
  Zn  Zn133  1  0.91948595  0.94031690  0.69500064  1
  Zn  Zn134  1  0.08231590  0.04928843  0.34605986  1
  Zn  Zn135  1  0.06887836  0.05876560  0.80349389  1
  Zn  Zn136  1  0.04649758  0.53136892  0.29545603  1
  Zn  Zn137  1  0.02098350  0.64484431  0.83711472  1
  Zn  Zn138  1  0.56620271  0.06677753  0.30932426  1
  Zn  Zn139  1  0.56878909  0.05987194  0.81175298  1
  Zn  Zn140  1  0.56055997  0.56560600  0.30998179  1
  Zn  Zn141  1  0.55233242  0.55139132  0.80625694  1
  Zn  Zn142  1  0.43862478  0.18949733  0.44301701  1
  Zn  Zn143  1  0.43489285  0.18703210  0.93725698  1
  Zn  Zn144  1  0.43943805  0.68338634  0.43897783  1
  Zn  Zn145  1  0.44075868  0.68876859  0.94083330  1
  Zn  Zn146  1  0.94152805  0.18812527  0.44143039  1
  Zn  Zn147  1  0.94290080  0.19583241  0.94338793  1
  Zn  Zn148  1  0.93869896  0.68290607  0.44251841  1
  Zn  Zn149  1  0.84810152  0.68050020  0.92157148  1
  Zn  Zn150  1  0.06320109  0.31006161  0.06297498  1
  Zn  Zn151  1  0.06841450  0.31039137  0.56039051  1
  Zn  Zn152  1  0.04458731  0.81732193  0.06762265  1
  Zn  Zn153  1  0.05726190  0.80345075  0.55889912  1
  Zn  Zn154  1  0.55954816  0.31811859  0.06433882  1
  Zn  Zn155  1  0.56076360  0.31018852  0.56649310  1
  Zn  Zn156  1  0.56346981  0.81260610  0.06909622  1
  Zn  Zn157  1  0.56126440  0.81232286  0.55763324  1
  O  O158  1  0.11540606  0.12273938  0.12214524  1
  O  O159  1  0.11669116  0.10871270  0.62257873  1
  O  O160  1  0.11134410  0.61234514  0.11959241  1
  O  O161  1  0.11556833  0.64205532  0.63136431  1
  O  O162  1  0.61716883  0.12514614  0.11671719  1
  O  O163  1  0.61947959  0.13655234  0.61284824  1
  O  O164  1  0.61008356  0.60767686  0.14161638  1
  O  O165  1  0.61703649  0.61496617  0.62734973  1
  O  O166  1  0.33826343  0.38803416  0.39190514  1
  O  O167  1  0.36921002  0.38576938  0.88040382  1
  O  O168  1  0.37491336  0.87552863  0.37074731  1
  O  O169  1  0.38989841  0.86593629  0.89731351  1
  O  O170  1  0.86421358  0.38707773  0.39128377  1
  O  O171  1  0.89050843  0.36517795  0.88273708  1
  O  O172  1  0.87597158  0.88517180  0.37379986  1
  O  O173  1  0.88865491  0.87728208  0.88856411  1
  O  O174  1  0.25384581  0.01140344  0.36024336  1
  O  O175  1  0.25397959  0.00814720  0.87805189  1
  O  O176  1  0.24397771  0.51418039  0.35887857  1
  O  O177  1  0.25926676  0.51460162  0.87732697  1
  O  O178  1  0.75357067  0.01538875  0.37795330  1
  O  O179  1  0.74426792  0.02272544  0.86776060  1
  O  O180  1  0.75326983  0.51323812  0.38764950  1
  O  O181  1  0.70460190  0.54503123  0.88038531  1
  O  O182  1  0.24270055  0.50377431  0.12547821  1
  O  O183  1  0.25445491  0.48453043  0.61930237  1
  O  O184  1  0.23193450  1.01377545  0.13942982  1
  O  O185  1  0.25822921  0.97386009  0.61983175  1
  O  O186  1  0.73439448  0.50859164  0.12888592  1
  O  O187  1  0.73740165  0.49019622  0.61342262  1
  O  O188  1  0.73510492  1.01467640  0.12163106  1
  O  O189  1  0.75179237  1.00210267  0.63632718  1
  O  O190  1  0.01667971  0.42540335  0.26279953  1
  O  O191  1  0.01632254  0.37160984  0.75621739  1
  O  O192  1  0.00007366  0.86543516  0.25870318  1
  O  O193  1  -0.00698554  0.88099161  0.76566393  1
  O  O194  1  0.50544929  0.36262886  0.25087088  1
  O  O195  1  0.51100350  0.37485513  0.74726125  1
  O  O196  1  0.50698850  0.86071313  0.24709215  1
  O  O197  1  0.49540681  0.86455510  0.77609509  1
  O  O198  1  0.51044257  0.13853291  0.23801749  1
  O  O199  1  0.49599055  0.11931887  0.74072546  1
  O  O200  1  0.49050418  0.63248004  0.24331883  1
  O  O201  1  0.50149077  0.63155205  0.74132963  1
  O  O202  1  0.98640059  0.12696074  0.24113590  1
  O  O203  1  1.00655529  0.12638854  0.73182413  1
  O  O204  1  1.00307155  0.63181845  0.24633520  1
  O  O205  1  0.98818907  0.62194301  0.72789332  1
  O  O206  1  0.36818385  0.25653545  0.00511167  1
  O  O207  1  0.36642553  0.24682471  0.51318858  1
  O  O208  1  0.38216629  0.75841970  0.01348669  1
  O  O209  1  0.36610407  0.76215696  0.48388999  1
  O  O210  1  0.86773878  0.25939508  0.00912566  1
  O  O211  1  0.86808540  0.26345759  0.50582646  1
  O  O212  1  0.87850787  0.76763423  0.00357416  1
  O  O213  1  0.86022619  0.74958537  0.50201270  1
  O  O214  1  0.14354425  0.23586812  0.51440088  1
  O  O215  1  0.13313613  0.24396720  0.99225797  1
  O  O216  1  0.13613692  0.75936647  0.48564299  1
  O  O217  1  0.12345753  0.76382311  1.01227672  1
  O  O218  1  0.63103930  0.24639390  0.49416103  1
  O  O219  1  0.63104586  0.24930329  0.99744468  1
  O  O220  1  0.63333732  0.75127382  0.49223753  1
  O  O221  1  0.60401971  0.72983599  1.01198501  1
  O  O222  1  0.49319161  0.24563901  0.13142737  1
  O  O223  1  0.48786961  0.23676278  0.61703817  1
  O  O224  1  0.49360631  0.73699619  0.13753500  1
  O  O225  1  0.50187659  0.73257819  0.62363737  1
  O  O226  1  0.98773598  0.24104999  0.11545847  1
  O  O227  1  0.98750716  0.25831665  0.62737324  1
  O  O228  1  0.99355921  0.73899888  0.13661258  1
  O  O229  1  0.98280134  0.73761478  0.61877345  1
  O  O230  1  -0.00683572  0.25352958  0.36494774  1
  O  O231  1  0.01465073  0.25721691  0.87479213  1
  O  O232  1  0.00336250  0.75223073  0.36924578  1
  O  O233  1  -0.00339643  0.75476024  0.87608134  1
  O  O234  1  0.51053560  0.24322202  0.36792462  1
  O  O235  1  0.51262483  0.25447096  0.88323922  1
  O  O236  1  0.51521111  0.73927969  0.36727625  1
  O  O237  1  0.50964578  0.75522436  0.87491075  1
  O  O238  1  0.25643986  0.12021157  0.48523326  1
  O  O239  1  0.24702935  0.13041168  0.99356284  1
  O  O240  1  0.25011408  0.63160747  0.49235264  1
  O  O241  1  0.24781099  0.62664717  0.98546580  1
  O  O242  1  0.74380660  0.13596194  0.49565434  1
  O  O243  1  0.74146560  0.13587689  0.99205243  1
  O  O244  1  0.74426700  0.63715162  0.49239643  1
  O  O245  1  0.77010757  0.61107200  0.97432973  1
  O  O246  1  0.25670910  0.36179409  -0.00623447  1
  O  O247  1  0.24757198  0.35712654  0.52201459  1
  O  O248  1  0.26651206  0.87905663  -0.00414941  1
  O  O249  1  0.26891548  0.87170431  0.49888311  1
  O  O250  1  0.76262578  0.36934854  -0.01286979  1
  O  O251  1  0.75201622  0.36591332  0.51070825  1
  O  O252  1  0.76892502  0.88994134  -0.00391573  1
  O  O253  1  0.74991725  0.86115700  0.49657924  1
  O  O254  1  0.14363147  0.50844119  0.23218451  1
  O  O255  1  0.13025753  0.48703279  0.75175717  1
  O  O256  1  0.12631750  0.99570620  0.24850376  1
  O  O257  1  0.13512119  0.97588693  0.75663781  1
  O  O258  1  0.61926219  0.48546212  0.24790783  1
  O  O259  1  0.62130832  0.48784150  0.73693617  1
  O  O260  1  0.62244895  0.98737153  0.24575849  1
  O  O261  1  0.64475191  1.01803740  0.74213136  1
  O  O262  1  0.35817961  -0.00873856  0.23400066  1
  O  O263  1  0.38378119  0.00594212  0.74379015  1
  O  O264  1  0.36865626  0.50911191  0.24754173  1
  O  O265  1  0.37580417  0.50325592  0.76335473  1
  O  O266  1  0.86907215  0.01678091  0.25679836  1
  O  O267  1  0.85460924  0.00999577  0.75438088  1
  O  O268  1  0.86978471  0.49713993  0.27121858  1
  O  O269  1  0.87153446  0.49877693  0.73908042  1
  O  O270  1  0.13487037  0.33678147  0.38360417  1
  O  O271  1  0.12582279  0.36691975  0.86323457  1
  O  O272  1  0.11338755  0.86881611  0.36630769  1
  O  O273  1  0.09785011  0.87939101  0.87592309  1
  O  O274  1  0.63020113  0.36574036  0.36762123  1
  O  O275  1  0.62566847  0.37071398  0.86582728  1
  O  O276  1  0.63128191  0.86657552  0.36080673  1
  O  O277  1  0.61627206  0.87596666  0.88645814  1
  O  O278  1  0.38803131  0.13576579  0.11586045  1
  O  O279  1  0.38156282  0.12630558  0.63410106  1
  O  O280  1  0.38408065  0.63273262  0.13277437  1
  O  O281  1  0.38854676  0.61734836  0.63103101  1
  O  O282  1  0.87878989  0.13452402  0.13202877  1
  O  O283  1  0.88131895  0.14434617  0.62075748  1
  O  O284  1  0.89893073  0.60082068  0.13709641  1
  O  O285  1  0.87619029  0.63233309  0.63376694  1
  O  O286  1  0.25997349  0.23755120  0.11393322  1
  O  O287  1  0.26118688  0.23868532  0.62048673  1
  O  O288  1  0.26737397  0.74188046  0.12566384  1
  O  O289  1  0.24612770  0.76873229  0.60752137  1
  O  O290  1  0.75755169  0.24694895  0.11205106  1
  O  O291  1  0.76011432  0.25737224  0.61834600  1
  O  O292  1  0.76154205  0.70349616  0.10653584  1
  O  O293  1  0.75710033  0.74381560  0.61397399  1
  O  O294  1  0.26398464  0.23136813  0.38519514  1
  O  O295  1  0.24508249  0.24201676  0.88458825  1
  O  O296  1  0.23690109  0.75438459  0.37907636  1
  O  O297  1  0.24903340  0.74727072  0.88129614  1
  O  O298  1  0.74379144  0.24496055  0.38573450  1
  O  O299  1  0.73970466  0.24498843  0.88587352  1
  O  O300  1  0.74212167  0.74097413  0.38479150  1
  O  O301  1  0.75753318  0.74343075  0.88639576  1
  O  O302  1  0.00335786  0.11966249  0.00952161  1
  O  O303  1  0.00135141  0.13457507  0.52153483  1
  O  O304  1  -0.00356845  0.60791955  0.00291530  1
  O  O305  1  0.00069136  0.62366847  0.51584960  1
  O  O306  1  0.50670949  0.12036673  0.00673992  1
  O  O307  1  0.51039555  0.12057918  0.50348697  1
  O  O308  1  0.49170578  0.61949066  0.01896947  1
  O  O309  1  0.50187973  0.61623356  0.51289667  1
  O  O310  1  0.49704313  0.38682567  0.50693704  1
  O  O311  1  0.48470111  0.37534622  0.99685506  1
  O  O312  1  0.48933973  0.87817724  0.48747572  1
  O  O313  1  0.49950724  0.88378690  0.99753352  1
  O  O314  1  0.98886391  0.37995341  0.50623822  1
  O  O315  1  0.99710296  0.37545607  0.99112864  1
  O  O316  1  0.99109009  0.86414428  0.48254365  1
  O  O317  1  0.99258321  0.89060627  0.99022631  1
  O  O318  1  0.50259374  0.50487892  0.39153549  1
  O  O319  1  0.48480583  0.49590734  0.87925885  1
  O  O320  1  0.50926980  1.00849072  0.38718828  1
  O  O321  1  0.50737213  0.98977539  0.88870045  1
  O  O322  1  0.97776026  0.51379655  0.39099008  1
  O  O323  1  1.01269404  0.48624298  0.88873008  1
  O  O324  1  0.98257489  0.98881035  0.36252155  1
  O  O325  1  1.00046920  1.01418135  0.88883673  1
  O  O326  1  0.00419645  0.01433293  0.12619563  1
  O  O327  1  -0.01699329  0.00754998  0.62441698  1
  O  O328  1  0.01570048  0.49917308  0.11226146  1
  O  O329  1  0.01180872  0.51085048  0.61706518  1
  O  O330  1  0.51028207  0.00996405  0.11971907  1
  O  O331  1  0.49785620  0.01927802  0.60726098  1
  O  O332  1  0.49972277  0.51116036  0.12874504  1
  O  O333  1  0.50665316  0.50659858  0.61823565  1
  O  O334  1  0.25858110  0.39508872  0.24770436  1
  O  O335  1  0.24074368  0.36905487  0.73933781  1
  O  O336  1  0.23449509  0.88994008  0.25530647  1
  O  O337  1  0.27656431  0.87083398  0.73365049  1
  O  O338  1  0.73780931  0.37190633  0.25252968  1
  O  O339  1  0.74111246  0.37130774  0.73884080  1
  O  O340  1  0.73893373  0.86770633  0.24564179  1
  O  O341  1  0.74758841  0.89181663  0.75993577  1
  O  O342  1  0.25218532  0.11625272  0.26203936  1
  O  O343  1  0.26064603  0.11204401  0.75716361  1
  O  O344  1  0.26758545  0.61735818  0.24429575  1
  O  O345  1  0.25010003  0.63885416  0.76951218  1
  O  O346  1  0.75494671  0.13695888  0.26272633  1
  O  O347  1  0.75503042  0.13893368  0.76686674  1
  O  O348  1  0.74905770  0.62947782  0.26969545  1
  O  O349  1  0.76964698  0.62266714  0.74862123  1
  O  O350  1  0.37540250  0.12022829  0.37225162  1
  O  O351  1  0.36957738  0.12839677  0.86530522  1
  O  O352  1  0.37997792  0.62121212  0.35968190  1
  O  O353  1  0.37575704  0.61405015  0.87889281  1
  O  O354  1  0.86798100  0.12277618  0.37037878  1
  O  O355  1  0.86336219  0.13791205  0.88425558  1
  O  O356  1  0.86078262  0.61611418  0.37963806  1
  O  O357  1  0.90472259  0.61907710  0.84683692  1
  O  O358  1  0.12790037  0.38513416  0.12161641  1
  O  O359  1  0.13606010  0.36998875  0.63733155  1
  O  O360  1  0.10656056  0.89026905  0.14018446  1
  O  O361  1  0.09681620  0.87969709  0.63336563  1
  O  O362  1  0.62188790  0.38290078  0.14089703  1
  O  O363  1  0.63167886  0.37676087  0.63133285  1
  O  O364  1  0.62178533  0.88533080  0.13777421  1
  O  O365  1  0.57540158  0.88604962  0.63743429  1
  O  O366  1  0.11380615  0.25392661  0.24242809  1
  O  O367  1  0.12974873  0.24491530  0.76151839  1
  O  O368  1  0.11164861  0.76147905  0.26039672  1
  O  O369  1  0.13605995  0.78673940  0.75372754  1
  O  O370  1  0.61924217  0.26143620  0.25660678  1
  O  O371  1  0.62877555  0.25838142  0.76119126  1
  O  O372  1  0.62058152  0.75941160  0.25373393  1
  O  O373  1  0.60788844  0.74541370  0.74644652  1
  O  O374  1  0.38217142  0.25510896  0.23911879  1
  O  O375  1  0.37141755  0.23916146  0.74172046  1
  O  O376  1  0.37870843  0.74239871  0.24333217  1
  O  O377  1  0.40018807  0.74218572  0.75641810  1
  O  O378  1  0.86792413  0.24458859  0.23843468  1
  O  O379  1  0.87651432  0.26101350  0.73568692  1
  O  O380  1  0.88272849  0.74511994  0.24994961  1
  O  O381  1  0.86896855  0.75338709  0.73829799  1
  O  O382  1  0.38975116  0.50038436  0.49958927  1
  O  O383  1  0.37314957  0.48958989  0.99307089  1
  O  O384  1  0.38471415  0.98319077  0.49406361  1
  O  O385  1  0.38653537  0.98658374  1.01564197  1
  O  O386  1  0.86901935  0.48672337  0.50016719  1
  O  O387  1  0.89485788  0.48576293  1.00516089  1
  O  O388  1  0.86832295  1.00254710  0.48534259  1
  O  O389  1  0.89033992  0.99966755  1.00706151  1
  O  O390  1  0.10692363  0.00749507  0.01579805  1
  O  O391  1  0.11412734  0.01091344  0.45295317  1
  O  O392  1  0.11828399  0.49350603  0.00780989  1
  O  O393  1  0.14014656  0.50161267  0.47407950  1
  O  O394  1  0.61758873  0.01074538  0.00821538  1
  O  O395  1  0.62232311  0.00964304  0.50371359  1
  O  O396  1  0.61790368  0.48609103  0.02299951  1
  O  O397  1  0.61246966  0.49964805  0.51024363  1
  O  O398  1  0.37776747  0.36261537  0.11533567  1
  O  O399  1  0.36186970  0.36467810  0.62966811  1
  O  O400  1  0.38206718  0.85962914  0.11770317  1
  O  O401  1  0.38517757  0.86883779  0.61464406  1
  O  O402  1  0.88223024  0.36720538  0.11554882  1
  O  O403  1  0.86917639  0.37102812  0.61487772  1
  O  O404  1  0.88469722  0.87611558  0.11171831  1
  O  O405  1  0.88016671  0.85822483  0.62237608  1
  O  O406  1  0.12548172  0.15450031  0.37249848  1
  O  O407  1  0.13588995  0.12850021  0.87895604  1
  O  O408  1  0.12217524  0.63103144  0.37237698  1
  O  O409  1  0.12890312  0.63293369  0.87276385  1
  O  O410  1  0.63265334  0.13563004  0.38355459  1
  O  O411  1  0.62559883  0.13539882  0.88737385  1
  O  O412  1  0.63416645  0.63235994  0.37649052  1
  O  O413  1  0.64274105  0.59080378  0.87712036  1
