# generated using pymatgen
data_V79Zn79O256
_symmetry_space_group_name_H-M   'P 1'
_cell_length_a   16.88144710
_cell_length_b   16.91659223
_cell_length_c   16.89082958
_cell_angle_alpha   89.85150564
_cell_angle_beta   89.94703780
_cell_angle_gamma   89.94453395
_symmetry_Int_Tables_number   1
_chemical_formula_structural   V79Zn79O256
_chemical_formula_sum   'V79 Zn79 O256'
_cell_volume   4823.60444116
_cell_formula_units_Z   1
loop_
 _symmetry_equiv_pos_site_id
 _symmetry_equiv_pos_as_xyz
  1  'x, y, z'
loop_
 _atom_site_type_symbol
 _atom_site_label
 _atom_site_symmetry_multiplicity
 _atom_site_fract_x
 _atom_site_fract_y
 _atom_site_fract_z
 _atom_site_occupancy
  V  V0  1  0.62554096  -0.00409823  0.62971725  1
  V  V1  1  0.49755907  0.87292116  0.87516473  1
  V  V2  1  0.87770054  0.51211157  0.38282245  1
  V  V3  1  0.49616055  0.87445163  0.37606381  1
  V  V4  1  0.34528201  0.62248124  0.25151549  1
  V  V5  1  0.62590497  0.49057845  0.13276083  1
  V  V6  1  0.37794958  0.24563680  0.12890714  1
  V  V7  1  0.87651017  0.50810433  0.86617644  1
  V  V8  1  0.12622538  0.12447788  0.00278954  1
  V  V9  1  0.37467437  0.63148292  0.74532520  1
  V  V10  1  0.12492096  0.01395268  0.62955952  1
  V  V11  1  0.11415845  0.61419459  0.52509532  1
  V  V12  1  0.37533935  0.49979834  0.87587351  1
  V  V13  1  0.51153073  0.25207254  0.25532808  1
  V  V14  1  0.87641318  0.87618761  0.50930531  1
  V  V15  1  0.24570763  0.37644826  0.62476711  1
  V  V16  1  0.37290499  0.37293501  0.49659234  1
  V  V17  1  0.12403895  0.75425395  0.87943327  1
  V  V18  1  0.37894710  0.00481340  0.87190396  1
  V  V19  1  0.24450541  0.37489128  0.14029024  1
  V  V20  1  0.87699581  0.13583607  0.24887068  1
  V  V21  1  0.50300690  0.25252199  0.74759513  1
  V  V22  1  -0.00090538  0.73350226  0.74973767  1
  V  V23  1  0.13285547  -0.00159337  0.13097003  1
  V  V24  1  -0.00314349  -0.01199221  0.00256947  1
  V  V25  1  0.37029010  0.24241487  0.62695051  1
  V  V26  1  0.76028922  0.36713490  0.12752978  1
  V  V27  1  0.24655218  0.62708206  0.88237134  1
  V  V28  1  0.49786716  0.62662769  0.62001699  1
  V  V29  1  0.62614207  0.13617553  0.49492214  1
  V  V30  1  0.74656355  0.87192023  0.62921116  1
  V  V31  1  0.62760902  0.88180026  0.24509560  1
  V  V32  1  0.24025349  0.25044188  0.49240812  1
  V  V33  1  0.36251135  0.50164318  0.36848850  1
  V  V34  1  0.63322418  0.62873888  -0.00171206  1
  V  V35  1  0.12526551  0.37133987  0.75168307  1
  V  V36  1  0.00122000  0.35645201  0.36535086  1
  V  V37  1  0.49279329  0.12235140  0.62901890  1
  V  V38  1  0.87104196  0.00228205  0.37777629  1
  V  V39  1  0.87995396  -0.01160642  0.87734256  1
  V  V40  1  0.51079414  0.37261538  0.37175838  1
  V  V41  1  0.11125904  0.87719048  0.75221595  1
  V  V42  1  0.50099603  0.74637217  0.25039381  1
  V  V43  1  0.00522316  0.37169997  0.87539615  1
  V  V44  1  0.74326620  0.37529838  0.64083168  1
  V  V45  1  -0.00152604  0.00776116  0.51482388  1
  V  V46  1  0.87983824  0.73600586  0.63101246  1
  V  V47  1  0.13697272  0.88134315  0.25785240  1
  V  V48  1  0.75213614  0.74215934  0.49360315  1
  V  V49  1  0.12822670  0.50640396  0.13325286  1
  V  V50  1  0.37224427  0.75426056  0.12207617  1
  V  V51  1  0.25627392  0.00973409  0.74902972  1
  V  V52  1  0.75748919  0.51224336  0.25308905  1
  V  V53  1  0.49929211  0.75364758  0.74661924  1
  V  V54  1  0.50865947  0.37630789  0.86813655  1
  V  V55  1  0.74588739  0.13891685  0.37619399  1
  V  V56  1  0.74946730  -0.00286539  0.23882487  1
  V  V57  1  0.74907336  0.12931548  0.86630146  1
  V  V58  1  0.00412751  0.87701476  0.37562823  1
  V  V59  1  0.24915945  0.74300080  0.50375324  1
  V  V60  1  0.50272550  -0.00700206  0.00743034  1
  V  V61  1  0.62570708  0.12257982  0.00690556  1
  V  V62  1  0.12010421  0.13764591  0.48604253  1
  V  V63  1  0.86192626  0.35716818  0.49729195  1
  V  V64  1  0.49715374  0.62380287  0.12855846  1
  V  V65  1  0.36509159  0.11360122  0.26487651  1
  V  V66  1  0.49985852  0.49775940  0.00086886  1
  V  V67  1  0.12379149  0.73923167  0.37852071  1
  V  V68  1  0.50207657  0.49943834  0.49926553  1
  V  V69  1  0.00847288  0.51195281  0.00552982  1
  V  V70  1  0.25098131  0.87037245  0.62935879  1
  V  V71  1  0.49923402  -0.00472337  0.49765144  1
  V  V72  1  0.75415772  -0.00318902  0.75002893  1
  V  V73  1  -0.00493580  0.13862206  0.12530214  1
  V  V74  1  0.63327044  0.75173589  0.86922611  1
  V  V75  1  0.25360965  0.75875704  0.00250791  1
  V  V76  1  0.25213926  0.24930027  0.00081119  1
  V  V77  1  0.37385788  0.86710764  0.50373190  1
  V  V78  1  0.24681338  0.50043497  0.74644656  1
  Zn  Zn79  1  0.63499607  0.74077865  0.36821847  1
  Zn  Zn80  1  0.93393940  0.68911189  0.18051942  1
  Zn  Zn81  1  0.25804352  0.12790146  0.87029461  1
  Zn  Zn82  1  0.12977356  0.24393773  0.87176776  1
  Zn  Zn83  1  -0.12135518  0.24140580  0.64738052  1
  Zn  Zn84  1  0.62470754  0.25288305  0.87264884  1
  Zn  Zn85  1  0.75566006  0.61784061  0.86084016  1
  Zn  Zn86  1  0.76461979  0.24626964  0.00263351  1
  Zn  Zn87  1  0.63631113  0.61679173  0.49403860  1
  Zn  Zn88  1  0.62861007  0.49736693  0.63966343  1
  Zn  Zn89  1  0.25669269  0.87878535  0.12899092  1
  Zn  Zn90  1  0.37539248  0.37235694  0.00202004  1
  Zn  Zn91  1  0.81604746  0.81521210  0.06447620  1
  Zn  Zn92  1  0.50498589  0.11825672  0.13329031  1
  Zn  Zn93  1  0.88343990  0.36292173  -0.00010648  1
  Zn  Zn94  1  0.18678547  0.18658591  0.19727724  1
  Zn  Zn95  1  0.05359962  0.20154427  0.69391722  1
  Zn  Zn96  1  0.13116868  0.67213017  0.20494320  1
  Zn  Zn97  1  0.18629513  0.68818151  0.69178081  1
  Zn  Zn98  1  0.69233331  0.18524347  0.18975413  1
  Zn  Zn99  1  0.68898505  0.18970327  0.68189056  1
  Zn  Zn100  1  0.68724210  0.68612019  0.18535470  1
  Zn  Zn101  1  0.68212063  0.68410246  0.68040101  1
  Zn  Zn102  1  0.31799343  0.30617227  0.31294263  1
  Zn  Zn103  1  0.31687371  0.31015467  0.81109555  1
  Zn  Zn104  1  0.31153108  0.80750936  0.31733846  1
  Zn  Zn105  1  0.31334158  0.81801930  0.81513312  1
  Zn  Zn106  1  0.80999383  0.32157943  0.30762945  1
  Zn  Zn107  1  0.81292654  0.32384355  0.81090500  1
  Zn  Zn108  1  0.81639037  0.81650761  0.31313791  1
  Zn  Zn109  1  0.81788214  0.81304810  0.81136978  1
  Zn  Zn110  1  0.17558961  0.43703226  0.43254761  1
  Zn  Zn111  1  0.18910114  0.43725020  0.94272328  1
  Zn  Zn112  1  0.18942622  0.94296705  0.44019294  1
  Zn  Zn113  1  0.18994806  0.93795791  0.93705238  1
  Zn  Zn114  1  0.69237548  0.43654465  0.43566749  1
  Zn  Zn115  1  0.69253660  0.43704907  0.94116281  1
  Zn  Zn116  1  0.68347840  0.93339969  0.43573706  1
  Zn  Zn117  1  0.69494327  0.93814130  0.93957025  1
  Zn  Zn118  1  0.32016956  0.06149593  0.06293191  1
  Zn  Zn119  1  0.30003295  0.05291535  0.53508818  1
  Zn  Zn120  1  0.30720052  0.56428674  0.06707888  1
  Zn  Zn121  1  0.31255639  0.56100754  0.55928646  1
  Zn  Zn122  1  0.81668442  0.06666683  0.05749991  1
  Zn  Zn123  1  0.80754467  0.06827660  0.56140070  1
  Zn  Zn124  1  0.81579706  0.55423398  0.05625953  1
  Zn  Zn125  1  0.81712453  0.55350725  0.56861795  1
  Zn  Zn126  1  0.43183224  0.43559240  0.19058325  1
  Zn  Zn127  1  0.43462123  0.43790248  0.68531571  1
  Zn  Zn128  1  0.43927679  0.93593559  0.18986280  1
  Zn  Zn129  1  0.43629638  0.93457252  0.68690794  1
  Zn  Zn130  1  0.93886724  0.43836277  0.18850087  1
  Zn  Zn131  1  0.93270291  0.44313507  0.68292609  1
  Zn  Zn132  1  0.94292213  0.94151909  0.19320976  1
  Zn  Zn133  1  0.93508775  1.07061143  0.69879109  1
  Zn  Zn134  1  0.06035191  0.06568650  0.31168249  1
  Zn  Zn135  1  0.06924923  0.05836369  0.82005262  1
  Zn  Zn136  1  0.04205247  0.55944552  0.30443088  1
  Zn  Zn137  1  0.06467685  0.56045249  0.81514073  1
  Zn  Zn138  1  0.55807054  0.06369018  0.31347278  1
  Zn  Zn139  1  0.56442167  0.06240012  0.81207812  1
  Zn  Zn140  1  0.56419935  0.55816817  0.31759510  1
  Zn  Zn141  1  0.56110151  0.56770425  0.81256554  1
  Zn  Zn142  1  0.43805067  0.18652115  0.43810512  1
  Zn  Zn143  1  0.44097464  0.18599366  0.93828973  1
  Zn  Zn144  1  0.43215609  0.68392958  0.43127784  1
  Zn  Zn145  1  0.43902372  0.68819396  0.93826157  1
  Zn  Zn146  1  0.93666035  0.19061661  0.44379334  1
  Zn  Zn147  1  0.92032743  0.19970209  0.86048452  1
  Zn  Zn148  1  0.94231703  0.68554431  0.44329367  1
  Zn  Zn149  1  0.94155788  0.68818451  0.93859229  1
  Zn  Zn150  1  0.06570118  0.31669271  0.06215903  1
  Zn  Zn151  1  0.03328195  0.35558030  0.57656312  1
  Zn  Zn152  1  0.06970495  0.81161157  0.06416550  1
  Zn  Zn153  1  0.06419267  0.81383425  0.56720579  1
  Zn  Zn154  1  0.56636713  0.30882321  0.06111837  1
  Zn  Zn155  1  0.56407894  0.31600788  0.56503326  1
  Zn  Zn156  1  0.61988982  0.83705140  0.04215210  1
  Zn  Zn157  1  0.56574688  0.80862973  0.56297061  1
  O  O158  1  0.11734697  0.11537216  0.12289672  1
  O  O159  1  0.11878352  0.11401910  0.63321882  1
  O  O160  1  0.14321321  0.60516407  0.11453621  1
  O  O161  1  0.12587566  0.62009442  0.62546256  1
  O  O162  1  0.62634509  0.12525373  0.11127669  1
  O  O163  1  0.61824497  0.11646773  0.61288934  1
  O  O164  1  0.61667969  0.61859066  0.11289634  1
  O  O165  1  0.60990542  0.62068741  0.61216485  1
  O  O166  1  0.38218359  0.37862549  0.38354601  1
  O  O167  1  0.38351061  0.38789343  0.87628209  1
  O  O168  1  0.38660529  0.86943830  0.38559870  1
  O  O169  1  0.39030442  0.88129447  0.87803914  1
  O  O170  1  0.87154443  0.37907985  0.38264991  1
  O  O171  1  0.89465172  0.38926357  0.87305390  1
  O  O172  1  0.88280088  0.88244971  0.38816390  1
  O  O173  1  0.86539486  0.88895176  0.88274217  1
  O  O174  1  0.27228788  0.01224204  0.42964717  1
  O  O175  1  0.26258787  -0.00213629  0.86874192  1
  O  O176  1  0.26449415  0.48761999  0.37825483  1
  O  O177  1  0.25845099  0.50694327  0.87132597  1
  O  O178  1  0.76012040  0.00184845  0.37335036  1
  O  O179  1  0.75328654  0.00278317  0.86665659  1
  O  O180  1  0.75806663  0.49442951  0.35945716  1
  O  O181  1  0.77283902  0.49538009  0.88297258  1
  O  O182  1  0.24431059  0.48299053  0.11888088  1
  O  O183  1  0.26462231  0.48842474  0.63710714  1
  O  O184  1  0.23745372  0.99605352  0.11361290  1
  O  O185  1  0.24351050  0.99224042  0.62950321  1
  O  O186  1  0.74382439  0.49379799  0.13151260  1
  O  O187  1  0.74227377  0.48324411  0.61179756  1
  O  O188  1  0.76035419  1.00288016  0.13991718  1
  O  O189  1  0.74492824  0.99187417  0.63040503  1
  O  O190  1  -0.01665803  0.37083553  0.26477947  1
  O  O191  1  0.01588819  0.38939642  0.76567218  1
  O  O192  1  0.01329404  0.88608766  0.27041643  1
  O  O193  1  0.01319191  0.87297052  0.75368695  1
  O  O194  1  0.49263583  0.36157406  0.25711001  1
  O  O195  1  0.49495540  0.36862302  0.75693905  1
  O  O196  1  0.50679002  0.86811981  0.25876204  1
  O  O197  1  0.49801729  0.86259174  0.75673185  1
  O  O198  1  0.49451649  0.13678749  0.25047391  1
  O  O199  1  0.50163637  0.12887465  0.73487448  1
  O  O200  1  0.50640962  0.63082666  0.23875504  1
  O  O201  1  0.49222643  0.63061053  0.74168239  1
  O  O202  1  0.99107144  0.11744805  0.23539246  1
  O  O203  1  0.99986138  0.13204952  0.77038523  1
  O  O204  1  1.01973421  0.64466791  0.23371262  1
  O  O205  1  1.00660244  0.63506026  0.74756660  1
  O  O206  1  0.37096280  0.24704917  0.01011100  1
  O  O207  1  0.36986106  0.25769163  0.50501428  1
  O  O208  1  0.37015884  0.74377429  0.01125974  1
  O  O209  1  0.36546379  0.75744719  0.49569619  1
  O  O210  1  0.87325968  0.25136401  -0.03196247  1
  O  O211  1  0.86291730  0.25526028  0.50151111  1
  O  O212  1  0.91633846  0.76638603  0.02105826  1
  O  O213  1  0.87030342  0.75676549  0.50951213  1
  O  O214  1  0.12482790  0.24076653  0.50145062  1
  O  O215  1  0.13617418  0.24045136  1.00227546  1
  O  O216  1  0.12981299  0.74217798  0.49813613  1
  O  O217  1  0.13664148  0.75318168  0.98918564  1
  O  O218  1  0.61533928  0.23407521  0.50064771  1
  O  O219  1  0.62483389  0.23385798  0.99332284  1
  O  O220  1  0.64616567  0.75292123  0.50136518  1
  O  O221  1  0.62018274  0.73509491  0.98826049  1
  O  O222  1  0.49321983  0.25290348  0.13556940  1
  O  O223  1  0.49155284  0.24274130  0.62781087  1
  O  O224  1  0.49038445  0.73895803  0.13570141  1
  O  O225  1  0.50549058  0.74054224  0.63421630  1
  O  O226  1  1.00353038  0.23671556  0.11937636  1
  O  O227  1  0.99205865  0.26085418  0.62310115  1
  O  O228  1  0.97452151  0.74867672  0.08341769  1
  O  O229  1  0.99416627  0.75635779  0.64052680  1
  O  O230  1  -0.00700530  0.25458983  0.37073456  1
  O  O231  1  0.01206698  0.26952031  0.87956518  1
  O  O232  1  0.01410579  0.76615947  0.39154285  1
  O  O233  1  0.01177510  0.74442097  0.86243441  1
  O  O234  1  0.49598963  0.25686252  0.36348664  1
  O  O235  1  0.49607688  0.25956891  0.86574805  1
  O  O236  1  0.49594071  0.75481526  0.36122771  1
  O  O237  1  0.50586546  0.75449833  0.86846657  1
  O  O238  1  0.22749682  0.13978225  0.51311309  1
  O  O239  1  0.24396858  0.13312277  1.00622231  1
  O  O240  1  0.24290886  0.63801503  0.51181561  1
  O  O241  1  0.25806929  0.63320909  0.98689349  1
  O  O242  1  0.73334108  0.12073058  0.49204678  1
  O  O243  1  0.73829168  0.12145991  0.99088363  1
  O  O244  1  0.75530907  0.64043919  0.50851701  1
  O  O245  1  0.73270870  0.61346386  0.99130855  1
  O  O246  1  0.25388546  0.36177926  0.00532898  1
  O  O247  1  0.25530666  0.37277699  0.50699774  1
  O  O248  1  0.25138789  0.86321141  0.00231320  1
  O  O249  1  0.25540018  0.86499230  0.51081405  1
  O  O250  1  0.75282418  0.37213432  0.01346323  1
  O  O251  1  0.75688313  0.37000499  0.49780247  1
  O  O252  1  0.72916347  0.86401017  0.01526345  1
  O  O253  1  0.75853876  0.86809467  0.50781737  1
  O  O254  1  0.11918145  0.50348968  0.23311075  1
  O  O255  1  0.14252217  0.49420725  0.75719723  1
  O  O256  1  0.12241488  0.99536719  0.24177165  1
  O  O257  1  0.13452034  0.99289423  0.74835961  1
  O  O258  1  0.63151256  0.50240722  0.23844882  1
  O  O259  1  0.65380737  0.53265775  0.75326602  1
  O  O260  1  0.63144645  0.98951481  0.25811498  1
  O  O261  1  0.63389561  1.00218877  0.73685384  1
  O  O262  1  0.38554151  0.01536840  0.24660170  1
  O  O263  1  0.36901675  -0.00807287  0.75944773  1
  O  O264  1  0.37584636  0.51146148  0.25548939  1
  O  O265  1  0.36931207  0.50800294  0.75937188  1
  O  O266  1  0.86881068  0.00583967  0.26230020  1
  O  O267  1  0.86695239  -0.00028652  0.76718399  1
  O  O268  1  0.86265769  0.50604534  0.25087921  1
  O  O269  1  0.88609554  0.50439068  0.76607923  1
  O  O270  1  0.10053812  0.37610075  0.38038146  1
  O  O271  1  0.12162064  0.37789934  0.86922936  1
  O  O272  1  0.12044919  0.88004181  0.37680313  1
  O  O273  1  0.13515500  0.86308753  0.86542059  1
  O  O274  1  0.60972399  0.37985678  0.37714989  1
  O  O275  1  0.61255333  0.37621069  0.87993109  1
  O  O276  1  0.61361811  0.86397479  0.36987408  1
  O  O277  1  0.61933132  0.85655713  0.87726230  1
  O  O278  1  0.38221508  0.13392703  0.13049154  1
  O  O279  1  0.38474605  0.13183977  0.60711029  1
  O  O280  1  0.37993423  0.62786174  0.13509073  1
  O  O281  1  0.38255070  0.61945691  0.63686862  1
  O  O282  1  0.88769738  0.12214942  0.13055266  1
  O  O283  1  0.86996631  0.12682984  0.62855120  1
  O  O284  1  0.83853846  0.65062939  0.12144437  1
  O  O285  1  0.87242194  0.63691354  0.62542049  1
  O  O286  1  0.25847671  0.25713450  0.12003402  1
  O  O287  1  0.26217545  0.26224949  0.61497161  1
  O  O288  1  0.25911576  0.74978136  0.11448932  1
  O  O289  1  0.24188424  0.76221327  0.62077195  1
  O  O290  1  0.74638595  0.26276389  0.12463565  1
  O  O291  1  0.75563423  0.26705731  0.63475944  1
  O  O292  1  0.77683193  0.71127998  0.11340242  1
  O  O293  1  0.75756521  0.75547266  0.62454592  1
  O  O294  1  0.25248068  0.25861641  0.39334082  1
  O  O295  1  0.25491722  0.24682408  0.88613703  1
  O  O296  1  0.23434158  0.75649809  0.39111115  1
  O  O297  1  0.24777740  0.74520717  0.88101227  1
  O  O298  1  0.74709839  0.23678574  0.36518897  1
  O  O299  1  0.74420906  0.23534648  0.86744127  1
  O  O300  1  0.75844067  0.75334021  0.39008605  1
  O  O301  1  0.73689972  0.74089565  0.85988973  1
  O  O302  1  0.01275395  0.11416396  0.01561485  1
  O  O303  1  0.00845565  0.11791859  0.50002631  1
  O  O304  1  0.00352273  0.61101182  0.00082705  1
  O  O305  1  0.01520181  0.62860074  0.50851455  1
  O  O306  1  0.51233590  0.11490061  -0.00044663  1
  O  O307  1  0.50929869  0.11459051  0.50411165  1
  O  O308  1  0.50239435  0.61596396  0.01045558  1
  O  O309  1  0.48526536  0.61452040  0.50855812  1
  O  O310  1  0.49046527  0.37926297  0.49483768  1
  O  O311  1  0.49807133  0.38467773  0.99220482  1
  O  O312  1  0.49534589  0.87325353  0.49626679  1
  O  O313  1  0.51777870  0.88804876  0.99114623  1
  O  O314  1  0.97228700  0.37119684  0.48083474  1
  O  O315  1  1.00555354  0.38283328  0.98785230  1
  O  O316  1  0.99432141  0.88687869  0.49898413  1
  O  O317  1  1.01142005  0.89105307  0.99920124  1
  O  O318  1  0.48806475  0.49084136  0.38041756  1
  O  O319  1  0.49476930  0.49670013  0.87923847  1
  O  O320  1  0.50851029  0.98600058  0.38655779  1
  O  O321  1  0.49765829  0.99084765  0.87525914  1
  O  O322  1  0.97963997  0.49010706  0.36770258  1
  O  O323  1  0.99853039  0.49830622  0.88672951  1
  O  O324  1  0.98840958  0.99788028  0.38739127  1
  O  O325  1  0.98771450  1.00337883  0.88809453  1
  O  O326  1  0.00803441  0.00011264  0.11565849  1
  O  O327  1  0.00569254  0.00019579  0.62060238  1
  O  O328  1  0.01390313  0.49130941  0.11502748  1
  O  O329  1  0.01596103  0.46260905  0.61332128  1
  O  O330  1  0.50037003  -0.00203540  0.11041087  1
  O  O331  1  0.50772610  0.00338373  0.62214673  1
  O  O332  1  0.50397315  0.50348728  0.12021081  1
  O  O333  1  0.50162718  0.50596426  0.61829968  1
  O  O334  1  0.25411635  0.36854849  0.23908751  1
  O  O335  1  0.24918534  0.38226308  0.74573914  1
  O  O336  1  0.24167187  0.87654479  0.25441356  1
  O  O337  1  0.24626034  0.87955492  0.74212020  1
  O  O338  1  0.74996375  0.38627704  0.23314472  1
  O  O339  1  0.75069437  0.38745894  0.74077136  1
  O  O340  1  0.73401172  0.88116688  0.25959791  1
  O  O341  1  0.75578483  0.88377978  0.73979902  1
  O  O342  1  0.26553710  0.12479795  0.24687946  1
  O  O343  1  0.25007998  0.10867478  0.75057790  1
  O  O344  1  0.24796137  0.63359472  0.24507407  1
  O  O345  1  0.25848402  0.62000043  0.75745865  1
  O  O346  1  0.75475636  0.11456387  0.25831975  1
  O  O347  1  0.74196978  0.11296440  0.75965870  1
  O  O348  1  0.74300148  0.61127837  0.25153454  1
  O  O349  1  0.71437809  0.59534860  0.75126820  1
  O  O350  1  0.37765165  0.12620705  0.36496390  1
  O  O351  1  0.37836610  0.11044643  0.87674535  1
  O  O352  1  0.37309416  0.61502321  0.36228138  1
  O  O353  1  0.37169915  0.61705011  0.86674331  1
  O  O354  1  0.86669514  0.11760584  0.37189721  1
  O  O355  1  0.85233900  0.10648760  0.88311455  1
  O  O356  1  0.88101936  0.61373631  0.37910664  1
  O  O357  1  0.87350409  0.61537075  0.88205237  1
  O  O358  1  0.14017467  0.37829908  0.12448547  1
  O  O359  1  0.14180539  0.37110426  0.63351433  1
  O  O360  1  0.12663502  0.87895010  0.14023137  1
  O  O361  1  0.13205000  0.88594819  0.63254190  1
  O  O362  1  0.63299504  0.38629714  0.11598008  1
  O  O363  1  0.63435343  0.37699062  0.62704712  1
  O  O364  1  0.61497319  0.87610507  0.14706664  1
  O  O365  1  0.63656965  0.88176492  0.62031671  1
  O  O366  1  0.11176357  0.25539508  0.23721528  1
  O  O367  1  0.13143954  0.26654627  0.75515205  1
  O  O368  1  0.12848172  0.76519164  0.27331040  1
  O  O369  1  0.11609549  0.75728267  0.75521729  1
  O  O370  1  0.61012666  0.24527009  0.24584315  1
  O  O371  1  0.60692527  0.24341388  0.74972523  1
  O  O372  1  0.61864359  0.75828075  0.24806877  1
  O  O373  1  0.61257062  0.73887143  0.76186737  1
  O  O374  1  0.38270926  0.23876207  0.24329851  1
  O  O375  1  0.38415081  0.25122771  0.73613427  1
  O  O376  1  0.37956611  0.73818500  0.24601600  1
  O  O377  1  0.38372540  0.73990115  0.75802475  1
  O  O378  1  0.86558871  0.23362052  0.25159518  1
  O  O379  1  0.87938788  0.24899889  0.76413271  1
  O  O380  1  0.88264138  0.79032153  0.22313542  1
  O  O381  1  0.89117367  0.75142226  0.74803366  1
  O  O382  1  0.38088027  0.49055728  0.49335270  1
  O  O383  1  0.38430988  0.50314135  0.99247822  1
  O  O384  1  0.39548313  0.98511728  0.51102465  1
  O  O385  1  0.39481414  1.00237084  0.99131110  1
  O  O386  1  0.86585068  0.49397450  0.48407337  1
  O  O387  1  0.89355355  0.49334290  0.99690638  1
  O  O388  1  0.87864545  0.99464261  0.49774049  1
  O  O389  1  0.88726121  0.99776260  0.99578906  1
  O  O390  1  0.11810478  0.00499388  0.00539981  1
  O  O391  1  0.11563552  0.01252550  0.51164981  1
  O  O392  1  0.11550648  0.49572776  0.00633365  1
  O  O393  1  0.13656280  0.51960456  0.49898150  1
  O  O394  1  0.61506891  0.01147550  -0.00849626  1
  O  O395  1  0.61705371  -0.00006266  0.51099300  1
  O  O396  1  0.61437911  0.50911477  0.00427488  1
  O  O397  1  0.60701975  0.49738873  0.49481588  1
  O  O398  1  0.36564956  0.36533789  0.12365799  1
  O  O399  1  0.37174696  0.36695369  0.61404463  1
  O  O400  1  0.37475823  0.85879838  0.13594085  1
  O  O401  1  0.36488528  0.87526066  0.61621823  1
  O  O402  1  0.86365865  0.37788655  0.12106061  1
  O  O403  1  0.86019813  0.37865628  0.61074915  1
  O  O404  1  0.87016639  0.85423256  0.16440678  1
  O  O405  1  0.86489228  0.86599617  0.61537270  1
  O  O406  1  0.12213961  0.12468093  0.38738549  1
  O  O407  1  0.13413953  0.12342277  0.89134274  1
  O  O408  1  0.11650593  0.64014566  0.37628609  1
  O  O409  1  0.13927472  0.63796415  0.86579154  1
  O  O410  1  0.62974427  0.11770364  0.38812081  1
  O  O411  1  0.63516157  0.12293612  0.88171308  1
  O  O412  1  0.61347747  0.63152736  0.38527592  1
  O  O413  1  0.61752069  0.63397193  0.88821330  1
