# generated using pymatgen
data_V79Zn79O256
_symmetry_space_group_name_H-M   'P 1'
_cell_length_a   16.86546266
_cell_length_b   16.87076828
_cell_length_c   16.86764376
_cell_angle_alpha   90.03098433
_cell_angle_beta   90.00420751
_cell_angle_gamma   89.93966476
_symmetry_Int_Tables_number   1
_chemical_formula_structural   V79Zn79O256
_chemical_formula_sum   'V79 Zn79 O256'
_cell_volume   4799.40317411
_cell_formula_units_Z   1
loop_
 _symmetry_equiv_pos_site_id
 _symmetry_equiv_pos_as_xyz
  1  'x, y, z'
loop_
 _atom_site_type_symbol
 _atom_site_label
 _atom_site_symmetry_multiplicity
 _atom_site_fract_x
 _atom_site_fract_y
 _atom_site_fract_z
 _atom_site_occupancy
  V  V0  1  -0.00315043  0.12328529  0.63585343  1
  V  V1  1  0.37490180  0.36671928  0.50644915  1
  V  V2  1  0.75920554  0.11305165  0.87611599  1
  V  V3  1  0.01354312  0.75720405  0.24621413  1
  V  V4  1  0.00629690  0.25439821  0.26354037  1
  V  V5  1  0.12548186  0.49989588  0.61640539  1
  V  V6  1  0.87186896  0.12253104  0.24943335  1
  V  V7  1  0.61657138  0.11829409  -0.00054482  1
  V  V8  1  0.37696460  0.12320318  0.24404037  1
  V  V9  1  0.24588749  0.49469704  0.75001501  1
  V  V10  1  0.13332668  -0.00256800  0.63641509  1
  V  V11  1  0.01054597  0.62316629  0.61984366  1
  V  V12  1  0.39429728  0.13963876  0.74754358  1
  V  V13  1  0.12767221  0.62898233  -0.00400282  1
  V  V14  1  0.37947035  0.63299877  0.74594736  1
  V  V15  1  0.23626670  -0.00225479  0.25314925  1
  V  V16  1  0.23743314  0.87856435  0.12297581  1
  V  V17  1  0.38338519  0.38408466  0.00652001  1
  V  V18  1  0.74640432  0.24651860  -0.00053638  1
  V  V19  1  0.75748884  0.50392885  0.26884522  1
  V  V20  1  0.00283877  0.12084681  0.12470382  1
  V  V21  1  0.00097506  0.62030273  0.11840768  1
  V  V22  1  0.74082433  0.49300970  0.73537038  1
  V  V23  1  0.51079297  0.61657762  0.11238604  1
  V  V24  1  0.75361455  0.25742743  0.49824794  1
  V  V25  1  0.63203533  0.38184332  0.24662452  1
  V  V26  1  0.13126468  0.75436288  0.38999999  1
  V  V27  1  0.24583342  0.24856962  0.48866706  1
  V  V28  1  0.74950196  0.87630182  0.12716284  1
  V  V29  1  0.50804864  0.00911792  0.51092634  1
  V  V30  1  0.87186990  0.87416371  0.50224220  1
  V  V31  1  0.24630283  0.26085738  0.00614877  1
  V  V32  1  0.87309329  0.25756456  0.12457127  1
  V  V33  1  0.12400833  0.12588078  0.00378384  1
  V  V34  1  0.89471691  0.37648438  -0.00332105  1
  V  V35  1  0.24674659  0.36732664  0.62911458  1
  V  V36  1  0.87065293  0.25431321  0.63175390  1
  V  V37  1  0.49907759  0.75130756  0.25711691  1
  V  V38  1  0.00206156  -0.00168887  0.50173749  1
  V  V39  1  0.49773464  0.64064163  0.62614694  1
  V  V40  1  0.74097262  0.74288942  -0.00030476  1
  V  V41  1  0.12042072  0.26619899  0.87347564  1
  V  V42  1  0.62587525  0.24561994  0.37635157  1
  V  V43  1  0.62756981  0.88374195  0.73924323  1
  V  V44  1  0.50453502  0.49555613  0.50942856  1
  V  V45  1  0.62055519  0.74779079  0.86805108  1
  V  V46  1  0.50107775  0.37168268  0.36939077  1
  V  V47  1  0.75242642  0.74589565  0.49908950  1
  V  V48  1  0.13177841  0.12684735  0.49092224  1
  V  V49  1  0.38776103  0.49697808  0.87560912  1
  V  V50  1  0.37406535  0.62594339  0.24947023  1
  V  V51  1  0.24825453  0.49258104  0.24534190  1
  V  V52  1  0.87194718  0.74425115  0.12831619  1
  V  V53  1  0.87009028  -0.00176278  0.37132636  1
  V  V54  1  0.37534172  0.49959839  0.37328307  1
  V  V55  1  0.37545734  0.86883202  0.49286116  1
  V  V56  1  0.62738244  0.74501486  0.37673499  1
  V  V57  1  0.74313060  0.61948693  0.87546116  1
  V  V58  1  0.62087187  0.00325555  0.13575148  1
  V  V59  1  0.00815990  0.75400625  0.76461375  1
  V  V60  1  0.24763415  0.12792445  0.86520445  1
  V  V61  1  0.62942056  0.61873433  0.50241299  1
  V  V62  1  0.37244695  0.75940763  0.11155909  1
  V  V63  1  0.62850253  0.87101740  0.25534983  1
  V  V64  1  0.89162018  0.37624323  0.48749533  1
  V  V65  1  0.00344794  0.26461469  0.75375883  1
  V  V66  1  0.25729771  0.87147845  0.63337307  1
  V  V67  1  0.12755790  0.49294011  0.12194160  1
  V  V68  1  0.62466182  0.34920767  0.73290581  1
  V  V69  1  0.88419469  0.49278787  0.87424876  1
  V  V70  1  0.37346867  0.24918430  0.12573975  1
  V  V71  1  0.37025430  -0.00217091  0.87449659  1
  V  V72  1  0.37726488  0.00724317  0.37774385  1
  V  V73  1  0.49939809  0.87485082  0.87802148  1
  V  V74  1  0.74836121  0.12413661  0.37624504  1
  V  V75  1  0.25024526  0.62865611  0.87671234  1
  V  V76  1  0.87534383  0.74767688  0.62700123  1
  V  V77  1  0.68546791  0.43051334  0.07141891  1
  V  V78  1  -0.00599197  -0.00428109  -0.00614063  1
  Zn  Zn79  1  0.12238545  0.37185128  0.25918709  1
  Zn  Zn80  1  0.20214033  0.79580448  -0.05431255  1
  Zn  Zn81  1  0.87695489  0.86944927  -0.01076206  1
  Zn  Zn82  1  0.88000719  -0.00858052  0.85054644  1
  Zn  Zn83  1  0.75189438  0.99812869  0.72030511  1
  Zn  Zn84  1  0.25478509  0.73687028  0.51327663  1
  Zn  Zn85  1  0.23454889  0.61867656  0.38396511  1
  Zn  Zn86  1  0.50875899  0.24156136  0.23596993  1
  Zn  Zn87  1  0.12667363  0.87660905  0.77720701  1
  Zn  Zn88  1  0.87548623  0.62149989  0.75005132  1
  Zn  Zn89  1  0.48562875  -0.00685025  0.01384344  1
  Zn  Zn90  1  0.87880639  0.61767777  0.27400659  1
  Zn  Zn91  1  -0.02107158  0.51821624  0.45350821  1
  Zn  Zn92  1  0.00839317  0.88339598  0.36342233  1
  Zn  Zn93  1  0.49864205  0.33190925  0.84627988  1
  Zn  Zn94  1  0.19040060  0.18491470  0.19262575  1
  Zn  Zn95  1  0.18381342  0.18969202  0.68359633  1
  Zn  Zn96  1  0.19215705  0.68415855  0.18425196  1
  Zn  Zn97  1  0.18928015  0.68833940  0.69463959  1
  Zn  Zn98  1  0.68907865  0.19070897  0.18793479  1
  Zn  Zn99  1  0.69297945  0.16175717  0.67517771  1
  Zn  Zn100  1  0.68948568  0.67852695  0.19023409  1
  Zn  Zn101  1  0.68734065  0.68669672  0.68752142  1
  Zn  Zn102  1  0.31007474  0.31022123  0.31120286  1
  Zn  Zn103  1  0.31169140  0.31292247  0.81917535  1
  Zn  Zn104  1  0.30798118  0.81648129  0.31071409  1
  Zn  Zn105  1  0.31733655  0.81539293  0.80603619  1
  Zn  Zn106  1  0.81589796  0.31559739  0.31040710  1
  Zn  Zn107  1  0.80466930  0.31069941  0.81402455  1
  Zn  Zn108  1  0.81468650  0.80827210  0.31379663  1
  Zn  Zn109  1  0.80978206  0.81662658  0.80938727  1
  Zn  Zn110  1  0.18905911  0.43990956  0.44066097  1
  Zn  Zn111  1  0.19001991  0.44509190  0.93806201  1
  Zn  Zn112  1  0.19227571  0.93464951  0.43867921  1
  Zn  Zn113  1  0.18987441  0.95440946  0.94653397  1
  Zn  Zn114  1  0.69189195  0.43570725  0.43882544  1
  Zn  Zn115  1  0.67422250  0.43340934  0.90742046  1
  Zn  Zn116  1  0.68805162  0.93421977  0.44047873  1
  Zn  Zn117  1  0.68626105  0.93311165  0.94131653  1
  Zn  Zn118  1  0.30715961  0.06319179  0.06368172  1
  Zn  Zn119  1  0.31788697  0.06584755  0.56901915  1
  Zn  Zn120  1  0.31334430  0.56729950  0.06367024  1
  Zn  Zn121  1  0.31517556  0.55771690  0.56358814  1
  Zn  Zn122  1  0.81044663  0.06091445  0.06559118  1
  Zn  Zn123  1  0.81126323  0.06704482  0.56314135  1
  Zn  Zn124  1  0.81503172  0.56086173  0.05928520  1
  Zn  Zn125  1  0.81840743  0.56213914  0.55773203  1
  Zn  Zn126  1  0.43914175  0.43421792  0.18115096  1
  Zn  Zn127  1  0.43829356  0.43374542  0.69199875  1
  Zn  Zn128  1  0.43746646  0.93449138  0.19511829  1
  Zn  Zn129  1  0.44137400  0.94436840  0.69283843  1
  Zn  Zn130  1  0.93826832  0.43692021  0.18844783  1
  Zn  Zn131  1  0.93165940  0.43889831  0.68307892  1
  Zn  Zn132  1  0.93615966  0.93712916  0.18014153  1
  Zn  Zn133  1  0.93842279  0.93180492  0.69081488  1
  Zn  Zn134  1  0.05858826  0.06703959  0.31294621  1
  Zn  Zn135  1  0.06253760  0.06834112  0.81613853  1
  Zn  Zn136  1  0.05579023  0.57233435  0.31006329  1
  Zn  Zn137  1  0.06308845  0.56635526  0.80718609  1
  Zn  Zn138  1  0.55772137  0.05852318  0.31687189  1
  Zn  Zn139  1  0.56318141  0.05916296  0.81585053  1
  Zn  Zn140  1  0.56303283  0.56335789  0.31059454  1
  Zn  Zn141  1  0.56464588  0.56161139  0.80636979  1
  Zn  Zn142  1  0.43503145  0.18511641  0.43446610  1
  Zn  Zn143  1  0.43141521  0.18015847  0.94054659  1
  Zn  Zn144  1  0.43928428  0.68471517  0.43866896  1
  Zn  Zn145  1  0.43654879  0.68641130  0.93448924  1
  Zn  Zn146  1  0.93870395  0.18471273  0.44350668  1
  Zn  Zn147  1  0.93508547  0.18832277  0.93573328  1
  Zn  Zn148  1  0.94646156  0.68949453  0.43377626  1
  Zn  Zn149  1  0.93092549  0.68093796  0.94027651  1
  Zn  Zn150  1  0.06228469  0.30863739  0.06928759  1
  Zn  Zn151  1  0.06497657  0.31205212  0.56634494  1
  Zn  Zn152  1  0.06173460  0.81270345  0.06185809  1
  Zn  Zn153  1  0.06143470  0.81519350  0.56832838  1
  Zn  Zn154  1  0.54265312  0.28991100  0.02823188  1
  Zn  Zn155  1  0.57150705  0.31775245  0.55910546  1
  Zn  Zn156  1  0.55924028  0.80890678  0.06408645  1
  Zn  Zn157  1  0.55836241  0.81798382  0.55643641  1
  O  O158  1  0.11482466  0.13699744  0.11463975  1
  O  O159  1  0.11876727  0.11184868  0.62089279  1
  O  O160  1  0.12153089  0.61883600  0.11609263  1
  O  O161  1  0.11679168  0.61957730  0.63124525  1
  O  O162  1  0.63155887  0.10672510  0.13223317  1
  O  O163  1  0.56335915  0.16011191  0.62216512  1
  O  O164  1  0.61034030  0.63203454  0.12427137  1
  O  O165  1  0.61164125  0.63088604  0.61381028  1
  O  O166  1  0.38322158  0.38033988  0.37804964  1
  O  O167  1  0.38077503  0.37988686  0.88698362  1
  O  O168  1  0.36728629  0.88554850  0.38724624  1
  O  O169  1  0.38306392  0.88716514  0.86904760  1
  O  O170  1  0.88057595  0.36953718  0.38724279  1
  O  O171  1  0.86745975  0.38415862  0.88261971  1
  O  O172  1  0.87805574  0.88291236  0.38173234  1
  O  O173  1  0.86905759  0.88089909  0.87814838  1
  O  O174  1  0.25919282  -0.00654389  0.36118095  1
  O  O175  1  0.26151126  0.01276727  0.87759107  1
  O  O176  1  0.26158113  0.49972268  0.36805849  1
  O  O177  1  0.25977784  0.50623088  0.86617529  1
  O  O178  1  0.76135779  0.00790657  0.38266699  1
  O  O179  1  0.75260619  0.00885932  0.88558925  1
  O  O180  1  0.75758608  0.49969385  0.36883488  1
  O  O181  1  0.75273322  0.50633532  0.86468203  1
  O  O182  1  0.23975736  0.50618248  0.13302071  1
  O  O183  1  0.24509434  0.49171657  0.63089394  1
  O  O184  1  0.25403605  0.98837903  0.13549829  1
  O  O185  1  0.23766332  0.99506386  0.62434164  1
  O  O186  1  0.74560738  0.49442562  0.12514871  1
  O  O187  1  0.75961226  0.50405918  0.63789149  1
  O  O188  1  0.74121267  0.98518675  0.12575475  1
  O  O189  1  0.72184091  1.06073304  0.62902415  1
  O  O190  1  -0.00174273  0.35720505  0.24623487  1
  O  O191  1  -0.00158557  0.36310657  0.74580238  1
  O  O192  1  -0.00554452  0.86124250  0.24399325  1
  O  O193  1  0.00734259  0.85886810  0.74513127  1
  O  O194  1  0.50843646  0.37508869  0.25764005  1
  O  O195  1  0.51123157  0.35961578  0.73583897  1
  O  O196  1  0.51301465  0.85936986  0.24646345  1
  O  O197  1  0.50964923  0.88103650  0.76660561  1
  O  O198  1  0.48449909  0.12720721  0.25567202  1
  O  O199  1  0.49457390  0.13075917  0.76120779  1
  O  O200  1  0.49306368  0.63303397  0.24355364  1
  O  O201  1  0.49673702  0.62023271  0.73261053  1
  O  O202  1  0.99260932  0.13356596  0.24369696  1
  O  O203  1  1.00132696  0.13196547  0.74028469  1
  O  O204  1  1.00111430  0.64076942  0.23074722  1
  O  O205  1  0.99607700  0.63686444  0.74120765  1
  O  O206  1  0.36449316  0.26040616  0.00678276  1
  O  O207  1  0.36573543  0.25961976  0.49138093  1
  O  O208  1  0.37219828  0.74843552  0.01264294  1
  O  O209  1  0.37629977  0.76535035  0.49232522  1
  O  O210  1  0.86865956  0.25938925  0.00494022  1
  O  O211  1  0.87402920  0.25856495  0.50587801  1
  O  O212  1  0.86477656  0.74926953  0.01079623  1
  O  O213  1  0.87271165  0.75294580  0.50058806  1
  O  O214  1  0.12792831  0.23339487  0.50732631  1
  O  O215  1  0.12700639  0.24613596  0.99389131  1
  O  O216  1  0.12478612  0.75204126  0.49258052  1
  O  O217  1  0.12658735  0.73468088  1.00677982  1
  O  O218  1  0.63644867  0.25604718  0.48444935  1
  O  O219  1  0.63783733  0.22548617  1.02620191  1
  O  O220  1  0.63187739  0.74556261  0.49513031  1
  O  O221  1  0.63424158  0.75378794  0.98888581  1
  O  O222  1  0.48011689  0.25576432  0.12291945  1
  O  O223  1  0.51785026  0.21868650  0.61342999  1
  O  O224  1  0.48805470  0.74238856  0.13338681  1
  O  O225  1  0.49395393  0.73861782  0.61701677  1
  O  O226  1  0.98909915  0.23950881  0.13004197  1
  O  O227  1  0.99662334  0.24405185  0.63760573  1
  O  O228  1  0.99103155  0.74670917  0.12960977  1
  O  O229  1  0.99686818  0.73900025  0.62982664  1
  O  O230  1  -0.00217852  0.24100150  0.36224450  1
  O  O231  1  0.00331443  0.24594928  0.86117345  1
  O  O232  1  0.01005697  0.75640230  0.35935602  1
  O  O233  1  -0.01017915  0.74239483  0.86257221  1
  O  O234  1  0.50765899  0.25816236  0.37293616  1
  O  O235  1  0.51136889  0.25372489  0.92208000  1
  O  O236  1  0.51125570  0.74590349  0.36768375  1
  O  O237  1  0.50606736  0.76154998  0.87925197  1
  O  O238  1  0.23960169  0.13194515  0.50722770  1
  O  O239  1  0.24004867  0.13538195  0.99341346  1
  O  O240  1  0.26760120  0.62742932  0.49183205  1
  O  O241  1  0.24386840  0.62173676  0.98839665  1
  O  O242  1  0.76096188  0.14082259  0.48152640  1
  O  O243  1  0.74492950  0.12838948  0.99802617  1
  O  O244  1  0.74024728  0.63017442  0.50430222  1
  O  O245  1  0.75275598  0.63211141  0.98906852  1
  O  O246  1  0.25407648  0.36484519  -0.00513184  1
  O  O247  1  0.25574268  0.36927643  0.50663669  1
  O  O248  1  0.25130292  0.87892804  0.01785786  1
  O  O249  1  0.26157909  0.87448135  0.51213386  1
  O  O250  1  0.74019395  0.36539871  0.00589815  1
  O  O251  1  0.76252144  0.36286410  0.49499091  1
  O  O252  1  0.74881153  0.86181955  0.01253514  1
  O  O253  1  0.76269641  0.86411812  0.49796528  1
  O  O254  1  0.13475715  0.50789987  0.23699000  1
  O  O255  1  0.14079119  0.50421612  0.74383928  1
  O  O256  1  0.13633475  1.00511955  0.25552177  1
  O  O257  1  0.11719233  0.99671792  0.73901993  1
  O  O258  1  0.63851946  0.49208619  0.25815819  1
  O  O259  1  0.63883735  0.50192365  0.74405710  1
  O  O260  1  0.62060530  0.98609328  0.24565083  1
  O  O261  1  0.62829372  0.98817354  0.75368942  1
  O  O262  1  0.37314783  0.00448630  0.25997639  1
  O  O263  1  0.38214873  0.01550513  0.76903334  1
  O  O264  1  0.36950602  0.50365175  0.25431339  1
  O  O265  1  0.36876366  0.50465520  0.75671893  1
  O  O266  1  0.88376760  0.00906407  0.25971134  1
  O  O267  1  0.86528019  0.00092329  0.73725501  1
  O  O268  1  0.86065213  0.49782737  0.24410712  1
  O  O269  1  0.86277884  0.49474606  0.76065538  1
  O  O270  1  0.10087840  0.40824510  0.37170180  1
  O  O271  1  0.12741364  0.36551918  0.87947975  1
  O  O272  1  0.12313245  0.86311594  0.37766845  1
  O  O273  1  0.14167833  0.87271528  0.88772419  1
  O  O274  1  0.61910693  0.36757057  0.36782552  1
  O  O275  1  0.61507791  0.36782142  0.84358703  1
  O  O276  1  0.63460493  0.85939291  0.36605103  1
  O  O277  1  0.61629514  0.86915455  0.86952461  1
  O  O278  1  0.37102600  0.13406343  0.13114237  1
  O  O279  1  0.37199869  0.12314772  0.64912865  1
  O  O280  1  0.37698244  0.63710045  0.13499533  1
  O  O281  1  0.38925251  0.61712193  0.63098794  1
  O  O282  1  0.88102482  0.13102519  0.13316965  1
  O  O283  1  0.89072987  0.14178517  0.61153866  1
  O  O284  1  0.88403434  0.63161832  0.12023825  1
  O  O285  1  0.88788345  0.63221375  0.62554405  1
  O  O286  1  0.25545404  0.24657043  0.11558897  1
  O  O287  1  0.24377571  0.26104882  0.61496955  1
  O  O288  1  0.26419242  0.76274000  0.13587947  1
  O  O289  1  0.24220234  0.76616003  0.62592067  1
  O  O290  1  0.76603787  0.24332096  0.11815269  1
  O  O291  1  0.76644276  0.23997000  0.61418374  1
  O  O292  1  0.75404052  0.74938140  0.11932967  1
  O  O293  1  0.76311569  0.74155758  0.61285742  1
  O  O294  1  0.24040476  0.26030527  0.38848934  1
  O  O295  1  0.23937600  0.24569069  0.88447448  1
  O  O296  1  0.23734990  0.75203640  0.37634108  1
  O  O297  1  0.25986165  0.73373271  0.86838790  1
  O  O298  1  0.74461298  0.24532099  0.37673922  1
  O  O299  1  0.75425723  0.23889493  0.89357470  1
  O  O300  1  0.74505114  0.74586760  0.38765246  1
  O  O301  1  0.74328562  0.74030700  0.88048984  1
  O  O302  1  0.00379820  0.12330671  0.00708121  1
  O  O303  1  0.01124415  0.11650900  0.50904124  1
  O  O304  1  0.00958019  0.62760267  0.00914600  1
  O  O305  1  0.00104478  0.62198466  0.51745872  1
  O  O306  1  0.51441881  0.11598031  0.00590862  1
  O  O307  1  0.49633053  0.10895766  0.48957243  1
  O  O308  1  0.49361507  0.62740516  0.01321093  1
  O  O309  1  0.50448310  0.61590652  0.50951874  1
  O  O310  1  0.49500094  0.37627581  0.49142522  1
  O  O311  1  0.48268388  0.38851000  1.01001920  1
  O  O312  1  0.47976202  0.88733611  0.50638534  1
  O  O313  1  0.50655909  0.87748898  0.98605791  1
  O  O314  1  0.99266089  0.36951930  0.50037751  1
  O  O315  1  0.99372663  0.36975075  0.99603871  1
  O  O316  1  0.99313326  0.88592779  0.49796380  1
  O  O317  1  1.00119090  0.89310023  1.00910830  1
  O  O318  1  0.49482350  0.48897007  0.37982020  1
  O  O319  1  0.48783958  0.50453858  0.87012081  1
  O  O320  1  0.48174241  0.99516896  0.37891245  1
  O  O321  1  0.49145685  0.99017363  0.88305000  1
  O  O322  1  1.04022156  0.46934765  0.36671115  1
  O  O323  1  0.98273797  0.50320860  0.86453276  1
  O  O324  1  0.99001419  1.00222486  0.38465455  1
  O  O325  1  0.99611111  1.00888956  0.88974779  1
  O  O326  1  -0.00235320  0.01477402  0.11910758  1
  O  O327  1  0.00844785  0.00364798  0.61728078  1
  O  O328  1  0.01383768  0.51035071  0.13422377  1
  O  O329  1  0.00898717  0.51362328  0.63718069  1
  O  O330  1  0.51609333  -0.01071363  0.12769632  1
  O  O331  1  0.49492963  0.00356991  0.61132723  1
  O  O332  1  0.49574029  0.51778198  0.13142588  1
  O  O333  1  0.49708666  0.49823087  0.61059591  1
  O  O334  1  0.24298544  0.38732463  0.25620617  1
  O  O335  1  0.26045616  0.38269350  0.74062712  1
  O  O336  1  0.25528253  0.88887968  0.23924919  1
  O  O337  1  0.24604320  0.87516244  0.73771621  1
  O  O338  1  0.74209219  0.38554260  0.25323585  1
  O  O339  1  0.73962463  0.38402731  0.75086732  1
  O  O340  1  0.74037127  0.86183926  0.24030699  1
  O  O341  1  0.73346774  0.87756286  0.74696561  1
  O  O342  1  0.26061289  0.10772651  0.24289116  1
  O  O343  1  0.24825089  0.13388794  0.76320426  1
  O  O344  1  0.26170227  0.61707079  0.25540189  1
  O  O345  1  0.25967450  0.61519009  0.75448419  1
  O  O346  1  0.76448929  0.13158432  0.25951709  1
  O  O347  1  0.73917311  0.12621664  0.77855108  1
  O  O348  1  0.75536728  0.60989283  0.25278211  1
  O  O349  1  0.75293667  0.61614008  0.75699437  1
  O  O350  1  0.36857804  0.11324279  0.36661240  1
  O  O351  1  0.36626197  0.12098922  0.86833939  1
  O  O352  1  0.38593300  0.61028498  0.36460070  1
  O  O353  1  0.37012742  0.61617130  0.86795244  1
  O  O354  1  0.87095718  0.11763398  0.36878719  1
  O  O355  1  0.86353183  0.11778955  0.88139896  1
  O  O356  1  0.93990201  0.59548060  0.36998532  1
  O  O357  1  0.86348628  0.60945517  0.87463131  1
  O  O358  1  0.11918918  0.39033812  0.12853400  1
  O  O359  1  0.13676819  0.38383345  0.62340209  1
  O  O360  1  0.13833904  0.86993648  0.12744773  1
  O  O361  1  0.13387644  0.88952752  0.62063061  1
  O  O362  1  0.62155148  0.37469764  0.13350012  1
  O  O363  1  0.62938273  0.37740001  0.63278017  1
  O  O364  1  0.63166666  0.87689400  0.13420333  1
  O  O365  1  0.61367621  0.86916902  0.64068151  1
  O  O366  1  0.11186410  0.25008527  0.24700043  1
  O  O367  1  0.11169925  0.24939877  0.75671430  1
  O  O368  1  0.11478916  0.75191896  0.24358761  1
  O  O369  1  0.11282187  0.74921792  0.75596195  1
  O  O370  1  0.62620091  0.26099605  0.25638827  1
  O  O371  1  0.64066796  0.25033059  0.73016768  1
  O  O372  1  0.62047590  0.74977001  0.25837585  1
  O  O373  1  0.62963967  0.75938229  0.76198910  1
  O  O374  1  0.36998923  0.24181701  0.24226936  1
  O  O375  1  0.37907926  0.24018445  0.76369613  1
  O  O376  1  0.38264357  0.74240057  0.25496562  1
  O  O377  1  0.37619925  0.73264989  0.75142705  1
  O  O378  1  0.88347341  0.24350050  0.24359701  1
  O  O379  1  0.88129281  0.25465505  0.73877273  1
  O  O380  1  0.88037159  0.74011219  0.24311578  1
  O  O381  1  0.88149579  0.75089010  0.73805620  1
  O  O382  1  0.38402319  0.48727277  0.48967494  1
  O  O383  1  0.36209403  0.48874330  0.99218529  1
  O  O384  1  0.37333546  0.99854579  0.48907830  1
  O  O385  1  0.37526968  1.01379754  0.98354071  1
  O  O386  1  0.88151018  0.48201844  0.50657592  1
  O  O387  1  0.87143464  0.48943676  0.98615970  1
  O  O388  1  0.88078392  0.99468536  0.49661891  1
  O  O389  1  0.88918611  0.99963107  1.00667408  1
  O  O390  1  0.11152168  0.01845515  0.00087333  1
  O  O391  1  0.12027222  0.00774300  0.50693763  1
  O  O392  1  0.13046634  0.50862362  0.01480136  1
  O  O393  1  0.12490640  0.50263040  0.51516569  1
  O  O394  1  0.62810680  0.00638483  0.01847142  1
  O  O395  1  0.60616299  -0.01024226  0.49149875  1
  O  O396  1  0.63228924  0.48337456  0.00523924  1
  O  O397  1  0.61697522  0.50710374  0.49105168  1
  O  O398  1  0.36775683  0.37049076  0.11446948  1
  O  O399  1  0.36589755  0.38018509  0.61198636  1
  O  O400  1  0.37769606  0.86202873  0.12752319  1
  O  O401  1  0.36137208  0.88573343  0.62152971  1
  O  O402  1  0.88098686  0.36640009  0.11320487  1
  O  O403  1  0.88042749  0.35818583  0.61445977  1
  O  O404  1  0.86505944  0.86217076  0.12482416  1
  O  O405  1  0.88517949  0.86070985  0.61049786  1
  O  O406  1  0.12412150  0.12001443  0.39227150  1
  O  O407  1  0.12979048  0.13595289  0.88403251  1
  O  O408  1  0.12234680  0.64786093  0.36780266  1
  O  O409  1  0.13610433  0.61417537  0.88426226  1
  O  O410  1  0.63539176  0.13438003  0.36136269  1
  O  O411  1  0.63255640  0.11489861  0.89733304  1
  O  O412  1  0.61834464  0.63382747  0.38844453  1
  O  O413  1  0.63225224  0.63297573  0.86870002  1
