# generated using pymatgen
data_V79Zn79O256
_symmetry_space_group_name_H-M   'P 1'
_cell_length_a   16.86593668
_cell_length_b   16.87426169
_cell_length_c   16.88122066
_cell_angle_alpha   89.96629398
_cell_angle_beta   90.00343216
_cell_angle_gamma   89.92726639
_symmetry_Int_Tables_number   1
_chemical_formula_structural   V79Zn79O256
_chemical_formula_sum   'V79 Zn79 O256'
_cell_volume   4804.39455749
_cell_formula_units_Z   1
loop_
 _symmetry_equiv_pos_site_id
 _symmetry_equiv_pos_as_xyz
  1  'x, y, z'
loop_
 _atom_site_type_symbol
 _atom_site_label
 _atom_site_symmetry_multiplicity
 _atom_site_fract_x
 _atom_site_fract_y
 _atom_site_fract_z
 _atom_site_occupancy
  V  V0  1  0.50271768  0.25627453  0.75822270  1
  V  V1  1  0.24408233  0.24456245  -0.00039709  1
  V  V2  1  0.62264026  0.12704075  -0.00376361  1
  V  V3  1  0.05956110  0.06840842  0.55715933  1
  V  V4  1  0.12374180  0.85793008  0.75668830  1
  V  V5  1  0.23368891  0.37148196  0.61836456  1
  V  V6  1  -0.00197701  0.36172107  0.87955787  1
  V  V7  1  0.36995265  0.25089776  0.62217807  1
  V  V8  1  0.50707340  0.00853673  0.49755396  1
  V  V9  1  0.37405437  0.12064188  0.75749242  1
  V  V10  1  0.49733985  0.37128524  0.37712253  1
  V  V11  1  0.50244243  0.51341218  0.50729331  1
  V  V12  1  0.37825424  0.24759524  0.13682913  1
  V  V13  1  0.00284186  -0.01988224  0.00445613  1
  V  V14  1  -0.00468203  0.60618542  0.12871168  1
  V  V15  1  0.74462020  0.25350778  -0.00281261  1
  V  V16  1  0.63526195  0.24198052  0.39296477  1
  V  V17  1  0.74613866  0.37557151  0.12632703  1
  V  V18  1  0.87359805  0.75468137  0.12540236  1
  V  V19  1  0.49501279  0.63123202  0.12009423  1
  V  V20  1  0.24701906  0.11347500  0.88286995  1
  V  V21  1  0.87220183  0.24718653  0.12354845  1
  V  V22  1  -0.00107357  0.88018898  0.37714675  1
  V  V23  1  0.24612264  0.23636937  0.49356990  1
  V  V24  1  0.48977434  0.00310437  -0.00581200  1
  V  V25  1  0.86890516  0.12378055  0.25186757  1
  V  V26  1  0.75478423  0.75457577  0.00170618  1
  V  V27  1  0.12502456  0.37978250  0.24931370  1
  V  V28  1  0.61860517  0.36502355  0.25286439  1
  V  V29  1  0.87394714  0.88171428  0.50444127  1
  V  V30  1  0.37514028  0.85213357  0.00065494  1
  V  V31  1  0.23812697  -0.00232915  0.23986626  1
  V  V32  1  0.62384790  0.75025073  0.37559040  1
  V  V33  1  0.75084735  -0.00098756  0.74954970  1
  V  V34  1  0.50179050  0.88517319  0.85938784  1
  V  V35  1  0.62892364  -0.00155191  0.62701950  1
  V  V36  1  0.01104383  0.12270803  0.11741885  1
  V  V37  1  0.00156113  0.50392190  0.50362867  1
  V  V38  1  -0.00158454  0.75538765  0.25046083  1
  V  V39  1  0.37698401  0.87715792  0.50126550  1
  V  V40  1  0.00063198  0.37422962  0.38060014  1
  V  V41  1  0.12662083  0.23535800  0.37376320  1
  V  V42  1  0.12533746  0.76171645  0.37087883  1
  V  V43  1  0.50203620  0.75564386  0.24545272  1
  V  V44  1  0.64250061  0.37726969  0.75238680  1
  V  V45  1  0.87154161  0.49380747  0.38550207  1
  V  V46  1  0.89109406  0.73837658  0.62777407  1
  V  V47  1  0.24021836  0.64219921  0.88466431  1
  V  V48  1  0.74055192  -0.00241082  0.25355963  1
  V  V49  1  0.63877756  0.49994103  0.62533669  1
  V  V50  1  0.24453076  0.88492537  0.62074774  1
  V  V51  1  0.74242604  0.62243339  0.38313148  1
  V  V52  1  0.11517146  0.60901932  0.00307330  1
  V  V53  1  0.75278767  0.62468500  0.85505212  1
  V  V54  1  0.50772573  0.13053093  0.62149576  1
  V  V55  1  0.24569508  0.50565350  0.24427637  1
  V  V56  1  0.74409909  0.49930953  0.25394414  1
  V  V57  1  0.24401909  0.00497607  0.74462794  1
  V  V58  1  0.24625474  0.62894290  0.37512144  1
  V  V59  1  0.50450610  0.87919192  0.36786894  1
  V  V60  1  0.87363242  0.00390153  0.37914184  1
  V  V61  1  0.73979984  0.87427740  0.12817213  1
  V  V62  1  0.49669845  0.12757436  0.13593228  1
  V  V63  1  0.87769407  -0.01618693  0.88378110  1
  V  V64  1  0.75214042  0.12916006  0.87561214  1
  V  V65  1  0.37154507  0.63442093  0.24176008  1
  V  V66  1  0.88051211  0.50794711  0.86821131  1
  V  V67  1  0.25101470  0.49295914  0.76351036  1
  V  V68  1  0.37022285  0.01590716  0.36291808  1
  V  V69  1  0.37325358  0.37605731  -0.01097758  1
  V  V70  1  0.89817459  0.13196583  0.75054956  1
  V  V71  1  0.24795481  0.37856714  0.12553774  1
  V  V72  1  0.12272578  0.51458255  0.62533268  1
  V  V73  1  0.49425995  0.50159115  -0.00377753  1
  V  V74  1  0.25479327  0.75467646  0.50335967  1
  V  V75  1  0.82213061  0.30246520  0.56499679  1
  V  V76  1  0.74576186  0.75026439  0.50319345  1
  V  V77  1  0.62520888  0.62698861  -0.00094470  1
  V  V78  1  0.62603855  0.76432857  0.86478790  1
  Zn  Zn79  1  0.44582216  0.68950866  0.68710081  1
  Zn  Zn80  1  0.37576534  0.50413244  0.37643182  1
  Zn  Zn81  1  0.11913780  0.63812735  0.50854803  1
  Zn  Zn82  1  0.87189526  0.62525810  0.25558364  1
  Zn  Zn83  1  0.88271176  0.39388763  0.00930967  1
  Zn  Zn84  1  0.74901208  0.87111679  0.63135039  1
  Zn  Zn85  1  0.61551435  -0.00542579  0.12948299  1
  Zn  Zn86  1  0.00150612  0.24517257  0.25071611  1
  Zn  Zn87  1  0.50522434  0.37577122  0.87672210  1
  Zn  Zn88  1  0.10849754  0.36258465  0.74429119  1
  Zn  Zn89  1  0.40662218  0.54945162  0.82997612  1
  Zn  Zn90  1  0.62225171  0.49962221  0.12493812  1
  Zn  Zn91  1  0.11489514  0.23443358  0.87370301  1
  Zn  Zn92  1  0.13655472  -0.04180361  0.12078372  1
  Zn  Zn93  1  0.37084956  0.38030853  0.49866374  1
  Zn  Zn94  1  0.19575917  0.18372423  0.19404194  1
  Zn  Zn95  1  0.13923910  0.18498981  0.68739596  1
  Zn  Zn96  1  0.17926891  0.69676272  0.18105536  1
  Zn  Zn97  1  0.27389885  0.69568279  0.70494225  1
  Zn  Zn98  1  0.68340116  0.18622567  0.18897358  1
  Zn  Zn99  1  0.69191262  0.18936399  0.68896999  1
  Zn  Zn100  1  0.68360712  0.68571295  0.18977941  1
  Zn  Zn101  1  0.64073060  0.70704568  0.66460206  1
  Zn  Zn102  1  0.31102839  0.31260865  0.31417778  1
  Zn  Zn103  1  0.29545824  0.30308737  0.80483567  1
  Zn  Zn104  1  0.31645809  0.81986675  0.31153003  1
  Zn  Zn105  1  0.30830858  0.82799988  0.82078631  1
  Zn  Zn106  1  0.81035043  0.31064557  0.31714938  1
  Zn  Zn107  1  0.82494735  0.31405319  0.81079236  1
  Zn  Zn108  1  0.81123774  0.81554907  0.31210288  1
  Zn  Zn109  1  0.81331262  0.80823183  0.80788895  1
  Zn  Zn110  1  0.18551543  0.43874208  0.43795958  1
  Zn  Zn111  1  0.17469763  0.43221909  0.94792494  1
  Zn  Zn112  1  0.18761608  0.94910996  0.43479098  1
  Zn  Zn113  1  0.18887663  0.92941085  0.93691184  1
  Zn  Zn114  1  0.68900545  0.42326651  0.45077028  1
  Zn  Zn115  1  0.68974063  0.44132118  0.93270268  1
  Zn  Zn116  1  0.68710349  0.93903202  0.43808240  1
  Zn  Zn117  1  0.68778983  0.94325644  0.94336264  1
  Zn  Zn118  1  0.31241267  0.05898945  0.06783889  1
  Zn  Zn119  1  0.31810733  0.06411244  0.56039176  1
  Zn  Zn120  1  0.31019772  0.56977336  0.05229215  1
  Zn  Zn121  1  0.31854217  0.56556352  0.56674553  1
  Zn  Zn122  1  0.81223963  0.05985755  0.06442179  1
  Zn  Zn123  1  0.81155474  0.08359215  0.56790992  1
  Zn  Zn124  1  0.81287744  0.56533008  0.06217651  1
  Zn  Zn125  1  0.81294953  0.56265779  0.56818828  1
  Zn  Zn126  1  0.43392004  0.44207237  0.18699897  1
  Zn  Zn127  1  0.43357074  0.43538686  0.68131397  1
  Zn  Zn128  1  0.42541715  0.93450346  0.17952648  1
  Zn  Zn129  1  0.43524490  0.94107506  0.68297496  1
  Zn  Zn130  1  0.92812791  0.42905287  0.20079711  1
  Zn  Zn131  1  0.93156214  0.43541202  0.69125661  1
  Zn  Zn132  1  0.93124873  0.93760399  0.18716670  1
  Zn  Zn133  1  0.94639834  0.94242763  0.68943815  1
  Zn  Zn134  1  0.06017052  0.05690728  0.30225472  1
  Zn  Zn135  1  0.06593916  0.04592371  0.82165164  1
  Zn  Zn136  1  0.06058005  0.56599527  0.31355563  1
  Zn  Zn137  1  0.06942916  0.54922283  0.81427622  1
  Zn  Zn138  1  0.56195260  0.06867701  0.31588152  1
  Zn  Zn139  1  0.56610671  0.06770646  0.80937347  1
  Zn  Zn140  1  0.55883742  0.56226330  0.31591509  1
  Zn  Zn141  1  0.57394516  0.56815761  0.80499397  1
  Zn  Zn142  1  0.43905114  0.19268457  0.43598603  1
  Zn  Zn143  1  0.43071498  0.18970583  0.94157567  1
  Zn  Zn144  1  0.43546785  0.68840101  0.43422015  1
  Zn  Zn145  1  0.41926480  0.70597684  0.86654285  1
  Zn  Zn146  1  0.91065138  0.17640935  0.46075695  1
  Zn  Zn147  1  0.93279270  0.17951327  0.94174375  1
  Zn  Zn148  1  0.93276483  0.68759871  0.44044334  1
  Zn  Zn149  1  0.94434307  0.67419767  0.94527848  1
  Zn  Zn150  1  0.06026802  0.31361058  0.06055124  1
  Zn  Zn151  1  0.03409787  0.27933660  0.55086543  1
  Zn  Zn152  1  0.05419242  0.78809494  0.04133902  1
  Zn  Zn153  1  0.06399653  0.82275168  0.56317555  1
  Zn  Zn154  1  0.56114232  0.31303837  0.06304200  1
  Zn  Zn155  1  0.56485044  0.31998701  0.56558986  1
  Zn  Zn156  1  0.55897478  0.81388530  0.05415403  1
  Zn  Zn157  1  0.55544743  0.81631391  0.56194612  1
  O  O158  1  0.10966759  0.13161683  0.13011963  1
  O  O159  1  0.15023582  0.10161692  0.61648849  1
  O  O160  1  0.10469253  0.63390750  0.11507538  1
  O  O161  1  0.12654264  0.61323041  0.62864288  1
  O  O162  1  0.60967466  0.12846186  0.11668091  1
  O  O163  1  0.61309027  0.12251934  0.62927369  1
  O  O164  1  0.61548836  0.62372328  0.11675536  1
  O  O165  1  0.62405022  0.59854301  0.63721343  1
  O  O166  1  0.38695373  0.37860262  0.37181632  1
  O  O167  1  0.37108020  0.36569940  0.88760438  1
  O  O168  1  0.38837522  0.88703004  0.38194500  1
  O  O169  1  0.39837183  0.87827203  0.87949296  1
  O  O170  1  0.88818186  0.38210139  0.36651958  1
  O  O171  1  0.88378371  0.38622330  0.88049758  1
  O  O172  1  0.87850542  0.88232759  0.38251073  1
  O  O173  1  0.86906834  0.88499741  0.87672854  1
  O  O174  1  0.26600321  0.00321187  0.36929141  1
  O  O175  1  0.25410957  0.00987448  0.86864316  1
  O  O176  1  0.24878209  0.51291977  0.36531111  1
  O  O177  1  0.24296106  0.47620098  0.86191470  1
  O  O178  1  0.75523552  -0.00430136  0.36070480  1
  O  O179  1  0.75944231  0.00650042  0.87342706  1
  O  O180  1  0.75118641  0.50270776  0.37690860  1
  O  O181  1  0.74740584  0.52069474  0.87009576  1
  O  O182  1  0.25641121  0.48992633  0.13190245  1
  O  O183  1  0.23540967  0.49140947  0.62629278  1
  O  O184  1  0.24974746  0.99250632  0.13199655  1
  O  O185  1  0.25843672  0.99551747  0.63045855  1
  O  O186  1  0.74881886  0.49562589  0.13770885  1
  O  O187  1  0.73842042  0.49258339  0.61417690  1
  O  O188  1  0.74911091  0.99039530  0.13373399  1
  O  O189  1  0.74368368  1.01076846  0.63092452  1
  O  O190  1  0.01028622  0.36916689  0.25759238  1
  O  O191  1  -0.00499986  0.37874382  0.77129984  1
  O  O192  1  -0.01011701  0.86430946  0.25975869  1
  O  O193  1  0.02319947  0.87210580  0.73809358  1
  O  O194  1  0.50724640  0.38879979  0.26391088  1
  O  O195  1  0.48996185  0.36182472  0.75309916  1
  O  O196  1  0.49132525  0.86620189  0.25526992  1
  O  O197  1  0.50303887  0.89039744  0.75972586  1
  O  O198  1  0.50197729  0.12484341  0.23395683  1
  O  O199  1  0.49467305  0.13657969  0.74344118  1
  O  O200  1  0.49166726  0.63147081  0.24207499  1
  O  O201  1  0.47986820  0.62830476  0.78540555  1
  O  O202  1  0.98821047  0.12403054  0.23537655  1
  O  O203  1  0.99814585  0.12077448  0.76955121  1
  O  O204  1  0.99693506  0.63897513  0.24872213  1
  O  O205  1  1.01519219  0.65046323  0.76016703  1
  O  O206  1  0.36574559  0.25878570  0.01059254  1
  O  O207  1  0.36395220  0.25325692  0.50423135  1
  O  O208  1  0.38999439  0.75496331  -0.02110692  1
  O  O209  1  0.36637402  0.76554859  0.48540116  1
  O  O210  1  0.86254154  0.24648011  0.01323744  1
  O  O211  1  0.92198752  0.27212817  0.52277573  1
  O  O212  1  0.86549746  0.73851586  0.01262625  1
  O  O213  1  0.86494434  0.75921712  0.50707599  1
  O  O214  1  0.13562473  0.25074151  0.48359380  1
  O  O215  1  0.14000400  0.25286035  0.99910909  1
  O  O216  1  0.13459940  0.75420477  0.48955979  1
  O  O217  1  0.05691108  0.70440377  0.96766036  1
  O  O218  1  0.62426064  0.25635703  0.49265715  1
  O  O219  1  0.63346380  0.24111357  1.00475033  1
  O  O220  1  0.63258815  0.75958167  0.48483782  1
  O  O221  1  0.63243428  0.74386423  0.99183076  1
  O  O222  1  0.48784619  0.24184309  0.12037138  1
  O  O223  1  0.48994385  0.24735139  0.63041674  1
  O  O224  1  0.50841920  0.74064027  0.13222153  1
  O  O225  1  0.53330595  0.74286709  0.64032297  1
  O  O226  1  0.99047987  0.23953984  0.12361126  1
  O  O227  1  1.05049561  0.18221210  0.61118473  1
  O  O228  1  0.98760946  0.74333674  0.13396050  1
  O  O229  1  0.99017672  0.75031991  0.61165712  1
  O  O230  1  0.01718465  0.25906146  0.37358242  1
  O  O231  1  -0.00241360  0.25706492  0.88543672  1
  O  O232  1  0.00359087  0.75781164  0.37114069  1
  O  O233  1  -0.00094824  0.70440587  0.80910222  1
  O  O234  1  0.50636925  0.26672370  0.37849104  1
  O  O235  1  0.49526060  0.24823355  0.86073920  1
  O  O236  1  0.50543625  0.75803000  0.36773538  1
  O  O237  1  0.51943756  0.76977490  0.87181164  1
  O  O238  1  0.25745429  0.13813935  0.49579523  1
  O  O239  1  0.26036061  0.12828947  0.99037002  1
  O  O240  1  0.25084852  0.63748770  0.48858892  1
  O  O241  1  0.22382658  0.63099181  1.00325181  1
  O  O242  1  0.80591598  0.17889406  0.50917733  1
  O  O243  1  0.74267744  0.13094508  0.99734217  1
  O  O244  1  0.75291629  0.63534685  0.49070172  1
  O  O245  1  0.73743253  0.63652489  1.00334881  1
  O  O246  1  0.25433055  0.36884401  0.00926766  1
  O  O247  1  0.25070812  0.36930061  0.50434006  1
  O  O248  1  0.27747077  0.87497377  -0.02001187  1
  O  O249  1  0.25771796  0.87592969  0.50058997  1
  O  O250  1  0.74401613  0.36615012  0.00667331  1
  O  O251  1  0.77021390  0.35961780  0.49689197  1
  O  O252  1  0.74594582  0.86251110  0.00964438  1
  O  O253  1  0.75775687  0.86717321  0.49749251  1
  O  O254  1  0.13527500  0.49434131  0.25365794  1
  O  O255  1  0.13037855  0.48983449  0.73621128  1
  O  O256  1  0.13087090  0.99143546  0.23850030  1
  O  O257  1  0.14085293  0.99105875  0.75373158  1
  O  O258  1  0.63301039  0.49279052  0.25337086  1
  O  O259  1  0.62212901  0.48615613  0.74109678  1
  O  O260  1  0.63687429  1.00791849  0.24875968  1
  O  O261  1  0.63742148  1.00954458  0.73984220  1
  O  O262  1  0.37869017  0.00116202  0.26045023  1
  O  O263  1  0.36750123  0.01417447  0.74321945  1
  O  O264  1  0.36305350  0.51426818  0.25145356  1
  O  O265  1  0.35565795  0.49131570  0.74649229  1
  O  O266  1  0.86358976  0.00499575  0.25636876  1
  O  O267  1  0.87432573  0.00534017  0.76818966  1
  O  O268  1  0.85817819  0.49857076  0.26546310  1
  O  O269  1  0.87033686  0.49934185  0.76756824  1
  O  O270  1  0.12049379  0.37451756  0.36353407  1
  O  O271  1  0.10427499  0.37688989  0.87769385  1
  O  O272  1  0.11354488  0.87050785  0.38120759  1
  O  O273  1  0.13296515  0.87077642  0.85819174  1
  O  O274  1  0.61599900  0.36816056  0.37159138  1
  O  O275  1  0.62172544  0.38037030  0.85865676  1
  O  O276  1  0.61221672  0.87034051  0.37508972  1
  O  O277  1  0.62271346  0.87050230  0.88171783  1
  O  O278  1  0.38477259  0.13740884  0.11965122  1
  O  O279  1  0.38325464  0.13488830  0.63214867  1
  O  O280  1  0.38093414  0.62548959  0.13038513  1
  O  O281  1  0.35410614  0.63954722  0.63979407  1
  O  O282  1  0.87942513  0.13074668  0.13130648  1
  O  O283  1  0.88457252  0.11192728  0.65309349  1
  O  O284  1  0.88036042  0.63104703  0.13428315  1
  O  O285  1  0.87654116  0.63849740  0.61983724  1
  O  O286  1  0.26027753  0.25436954  0.12085740  1
  O  O287  1  0.25243764  0.25411815  0.60798170  1
  O  O288  1  0.20693114  0.79184193  0.11737018  1
  O  O289  1  0.25163778  0.76616434  0.60697186  1
  O  O290  1  0.75361034  0.25405340  0.11936202  1
  O  O291  1  0.75661193  0.25692669  0.63044770  1
  O  O292  1  0.75281445  0.75369498  0.12321848  1
  O  O293  1  0.74124143  0.75146894  0.61108631  1
  O  O294  1  0.24140773  0.25469540  0.38329366  1
  O  O295  1  0.25314249  0.23541458  0.88748231  1
  O  O296  1  0.24302429  0.75000606  0.37767665  1
  O  O297  1  0.23946390  0.73964571  0.87668938  1
  O  O298  1  0.73467709  0.24951379  0.37203168  1
  O  O299  1  0.76062543  0.24103950  0.88787286  1
  O  O300  1  0.74376706  0.74384726  0.37863710  1
  O  O301  1  0.74816184  0.74541630  0.88452381  1
  O  O302  1  -0.00236837  0.11475553  0.01367844  1
  O  O303  1  -0.00126871  0.11088697  0.48575489  1
  O  O304  1  -0.01226843  0.59352884  0.02716166  1
  O  O305  1  0.00439121  0.61028400  0.49027572  1
  O  O306  1  0.50659654  0.12234288  -0.00023645  1
  O  O307  1  0.49196030  0.11934360  0.51096425  1
  O  O308  1  0.50817698  0.61913985  0.00631979  1
  O  O309  1  0.49878930  0.61347886  0.49304734  1
  O  O310  1  0.49590896  0.38317096  0.48849808  1
  O  O311  1  0.49254039  0.38237260  0.99937221  1
  O  O312  1  0.49519709  0.88621833  0.49127437  1
  O  O313  1  0.49582011  0.88669150  0.99136394  1
  O  O314  1  1.01675049  0.38950877  0.48574748  1
  O  O315  1  0.99608267  0.37631499  0.99010284  1
  O  O316  1  0.98653308  0.87342473  0.48734672  1
  O  O317  1  0.99020311  0.88217402  1.01593540  1
  O  O318  1  0.50034906  0.49296585  0.38722737  1
  O  O319  1  0.49822798  0.49940392  0.88783143  1
  O  O320  1  0.49689431  0.99659693  0.37926445  1
  O  O321  1  0.51393288  0.99342260  0.88154580  1
  O  O322  1  0.99190294  0.49459983  0.37829288  1
  O  O323  1  0.98430324  0.50766058  0.87780526  1
  O  O324  1  0.98618801  0.98914717  0.36193845  1
  O  O325  1  0.98985173  0.99530228  0.89384869  1
  O  O326  1  -0.00271029  0.00677851  0.11861779  1
  O  O327  1  0.00562583  0.00489740  0.61444909  1
  O  O328  1  -0.00353921  0.51084271  0.15818660  1
  O  O329  1  0.01361555  0.49148151  0.61830246  1
  O  O330  1  0.49579128  0.01459049  0.11703428  1
  O  O331  1  0.50730940  0.01012649  0.61753565  1
  O  O332  1  0.50003359  0.51164772  0.11706165  1
  O  O333  1  0.49764453  0.49715643  0.61072898  1
  O  O334  1  0.24564931  0.38544797  0.24507588  1
  O  O335  1  0.24588910  0.38195865  0.73494098  1
  O  O336  1  0.25766391  0.89565033  0.25660237  1
  O  O337  1  0.25126334  0.88813211  0.73883674  1
  O  O338  1  0.73973484  0.38114368  0.24774828  1
  O  O339  1  0.74092286  0.36980033  0.75601707  1
  O  O340  1  0.74990644  0.88790554  0.24388014  1
  O  O341  1  0.75722706  0.89466065  0.74779577  1
  O  O342  1  0.25110631  0.10191792  0.24710720  1
  O  O343  1  0.25713587  0.11957968  0.76289484  1
  O  O344  1  0.25123511  0.62642962  0.24775055  1
  O  O345  1  0.23951157  0.60425446  0.77589141  1
  O  O346  1  0.75806919  0.11096400  0.23819493  1
  O  O347  1  0.75538327  0.11855517  0.76209542  1
  O  O348  1  0.74604653  0.61524393  0.26205411  1
  O  O349  1  0.74597310  0.63534966  0.75961052  1
  O  O350  1  0.38572438  0.11452525  0.37352697  1
  O  O351  1  0.36791052  0.12903299  0.86509490  1
  O  O352  1  0.36117982  0.62863497  0.36178001  1
  O  O353  1  0.34194634  0.61416105  0.90128557  1
  O  O354  1  0.88018780  0.11748001  0.35976430  1
  O  O355  1  0.86628567  0.11378649  0.87316354  1
  O  O356  1  0.86237509  0.61441152  0.37566211  1
  O  O357  1  0.86352756  0.62250675  0.87730296  1
  O  O358  1  0.13730922  0.36526307  0.13619706  1
  O  O359  1  0.12924421  0.36750754  0.62128705  1
  O  O360  1  0.13807716  0.83724551  0.10593956  1
  O  O361  1  0.14097582  0.88010897  0.62629374  1
  O  O362  1  0.62658740  0.37721180  0.13520782  1
  O  O363  1  0.61880882  0.38374462  0.64257524  1
  O  O364  1  0.63408301  0.87474596  0.12306805  1
  O  O365  1  0.62982346  0.89487749  0.61780502  1
  O  O366  1  0.13211478  0.26047406  0.26062277  1
  O  O367  1  0.14797262  0.25790486  0.76630502  1
  O  O368  1  0.11331404  0.75034749  0.26254686  1
  O  O369  1  0.15239951  0.76380521  0.73779729  1
  O  O370  1  0.62463675  0.26144134  0.25636662  1
  O  O371  1  0.60947942  0.26128694  0.74431427  1
  O  O372  1  0.61318629  0.74715061  0.26090696  1
  O  O373  1  0.64505014  0.76044669  0.76796267  1
  O  O374  1  0.37055984  0.25307121  0.23593183  1
  O  O375  1  0.37854883  0.24220293  0.74051947  1
  O  O376  1  0.38527367  0.74237242  0.25404205  1
  O  O377  1  0.36482321  0.74442001  0.76675092  1
  O  O378  1  0.87265711  0.24256851  0.24025374  1
  O  O379  1  0.88111445  0.23152897  0.76011952  1
  O  O380  1  0.87863556  0.74745923  0.24505525  1
  O  O381  1  0.87161021  0.76062031  0.72519814  1
  O  O382  1  0.38449301  0.49967017  0.49735547  1
  O  O383  1  0.38277120  0.48956240  1.00739810  1
  O  O384  1  0.38609921  0.99656242  0.48905689  1
  O  O385  1  0.38858098  1.00408318  0.99804777  1
  O  O386  1  0.88348734  0.50177908  0.49168469  1
  O  O387  1  0.85363103  0.49978149  0.98063530  1
  O  O388  1  0.85852172  0.99580097  0.48623363  1
  O  O389  1  0.88038075  1.00084521  0.99123041  1
  O  O390  1  0.11016319  -0.01636111  0.00699328  1
  O  O391  1  0.11887814  0.00847204  0.49800660  1
  O  O392  1  0.11780451  0.50814397  0.01163206  1
  O  O393  1  0.12219534  0.50665609  0.51140052  1
  O  O394  1  0.61780649  0.01279907  0.00770228  1
  O  O395  1  0.61404555  0.00330264  0.50380904  1
  O  O396  1  0.61641426  0.51019672  -0.00062722  1
  O  O397  1  0.61315426  0.48942966  0.51289964  1
  O  O398  1  0.36782060  0.36533491  0.12070878  1
  O  O399  1  0.36182252  0.36175483  0.62289960  1
  O  O400  1  0.38557491  0.86440129  0.10232512  1
  O  O401  1  0.37095121  0.88128683  0.60798102  1
  O  O402  1  0.86695723  0.36479487  0.12670861  1
  O  O403  1  0.86719840  0.37043516  0.62696157  1
  O  O404  1  0.86066969  0.86202685  0.13042368  1
  O  O405  1  0.87241974  0.87580885  0.61272227  1
  O  O406  1  0.12140492  0.13756876  0.36149393  1
  O  O407  1  0.14245847  0.11831956  0.87837422  1
  O  O408  1  0.13511207  0.63741417  0.37464953  1
  O  O409  1  0.13551434  0.60391792  0.89011329  1
  O  O410  1  0.61453841  0.14356050  0.37873056  1
  O  O411  1  0.63872221  0.12138092  0.88498616  1
  O  O412  1  0.63190164  0.63497843  0.37353568  1
  O  O413  1  0.63545477  0.63964816  0.88022120  1
