# generated using pymatgen
data_V79Zn79O256
_symmetry_space_group_name_H-M   'P 1'
_cell_length_a   16.92798287
_cell_length_b   16.93053492
_cell_length_c   16.92915997
_cell_angle_alpha   90.03457824
_cell_angle_beta   89.97296210
_cell_angle_gamma   89.77365683
_symmetry_Int_Tables_number   1
_chemical_formula_structural   V79Zn79O256
_chemical_formula_sum   'V79 Zn79 O256'
_cell_volume   4851.85466110
_cell_formula_units_Z   1
loop_
 _symmetry_equiv_pos_site_id
 _symmetry_equiv_pos_as_xyz
  1  'x, y, z'
loop_
 _atom_site_type_symbol
 _atom_site_label
 _atom_site_symmetry_multiplicity
 _atom_site_fract_x
 _atom_site_fract_y
 _atom_site_fract_z
 _atom_site_occupancy
  V  V0  1  0.11420497  0.25141075  0.37463257  1
  V  V1  1  0.00172277  0.12386892  0.62042822  1
  V  V2  1  0.38022317  -0.00472562  0.87511937  1
  V  V3  1  0.49959750  -0.00051617  0.49701601  1
  V  V4  1  0.50345504  -0.00406456  -0.00346608  1
  V  V5  1  0.62084003  0.86640232  0.25068383  1
  V  V6  1  0.37373537  0.25473968  0.61971582  1
  V  V7  1  0.76174829  0.14139467  0.36539831  1
  V  V8  1  0.25127508  0.37538509  0.62262573  1
  V  V9  1  0.62908137  0.12282212  0.00635058  1
  V  V10  1  0.87536635  0.85972758  0.00320326  1
  V  V11  1  0.25125398  0.24896021  0.49263063  1
  V  V12  1  0.75991729  -0.01229637  0.25540483  1
  V  V13  1  0.12420609  0.50059994  0.11836396  1
  V  V14  1  0.39224170  0.13069736  0.23058001  1
  V  V15  1  0.12204186  0.25579285  0.87263974  1
  V  V16  1  0.87760559  0.37931241  0.01562297  1
  V  V17  1  0.75495425  0.85673208  0.12333859  1
  V  V18  1  0.74553153  0.48336698  0.24930236  1
  V  V19  1  0.87514509  0.25234708  0.61572024  1
  V  V20  1  0.50693285  0.37710096  0.87386101  1
  V  V21  1  0.00199218  0.86094802  0.39845083  1
  V  V22  1  0.13216248  0.74950927  0.86815878  1
  V  V23  1  -0.00265971  0.74828655  0.74317955  1
  V  V24  1  0.87787769  0.00217175  0.87740820  1
  V  V25  1  0.75458884  0.26441637  0.01015881  1
  V  V26  1  0.25471446  0.51904961  0.25391335  1
  V  V27  1  0.37586115  0.74994865  0.13606508  1
  V  V28  1  0.88158547  0.38789735  0.49759461  1
  V  V29  1  -0.00155994  0.50233709  -0.00632062  1
  V  V30  1  0.12400712  0.00571201  0.12836127  1
  V  V31  1  0.24322926  0.24984379  0.01069270  1
  V  V32  1  0.12582766  0.62436744  -0.00903315  1
  V  V33  1  0.37189171  0.62017430  0.76345118  1
  V  V34  1  0.62742071  0.49082615  0.12468160  1
  V  V35  1  0.49657322  0.75744759  0.74138939  1
  V  V36  1  0.00825871  0.87332315  0.87075950  1
  V  V37  1  0.75304327  0.61888075  0.37151868  1
  V  V38  1  0.61956479  0.61321046  0.50971427  1
  V  V39  1  0.62126783  0.74603861  0.37937516  1
  V  V40  1  0.24952751  -0.00957808  0.74991019  1
  V  V41  1  0.13364041  0.63788439  0.48833463  1
  V  V42  1  0.37182303  0.01018392  0.37277686  1
  V  V43  1  0.75864715  0.75537717  0.51446477  1
  V  V44  1  0.12919499  -0.00167101  0.63083792  1
  V  V45  1  0.87591031  0.49089103  0.86423430  1
  V  V46  1  0.11680649  0.37162224  0.24946015  1
  V  V47  1  0.25218729  0.01454304  0.25133566  1
  V  V48  1  0.12902013  0.12432503  0.49754380  1
  V  V49  1  0.73021773  0.48961176  0.74048032  1
  V  V50  1  0.37412401  0.12953511  0.75181905  1
  V  V51  1  0.62424367  -0.00036869  0.12711336  1
  V  V52  1  -0.00302900  0.62027465  0.61817626  1
  V  V53  1  0.75291185  0.63142110  0.87839302  1
  V  V54  1  0.12212542  0.37768988  0.74883332  1
  V  V55  1  0.48960757  0.61444348  0.62396322  1
  V  V56  1  0.49804763  0.63200367  0.14055550  1
  V  V57  1  0.87935788  -0.01228022  0.40375553  1
  V  V58  1  0.75604923  0.12799808  0.88218310  1
  V  V59  1  0.25082169  0.37335482  0.12324609  1
  V  V60  1  0.63029864  0.12552645  0.49218338  1
  V  V61  1  0.12535353  0.50129243  0.61473490  1
  V  V62  1  0.49807963  0.86657457  0.37181151  1
  V  V63  1  0.11469448  0.12640368  0.00038193  1
  V  V64  1  0.62103437  0.75554345  0.87738100  1
  V  V65  1  0.25352840  0.74585412  -0.00396887  1
  V  V66  1  0.11928773  0.87043487  0.25898628  1
  V  V67  1  0.00015146  0.00059964  0.00662407  1
  V  V68  1  0.36938587  0.86780470  0.50762755  1
  V  V69  1  0.48856508  0.51273913  -0.00823208  1
  V  V70  1  0.69980849  0.30586133  0.55947290  1
  V  V71  1  0.41014051  0.33105470  0.01636860  1
  V  V72  1  0.87859981  0.12894150  0.75577627  1
  V  V73  1  0.48154690  0.37549245  0.35561410  1
  V  V74  1  0.51130209  0.25155744  0.74941590  1
  V  V75  1  0.49964127  0.12261872  0.62077479  1
  V  V76  1  0.62041933  0.25716566  0.34669979  1
  V  V77  1  0.25197107  0.87582666  0.12391554  1
  V  V78  1  -0.00046876  0.25727966  0.75652066  1
  Zn  Zn79  1  0.25080034  0.12969213  0.87559404  1
  Zn  Zn80  1  0.93288447  0.72877390  0.14870671  1
  Zn  Zn81  1  0.88145795  0.62256120  0.25075074  1
  Zn  Zn82  1  0.74948218  -0.00236340  0.74785303  1
  Zn  Zn83  1  -0.00288267  0.40283371  0.37890034  1
  Zn  Zn84  1  0.25405248  0.75471933  0.52137214  1
  Zn  Zn85  1  0.38234118  0.87363270  -0.00307200  1
  Zn  Zn86  1  0.46283215  0.48393937  0.48622527  1
  Zn  Zn87  1  -0.10034624  0.12575088  0.23857372  1
  Zn  Zn88  1  0.64164286  -0.01332409  0.61982284  1
  Zn  Zn89  1  0.61869513  0.87694012  0.74462549  1
  Zn  Zn90  1  0.63354075  0.25314602  0.86763558  1
  Zn  Zn91  1  0.24898129  0.51066067  0.76251095  1
  Zn  Zn92  1  0.63106044  0.63189997  0.00463153  1
  Zn  Zn93  1  0.86519342  0.62662491  0.73793648  1
  Zn  Zn94  1  0.06943566  0.19072284  0.19404025  1
  Zn  Zn95  1  0.18976177  0.18775367  0.68638390  1
  Zn  Zn96  1  0.14674689  0.69368217  0.18066970  1
  Zn  Zn97  1  0.19095851  0.68878181  0.68400491  1
  Zn  Zn98  1  0.74141065  0.18579043  0.19233363  1
  Zn  Zn99  1  0.69376446  0.16040420  0.68134694  1
  Zn  Zn100  1  0.68286435  0.68246573  0.19011931  1
  Zn  Zn101  1  0.68311679  0.68188703  0.69194128  1
  Zn  Zn102  1  0.30732321  0.30341655  0.30247534  1
  Zn  Zn103  1  0.29948054  0.34835203  0.84026207  1
  Zn  Zn104  1  0.31082917  0.82450021  0.31240475  1
  Zn  Zn105  1  0.31779348  0.81075893  0.80876928  1
  Zn  Zn106  1  0.81174975  0.31183070  0.32122554  1
  Zn  Zn107  1  0.80935280  0.31338727  0.81132463  1
  Zn  Zn108  1  0.81946510  0.80339846  0.31772850  1
  Zn  Zn109  1  0.81945802  0.81136866  0.81357295  1
  Zn  Zn110  1  0.19578195  0.43689099  0.43229926  1
  Zn  Zn111  1  0.18928135  0.43965573  0.93343136  1
  Zn  Zn112  1  0.18784181  0.94305911  0.43905478  1
  Zn  Zn113  1  0.19268480  0.93952374  0.93421946  1
  Zn  Zn114  1  0.67798276  0.43432901  0.43187915  1
  Zn  Zn115  1  0.68647152  0.44663726  0.93615088  1
  Zn  Zn116  1  0.69009552  0.93230977  0.44061808  1
  Zn  Zn117  1  0.69249511  0.93263907  0.93774794  1
  Zn  Zn118  1  0.31095887  0.06663015  0.06064080  1
  Zn  Zn119  1  0.31103796  0.06125697  0.56170191  1
  Zn  Zn120  1  0.31196446  0.56770738  0.06842651  1
  Zn  Zn121  1  0.30843169  0.56090176  0.56744143  1
  Zn  Zn122  1  0.80881582  0.05103454  0.06753733  1
  Zn  Zn123  1  0.81226268  0.06603213  0.56266439  1
  Zn  Zn124  1  0.81436802  0.56929622  0.06635248  1
  Zn  Zn125  1  0.80537642  0.56623704  0.56194658  1
  Zn  Zn126  1  0.43679940  0.44342033  0.18430637  1
  Zn  Zn127  1  0.44008418  0.43773010  0.69140391  1
  Zn  Zn128  1  0.43875550  0.94026667  0.18580628  1
  Zn  Zn129  1  0.43471763  0.93993510  0.68582883  1
  Zn  Zn130  1  0.94716627  0.47026646  0.19934887  1
  Zn  Zn131  1  0.93429316  0.43758171  0.67854147  1
  Zn  Zn132  1  0.93718074  0.92911810  0.18843589  1
  Zn  Zn133  1  0.93903408  0.93796400  0.68738670  1
  Zn  Zn134  1  0.06082140  0.05107144  0.32464452  1
  Zn  Zn135  1  0.06204259  0.06624642  0.81356681  1
  Zn  Zn136  1  0.07821070  0.55953600  0.31379674  1
  Zn  Zn137  1  0.06191899  0.56328828  0.80821971  1
  Zn  Zn138  1  0.56695382  0.06152516  0.30963474  1
  Zn  Zn139  1  0.56738065  0.06073832  0.81342587  1
  Zn  Zn140  1  0.56286314  0.55570492  0.31447343  1
  Zn  Zn141  1  0.56274811  0.56849864  0.81278187  1
  Zn  Zn142  1  0.44021473  0.19391969  0.42872246  1
  Zn  Zn143  1  0.44785275  0.18159730  0.93650668  1
  Zn  Zn144  1  0.40899495  0.66041217  0.45548647  1
  Zn  Zn145  1  0.43935499  0.69288753  0.93706549  1
  Zn  Zn146  1  0.93933783  0.18258595  0.43460901  1
  Zn  Zn147  1  0.92631166  0.18884462  1.06906052  1
  Zn  Zn148  1  0.93838560  0.68178742  0.43717782  1
  Zn  Zn149  1  0.94103164  0.68118772  0.93052458  1
  Zn  Zn150  1  0.05769325  0.32157587  0.05881549  1
  Zn  Zn151  1  0.05978651  0.31325958  0.56129405  1
  Zn  Zn152  1  0.06669722  0.81586573  0.05921769  1
  Zn  Zn153  1  0.09267105  0.80318398  0.57535316  1
  Zn  Zn154  1  0.57814743  0.31393991  0.05709170  1
  Zn  Zn155  1  0.53937740  0.31568753  0.55240110  1
  Zn  Zn156  1  0.56367014  0.81259056  0.06374010  1
  Zn  Zn157  1  0.56564220  0.80923856  0.56285163  1
  O  O158  1  0.12522735  0.11198557  0.11537549  1
  O  O159  1  0.11799088  0.12549187  0.61899663  1
  O  O160  1  0.13231894  0.60798675  0.10329240  1
  O  O161  1  0.11649431  0.61633168  0.62131043  1
  O  O162  1  0.64696721  0.10814390  0.11370822  1
  O  O163  1  0.60690985  0.12809492  0.60915459  1
  O  O164  1  0.60998981  0.62563641  0.12174956  1
  O  O165  1  0.61477515  0.62232105  0.61441731  1
  O  O166  1  0.38182529  0.36439873  0.36589820  1
  O  O167  1  0.39851821  0.35579297  0.90625762  1
  O  O168  1  0.38472761  0.88586425  0.37884934  1
  O  O169  1  0.37172050  0.89141419  0.87721435  1
  O  O170  1  0.87877027  0.36609359  0.39326826  1
  O  O171  1  0.87142117  0.38991782  0.87791743  1
  O  O172  1  0.88840635  0.87963495  0.37996477  1
  O  O173  1  0.88512965  0.88337202  0.88288599  1
  O  O174  1  0.26161898  -0.00444608  0.36432086  1
  O  O175  1  0.25877386  0.00862602  0.86885142  1
  O  O176  1  0.24789066  0.49868931  0.35293942  1
  O  O177  1  0.26876614  0.45809755  0.86010769  1
  O  O178  1  0.76808680  -0.01433086  0.37193669  1
  O  O179  1  0.76460942  0.00677199  0.87642515  1
  O  O180  1  0.73178840  0.50973642  0.36086357  1
  O  O181  1  0.75863979  0.50845106  0.86595204  1
  O  O182  1  0.24059204  0.48763219  0.11466947  1
  O  O183  1  0.24420623  0.49027658  0.63269373  1
  O  O184  1  0.24312973  0.99439247  0.12784599  1
  O  O185  1  0.23929251  1.00780268  0.63540440  1
  O  O186  1  0.73410460  0.50584934  0.13123938  1
  O  O187  1  0.75242697  0.50742356  0.64318910  1
  O  O188  1  0.74261774  0.98170760  0.13546941  1
  O  O189  1  0.73604565  1.04787198  0.64160465  1
  O  O190  1  0.01497287  0.38528316  0.24865031  1
  O  O191  1  0.01099833  0.36781213  0.73675796  1
  O  O192  1  0.01732102  0.87722114  0.25131426  1
  O  O193  1  -0.00369584  0.86204631  0.75973710  1
  O  O194  1  0.49346251  0.37445137  0.25329646  1
  O  O195  1  0.49331378  0.36401992  0.76162532  1
  O  O196  1  0.50992421  0.88085098  0.25906850  1
  O  O197  1  0.49316710  0.86047974  0.74574573  1
  O  O198  1  0.49188325  0.11611373  0.24614201  1
  O  O199  1  0.49405067  0.12826413  0.74018818  1
  O  O200  1  0.50090146  0.62369292  0.23858242  1
  O  O201  1  0.49360505  0.62895532  0.73956197  1
  O  O202  1  1.00804437  0.11684892  0.25192544  1
  O  O203  1  0.99306304  0.13693987  0.74612814  1
  O  O204  1  0.98829702  0.57264097  0.24833900  1
  O  O205  1  0.99989138  0.63373327  0.73947239  1
  O  O206  1  0.34757600  0.24062895  -0.01000671  1
  O  O207  1  0.36770607  0.24012254  0.51094211  1
  O  O208  1  0.36777715  0.75503411  0.00395444  1
  O  O209  1  0.37605144  0.76395498  0.50106785  1
  O  O210  1  0.86543069  0.26723803  0.00295380  1
  O  O211  1  0.87755419  0.24844183  0.51227722  1
  O  O212  1  0.88803705  0.76037646  -0.00437310  1
  O  O213  1  0.85640000  0.73798635  0.49634969  1
  O  O214  1  0.13147978  0.24518571  0.49605015  1
  O  O215  1  0.12600368  0.24542698  0.99210272  1
  O  O216  1  0.12671493  0.73976118  0.48282647  1
  O  O217  1  0.13323619  0.74254346  0.98799940  1
  O  O218  1  0.63147226  0.24360583  0.50575063  1
  O  O219  1  0.64094261  0.23999402  0.99583542  1
  O  O220  1  0.63105951  0.73980980  0.49282371  1
  O  O221  1  0.62073226  0.75189235  0.98211884  1
  O  O222  1  0.47649533  0.26059985  0.04825989  1
  O  O223  1  0.49092979  0.24380791  0.62807182  1
  O  O224  1  0.49331798  0.74016320  0.12033136  1
  O  O225  1  0.50589662  0.73921566  0.63837377  1
  O  O226  1  1.00469093  0.24757326  0.12154278  1
  O  O227  1  0.99367110  0.24301278  0.63374500  1
  O  O228  1  1.04292116  0.73899802  0.13431201  1
  O  O229  1  1.00953477  0.74205452  0.63893334  1
  O  O230  1  0.01243551  0.25322312  0.38136436  1
  O  O231  1  0.00988353  0.25068891  0.86015241  1
  O  O232  1  -0.00375437  0.76277843  0.37784715  1
  O  O233  1  0.01052165  0.75533488  0.86834768  1
  O  O234  1  0.51278657  0.25889302  0.36971266  1
  O  O235  1  0.50946791  0.25250364  0.86519865  1
  O  O236  1  0.50743838  0.76174739  0.38275763  1
  O  O237  1  0.51473371  0.74609963  0.86341341  1
  O  O238  1  0.24086265  0.13750713  0.50737796  1
  O  O239  1  0.23388975  0.13435841  0.99960865  1
  O  O240  1  0.23537985  0.63683889  0.51834536  1
  O  O241  1  0.24469804  0.63832394  1.00124936  1
  O  O242  1  0.73731013  0.11636364  0.48144560  1
  O  O243  1  0.75198305  0.13320289  0.99491922  1
  O  O244  1  0.73381203  0.62542422  0.49035188  1
  O  O245  1  0.74935162  0.61919598  0.98255137  1
  O  O246  1  0.24057101  0.35946740  0.00654805  1
  O  O247  1  0.24513578  0.36589962  0.51385756  1
  O  O248  1  0.24766185  0.86936821  0.01065433  1
  O  O249  1  0.26603649  0.87264144  0.48566652  1
  O  O250  1  0.75942627  0.37016686  -0.00676472  1
  O  O251  1  0.75496300  0.36947864  0.49832099  1
  O  O252  1  0.76498588  0.87878486  0.01047240  1
  O  O253  1  0.74442303  0.85558999  0.50254502  1
  O  O254  1  0.13863633  0.48884973  0.23476763  1
  O  O255  1  0.12740718  0.49233137  0.74239433  1
  O  O256  1  0.13448752  0.99634762  0.24475403  1
  O  O257  1  0.13673603  1.01520002  0.74219852  1
  O  O258  1  0.63064337  0.50623104  0.23366703  1
  O  O259  1  0.63061784  0.50042975  0.75204699  1
  O  O260  1  0.63276948  0.98321077  0.24671644  1
  O  O261  1  0.63178320  0.99349510  0.74993782  1
  O  O262  1  0.37148265  0.00570333  0.25437695  1
  O  O263  1  0.37110945  0.00970749  0.75518775  1
  O  O264  1  0.35206332  0.50583201  0.22663231  1
  O  O265  1  0.37722663  0.51711539  0.74623386  1
  O  O266  1  0.86498766  -0.00131040  0.24878786  1
  O  O267  1  0.88274686  0.01494788  0.76256973  1
  O  O268  1  0.84544983  0.50434176  0.24284467  1
  O  O269  1  0.87588671  0.50105052  0.75890952  1
  O  O270  1  0.12043187  0.37097754  0.36791608  1
  O  O271  1  0.12373144  0.36702432  0.86063964  1
  O  O272  1  0.11180961  0.89068905  0.36759182  1
  O  O273  1  0.11550452  0.86753950  0.88144646  1
  O  O274  1  0.62320073  0.35934228  0.36501346  1
  O  O275  1  0.61224939  0.37067986  0.88696546  1
  O  O276  1  0.61804566  0.86755056  0.37034126  1
  O  O277  1  0.64459605  0.85833965  0.86319474  1
  O  O278  1  0.38150096  0.11873460  0.13053280  1
  O  O279  1  0.38286725  0.13062137  0.63017599  1
  O  O280  1  0.38941162  0.63605507  0.12004803  1
  O  O281  1  0.38810860  0.63165103  0.63104995  1
  O  O282  1  0.84995074  0.13282193  0.13315757  1
  O  O283  1  0.88331863  0.13282957  0.63468297  1
  O  O284  1  0.88275776  0.62677594  0.12965120  1
  O  O285  1  0.89322376  0.61878560  0.62138326  1
  O  O286  1  0.24242525  0.25699703  0.11209442  1
  O  O287  1  0.25652270  0.25519805  0.61652991  1
  O  O288  1  0.25475707  0.75990203  0.11456286  1
  O  O289  1  0.20112300  0.77666346  0.61877167  1
  O  O290  1  0.74281644  0.26207555  0.10838019  1
  O  O291  1  0.75713784  0.24528232  0.62458681  1
  O  O292  1  0.74040694  0.75823755  0.12538055  1
  O  O293  1  0.74706332  0.73275346  0.61289288  1
  O  O294  1  0.23914786  0.25825708  0.38834513  1
  O  O295  1  0.23458002  0.25281828  0.88085631  1
  O  O296  1  0.27651835  0.72877637  0.37638755  1
  O  O297  1  0.24311691  0.76240525  0.88389357  1
  O  O298  1  0.72813927  0.24385092  0.38323088  1
  O  O299  1  0.75250646  0.24364342  0.88523935  1
  O  O300  1  0.73886586  0.73656323  0.38317243  1
  O  O301  1  0.74604611  0.73714365  0.86439151  1
  O  O302  1  0.00462896  0.11253445  0.00286499  1
  O  O303  1  0.01037902  0.13002234  0.51336628  1
  O  O304  1  0.01154271  0.61351433  -0.00751468  1
  O  O305  1  0.01386848  0.63332847  0.51396823  1
  O  O306  1  0.52080797  0.11224840  -0.00362664  1
  O  O307  1  0.50460205  0.11870932  0.50073883  1
  O  O308  1  0.50624418  0.61837262  -0.00158738  1
  O  O309  1  0.51009807  0.63532536  0.51329507  1
  O  O310  1  0.49561567  0.37787822  0.47619479  1
  O  O311  1  0.50076768  0.39643638  0.99882896  1
  O  O312  1  0.49166671  0.88273180  0.49228858  1
  O  O313  1  0.50224468  0.89045286  1.00165652  1
  O  O314  1  0.98761018  0.37988837  0.50099003  1
  O  O315  1  0.98510454  0.38562474  0.99324325  1
  O  O316  1  1.01543274  0.86352875  0.49625222  1
  O  O317  1  0.99620156  0.88194214  0.99188597  1
  O  O318  1  0.49918388  0.48191352  0.36865292  1
  O  O319  1  0.50646982  0.49544325  0.88606144  1
  O  O320  1  0.49569985  0.99201398  0.38299887  1
  O  O321  1  0.49236392  1.00615840  0.88268470  1
  O  O322  1  0.98917749  0.51639924  0.36957056  1
  O  O323  1  0.98452287  0.50682786  0.87840457  1
  O  O324  1  0.98373432  0.98848721  0.38421406  1
  O  O325  1  0.99728690  0.99322144  0.88250487  1
  O  O326  1  0.00959031  -0.01146894  0.11424256  1
  O  O327  1  0.01101779  0.01655721  0.63977275  1
  O  O328  1  0.01563578  0.49134677  0.10478422  1
  O  O329  1  0.01001680  0.51245672  0.62932835  1
  O  O330  1  0.51787697  -0.00501102  0.11766647  1
  O  O331  1  0.49511960  0.01000605  0.61143432  1
  O  O332  1  0.50562255  0.51496731  0.11528547  1
  O  O333  1  0.49270863  0.51149808  0.61760695  1
  O  O334  1  0.24487715  0.37585079  0.23280546  1
  O  O335  1  0.23503616  0.36287749  0.73354435  1
  O  O336  1  0.24473844  0.88805238  0.24057206  1
  O  O337  1  0.25633239  0.89108522  0.75289866  1
  O  O338  1  0.74904928  0.38439746  0.25583076  1
  O  O339  1  0.74884498  0.38987157  0.75457547  1
  O  O340  1  0.74469253  0.87380219  0.24651947  1
  O  O341  1  0.78773394  0.88464144  0.72767091  1
  O  O342  1  0.26359036  0.11237073  0.24423214  1
  O  O343  1  0.26328582  0.12359522  0.75072133  1
  O  O344  1  0.22745708  0.61479072  0.23448676  1
  O  O345  1  0.26669822  0.62913568  0.74501437  1
  O  O346  1  0.72993227  0.09558042  0.27062760  1
  O  O347  1  0.76670988  0.13493793  0.76877705  1
  O  O348  1  0.74308383  0.62363775  0.26671513  1
  O  O349  1  0.75020165  0.61316963  0.76058294  1
  O  O350  1  0.38277584  0.11240298  0.36846052  1
  O  O351  1  0.37657985  0.11965199  0.86555572  1
  O  O352  1  0.32854635  0.67188856  0.36488697  1
  O  O353  1  0.38090785  0.62639601  0.86275755  1
  O  O354  1  0.86815093  0.10313099  0.38875288  1
  O  O355  1  0.87317260  0.11630496  0.87287561  1
  O  O356  1  0.85364457  0.62037648  0.38036324  1
  O  O357  1  0.86394938  0.61634824  0.87207827  1
  O  O358  1  0.13251276  0.38038742  0.12780484  1
  O  O359  1  0.12951096  0.38212612  0.62845513  1
  O  O360  1  0.13457753  0.88691278  0.13417660  1
  O  O361  1  0.11076425  0.90288226  0.63035901  1
  O  O362  1  0.61795993  0.39154779  0.12495184  1
  O  O363  1  0.63521721  0.36086441  0.61069425  1
  O  O364  1  0.63235832  0.87726096  0.13294126  1
  O  O365  1  0.62180837  0.87771967  0.62971405  1
  O  O366  1  0.13075775  0.26064589  0.26300355  1
  O  O367  1  0.11801490  0.25512856  0.75275716  1
  O  O368  1  0.14376577  0.77381888  0.26240503  1
  O  O369  1  0.11492712  0.74124765  0.76364717  1
  O  O370  1  0.63672760  0.24065213  0.25094233  1
  O  O371  1  0.61363453  0.23411969  0.74496481  1
  O  O372  1  0.62800614  0.75945563  0.26278857  1
  O  O373  1  0.61283493  0.74944072  0.75703023  1
  O  O374  1  0.37287800  0.22796696  0.24937523  1
  O  O375  1  0.38663530  0.23962559  0.73868145  1
  O  O376  1  0.36969549  0.76002243  0.23437148  1
  O  O377  1  0.39023189  0.73955480  0.75565025  1
  O  O378  1  0.82587215  0.20562794  0.28199377  1
  O  O379  1  0.88167740  0.24746930  0.74354334  1
  O  O380  1  0.88131190  0.73847680  0.25153811  1
  O  O381  1  0.89398375  0.74177646  0.75706232  1
  O  O382  1  0.37681430  0.55255753  0.47955245  1
  O  O383  1  0.38961503  0.51032121  1.00124757  1
  O  O384  1  0.38084126  0.99645864  0.49108380  1
  O  O385  1  0.38517122  1.00478421  0.99183624  1
  O  O386  1  0.86577330  0.48559274  0.50404192  1
  O  O387  1  0.87780825  0.49419016  0.98975784  1
  O  O388  1  0.87226402  0.98905087  0.50321139  1
  O  O389  1  0.88441806  0.99309036  0.99504851  1
  O  O390  1  0.11914400  0.00623370  0.00502408  1
  O  O391  1  0.13631797  0.01333663  0.51688281  1
  O  O392  1  0.11881813  0.50308485  -0.00440643  1
  O  O393  1  0.13488198  0.50538974  0.51160756  1
  O  O394  1  0.62546023  0.00145868  0.00586912  1
  O  O395  1  0.61522138  0.00788667  0.49502534  1
  O  O396  1  0.61966183  0.50678851  0.01220537  1
  O  O397  1  0.61927204  0.51412820  0.49368023  1
  O  O398  1  0.36874784  0.37488125  0.10254926  1
  O  O399  1  0.36677107  0.36409700  0.63239700  1
  O  O400  1  0.36738330  0.87196613  0.12078063  1
  O  O401  1  0.37481054  0.88456341  0.60597274  1
  O  O402  1  0.87771494  0.39216527  0.11201907  1
  O  O403  1  0.87584639  0.36425961  0.61209815  1
  O  O404  1  0.87110339  0.86633799  0.11815103  1
  O  O405  1  0.83964111  0.88320584  0.66115709  1
  O  O406  1  0.12006703  0.13076952  0.39097839  1
  O  O407  1  0.12334738  0.13480652  0.88542358  1
  O  O408  1  0.13450158  0.61578317  0.39137556  1
  O  O409  1  0.12676248  0.63103238  0.88160786  1
  O  O410  1  0.62177729  0.13799090  0.38115985  1
  O  O411  1  0.64208073  0.12182725  0.88580865  1
  O  O412  1  0.62201183  0.63208407  0.38389904  1
  O  O413  1  0.63737976  0.63646500  0.87421366  1
