# generated using pymatgen
data_V79Zn79O256
_symmetry_space_group_name_H-M   'P 1'
_cell_length_a   16.94392821
_cell_length_b   16.92704690
_cell_length_c   16.92354483
_cell_angle_alpha   89.87986616
_cell_angle_beta   90.03086869
_cell_angle_gamma   89.98053814
_symmetry_Int_Tables_number   1
_chemical_formula_structural   V79Zn79O256
_chemical_formula_sum   'V79 Zn79 O256'
_cell_volume   4853.84153507
_cell_formula_units_Z   1
loop_
 _symmetry_equiv_pos_site_id
 _symmetry_equiv_pos_as_xyz
  1  'x, y, z'
loop_
 _atom_site_type_symbol
 _atom_site_label
 _atom_site_symmetry_multiplicity
 _atom_site_fract_x
 _atom_site_fract_y
 _atom_site_fract_z
 _atom_site_occupancy
  V  V0  1  0.87443289  0.24512090  0.13222431  1
  V  V1  1  0.49938713  0.24973380  0.74922444  1
  V  V2  1  0.74603140  -0.00827954  0.75524253  1
  V  V3  1  0.75053069  0.61927572  0.36781164  1
  V  V4  1  0.75575782  0.75750057  0.00980864  1
  V  V5  1  0.37107094  0.50924588  0.86990548  1
  V  V6  1  0.01185784  0.00212507  0.00254100  1
  V  V7  1  0.37010619  0.24851585  0.61482687  1
  V  V8  1  0.38525390  0.39622698  0.49914437  1
  V  V9  1  0.39000819  0.73744923  0.12757153  1
  V  V10  1  0.74973452  0.24329515  0.50278337  1
  V  V11  1  0.37484768  0.87349492  0.00120103  1
  V  V12  1  0.62251668  0.75323092  0.37000321  1
  V  V13  1  0.36902932  0.12432673  0.74763213  1
  V  V14  1  0.74952907  0.25140081  0.00122945  1
  V  V15  1  0.63927302  0.87382817  0.24280264  1
  V  V16  1  0.87767934  0.62985239  0.74628177  1
  V  V17  1  0.12925805  0.49852071  0.12692069  1
  V  V18  1  0.24791769  0.36878574  0.61672881  1
  V  V19  1  0.49584687  -0.00489964  0.49813065  1
  V  V20  1  0.37120125  0.37297649  0.00705777  1
  V  V21  1  0.74866427  0.49970909  0.74828405  1
  V  V22  1  0.00103848  0.24778037  0.75331188  1
  V  V23  1  0.63260087  0.12447847  -0.00323276  1
  V  V24  1  0.12808933  0.86450589  0.27885970  1
  V  V25  1  0.64300602  0.49488165  0.12181870  1
  V  V26  1  0.24646693  0.74449609  -0.00998269  1
  V  V27  1  0.36152451  0.86915814  0.50221599  1
  V  V28  1  0.25326655  0.50853096  0.75082824  1
  V  V29  1  0.12109256  0.49684917  0.61168799  1
  V  V30  1  0.87540961  0.24920409  0.62642980  1
  V  V31  1  0.12748715  0.64626604  0.49648281  1
  V  V32  1  0.36993008  0.00190343  0.87146401  1
  V  V33  1  0.48722558  0.13117169  0.12865171  1
  V  V34  1  0.87035018  0.12284010  0.75399050  1
  V  V35  1  0.61064185  0.62514907  0.49309361  1
  V  V36  1  0.27013941  0.13948305  0.37316715  1
  V  V37  1  0.62836247  0.24597073  0.87360590  1
  V  V38  1  0.26185877  -0.00154112  0.27321986  1
  V  V39  1  -0.00111803  0.62038543  0.62007071  1
  V  V40  1  0.50406413  0.87203259  0.86202528  1
  V  V41  1  0.74178433  0.87276068  0.61740781  1
  V  V42  1  0.87520651  0.49928669  0.87461285  1
  V  V43  1  0.00133689  0.35663596  0.36998956  1
  V  V44  1  0.49724937  0.50412365  0.00256557  1
  V  V45  1  0.36929053  0.74995824  0.63345508  1
  V  V46  1  -0.00224100  0.63998212  0.12999771  1
  V  V47  1  0.24924943  0.13003172  0.87373177  1
  V  V48  1  0.12502806  0.37383033  0.75046545  1
  V  V49  1  0.87852511  -0.00649151  0.37506536  1
  V  V50  1  0.62195614  0.62769677  0.00187217  1
  V  V51  1  0.19025758  0.94381588  0.68585295  1
  V  V52  1  0.49744469  0.12209616  0.62408867  1
  V  V53  1  0.00741275  -0.00764626  0.49903014  1
  V  V54  1  0.00114702  0.49946594  -0.00113081  1
  V  V55  1  0.24012852  0.88016172  0.12712761  1
  V  V56  1  0.00946190  0.86587554  0.86608252  1
  V  V57  1  0.49395185  0.87914723  0.36608962  1
  V  V58  1  0.61758637  0.50068461  0.61438776  1
  V  V59  1  0.88253640  0.75850564  0.61937067  1
  V  V60  1  0.74896493  0.37580571  0.62283448  1
  V  V61  1  0.62374314  0.37412563  0.74810992  1
  V  V62  1  0.49903207  0.00099257  0.00099364  1
  V  V63  1  0.87152789  0.37461141  0.00663600  1
  V  V64  1  0.62698390  0.11975696  0.50303327  1
  V  V65  1  0.00968836  0.12010622  0.62320376  1
  V  V66  1  0.49781630  0.63186934  0.64785428  1
  V  V67  1  0.12563384  0.36456470  0.24982954  1
  V  V68  1  0.74913050  0.11668336  0.36201157  1
  V  V69  1  0.24909382  0.51096690  0.25950190  1
  V  V70  1  0.12700016  0.62692792  -0.01089687  1
  V  V71  1  0.12671995  0.13806690  0.48257842  1
  V  V72  1  0.87786740  0.38289630  0.49821984  1
  V  V73  1  0.63400750  -0.00070291  0.12926727  1
  V  V74  1  0.88166223  0.50050681  0.35992059  1
  V  V75  1  0.25240235  0.25437093  0.01479393  1
  V  V76  1  0.01263631  0.12534309  0.13427778  1
  V  V77  1  0.74893517  0.63058321  0.87335831  1
  V  V78  1  0.87602462  -0.00192641  0.88101185  1
  Zn  Zn79  1  0.88827821  0.12792283  0.25476887  1
  Zn  Zn80  1  0.88108248  0.86626406  0.01940690  1
  Zn  Zn81  1  0.87718416  0.63974357  0.24411927  1
  Zn  Zn82  1  0.24017842  0.63377855  0.37476539  1
  Zn  Zn83  1  0.62490342  0.75770773  0.86377216  1
  Zn  Zn84  1  0.50182409  0.23630012  0.26008199  1
  Zn  Zn85  1  0.63222210  0.26321142  0.36359986  1
  Zn  Zn86  1  0.62864509  0.37486424  0.23912323  1
  Zn  Zn87  1  0.75223038  0.75097067  0.49643078  1
  Zn  Zn88  1  -0.00049341  0.37323098  0.87571306  1
  Zn  Zn89  1  0.12628977  0.25051228  0.87888570  1
  Zn  Zn90  1  0.61761355  -0.01008269  0.63376470  1
  Zn  Zn91  1  0.13036347  0.12618965  0.00264348  1
  Zn  Zn92  1  0.49575233  0.37539153  0.87259920  1
  Zn  Zn93  1  -0.00499093  0.85572999  0.38004001  1
  Zn  Zn94  1  0.19420658  0.18173228  0.19489741  1
  Zn  Zn95  1  0.18682155  0.18447808  0.68503918  1
  Zn  Zn96  1  0.18936214  0.69265028  0.17772456  1
  Zn  Zn97  1  0.18997750  0.69101093  0.68383985  1
  Zn  Zn98  1  0.68129198  0.18831095  0.18028318  1
  Zn  Zn99  1  0.68741979  0.18240910  0.68766243  1
  Zn  Zn100  1  0.68453684  0.68675138  0.18628496  1
  Zn  Zn101  1  0.68716179  0.69078127  0.68660357  1
  Zn  Zn102  1  0.31918527  0.33100832  0.31177308  1
  Zn  Zn103  1  0.31337096  0.31643195  0.81375367  1
  Zn  Zn104  1  0.31478977  0.80041288  0.30687007  1
  Zn  Zn105  1  0.30841338  0.81433240  0.80764631  1
  Zn  Zn106  1  0.80147040  0.31487326  0.31726182  1
  Zn  Zn107  1  0.81173057  0.31280657  0.81555901  1
  Zn  Zn108  1  0.81160533  0.81450907  0.31576706  1
  Zn  Zn109  1  0.81920213  0.81499390  0.81272880  1
  Zn  Zn110  1  0.19007643  0.43259169  0.43105924  1
  Zn  Zn111  1  0.18790427  0.43798641  0.93536586  1
  Zn  Zn112  1  0.14487619  0.86190961  0.50570793  1
  Zn  Zn113  1  0.18934197  0.93403695  0.93235516  1
  Zn  Zn114  1  0.69024515  0.43558314  0.42667660  1
  Zn  Zn115  1  0.68703832  0.43635876  0.93590074  1
  Zn  Zn116  1  0.68584959  0.93897729  0.43695918  1
  Zn  Zn117  1  0.68748240  0.93804871  0.93789808  1
  Zn  Zn118  1  0.30944178  0.06155584  0.06144474  1
  Zn  Zn119  1  0.30673645  0.05896687  0.55013810  1
  Zn  Zn120  1  0.31237188  0.56223560  0.06277555  1
  Zn  Zn121  1  0.30860520  0.56999955  0.56832101  1
  Zn  Zn122  1  0.84383913  0.02309475  0.09941836  1
  Zn  Zn123  1  0.82031692  0.05507383  0.56501932  1
  Zn  Zn124  1  0.81577895  0.56956814  0.06199732  1
  Zn  Zn125  1  0.80513974  0.56566382  0.55679017  1
  Zn  Zn126  1  0.42980726  0.45359232  0.18116165  1
  Zn  Zn127  1  0.43703001  0.43799033  0.68153523  1
  Zn  Zn128  1  0.43717885  0.93787516  0.18480471  1
  Zn  Zn129  1  0.42625087  0.93776525  0.68330517  1
  Zn  Zn130  1  0.94358185  0.43645913  0.18525767  1
  Zn  Zn131  1  0.93728979  0.43875076  0.68630165  1
  Zn  Zn132  1  0.94666955  0.92644845  0.19784817  1
  Zn  Zn133  1  0.93661915  0.94045692  0.68739723  1
  Zn  Zn134  1  0.07473678  0.04764429  0.31242819  1
  Zn  Zn135  1  0.06538928  0.05821605  0.81351559  1
  Zn  Zn136  1  0.06338755  0.56394974  0.31426947  1
  Zn  Zn137  1  0.06581129  0.56969144  0.80402076  1
  Zn  Zn138  1  0.56099031  0.06053373  0.31130886  1
  Zn  Zn139  1  0.55949365  0.06171213  0.81268868  1
  Zn  Zn140  1  0.57200559  0.56490183  0.30140000  1
  Zn  Zn141  1  0.56349775  0.55933762  0.81625591  1
  Zn  Zn142  1  0.44623374  0.19440962  0.43602701  1
  Zn  Zn143  1  0.43913896  0.18973435  0.93877441  1
  Zn  Zn144  1  0.42209467  0.69741324  0.42345966  1
  Zn  Zn145  1  0.43576869  0.68995865  0.93481365  1
  Zn  Zn146  1  0.93338149  0.18282746  0.43934069  1
  Zn  Zn147  1  0.93493843  0.18298458  0.94048822  1
  Zn  Zn148  1  0.93524120  0.68061636  0.44057268  1
  Zn  Zn149  1  0.93680597  0.68639627  0.93967103  1
  Zn  Zn150  1  0.06188111  0.31050161  0.06680795  1
  Zn  Zn151  1  0.06003880  0.31057960  0.56004768  1
  Zn  Zn152  1  0.06439205  0.81552061  0.05531182  1
  Zn  Zn153  1  0.06787616  0.80733910  0.69364169  1
  Zn  Zn154  1  0.55784368  0.31511435  0.06219079  1
  Zn  Zn155  1  0.56041206  0.30919477  0.55962809  1
  Zn  Zn156  1  0.56719628  0.81282101  0.05489506  1
  Zn  Zn157  1  0.55944496  0.80650574  0.56020232  1
  O  O158  1  0.11570192  0.13221165  0.12248790  1
  O  O159  1  0.11404147  0.12918949  0.61585188  1
  O  O160  1  0.11441804  0.61879926  0.11325250  1
  O  O161  1  0.11704827  0.61506697  0.61332954  1
  O  O162  1  0.61419465  0.11254492  0.11602906  1
  O  O163  1  0.61727640  0.12153467  0.61702986  1
  O  O164  1  0.63085324  0.61325189  0.11067721  1
  O  O165  1  0.61343238  0.62109001  0.61418416  1
  O  O166  1  0.36830818  0.37830818  0.40192790  1
  O  O167  1  0.37526535  0.38699095  0.88130155  1
  O  O168  1  0.39130877  0.86922872  0.38541246  1
  O  O169  1  0.37968896  0.88480992  0.88295623  1
  O  O170  1  0.88092089  0.38256455  0.37642503  1
  O  O171  1  0.87754906  0.38037746  0.88537356  1
  O  O172  1  0.87517609  0.89018631  0.37808669  1
  O  O173  1  0.88577507  0.88636090  0.87795561  1
  O  O174  1  0.26385730  0.00604962  0.37159130  1
  O  O175  1  0.26285470  0.01336404  0.88722783  1
  O  O176  1  0.24275680  0.51002231  0.36466701  1
  O  O177  1  0.25315837  0.49546675  0.85839979  1
  O  O178  1  0.76396859  0.00983947  0.38489587  1
  O  O179  1  0.75855709  -0.00709583  0.86243752  1
  O  O180  1  0.76107740  0.51153496  0.37412105  1
  O  O181  1  0.75534951  0.50840216  0.87017887  1
  O  O182  1  0.23325131  0.50586067  0.12921245  1
  O  O183  1  0.24086933  0.48931891  0.63511663  1
  O  O184  1  0.25290857  0.98218270  0.12056774  1
  O  O185  1  0.25133690  1.00031253  0.62805949  1
  O  O186  1  0.74261683  0.49922710  0.11760094  1
  O  O187  1  0.73975459  0.49622689  0.62825452  1
  O  O188  1  0.73066636  1.00799682  0.11812959  1
  O  O189  1  0.75486228  0.98506226  0.63392658  1
  O  O190  1  0.00783865  0.37697614  0.26235660  1
  O  O191  1  0.00633025  0.36569266  0.74850964  1
  O  O192  1  0.02415173  0.88253214  0.26418124  1
  O  O193  1  -0.00172499  0.87601662  0.75989458  1
  O  O194  1  0.47357772  0.37282850  0.24859311  1
  O  O195  1  0.50660703  0.36748157  0.74588902  1
  O  O196  1  0.50549081  0.88455295  0.26362477  1
  O  O197  1  0.49229675  0.88814377  0.76419569  1
  O  O198  1  0.50103432  0.11962945  0.23365390  1
  O  O199  1  0.48970672  0.12884965  0.74464661  1
  O  O200  1  0.46812345  0.61565506  0.27413294  1
  O  O201  1  0.49985412  0.62652204  0.74656222  1
  O  O202  1  1.00988794  0.11567287  0.23686222  1
  O  O203  1  0.99448418  0.13001089  0.74315809  1
  O  O204  1  1.00402113  0.62195766  0.23213012  1
  O  O205  1  0.98525841  0.61840258  0.73863735  1
  O  O206  1  0.36645425  0.26293494  -0.00527472  1
  O  O207  1  0.37964377  0.25141937  0.51404357  1
  O  O208  1  0.36552438  0.75657570  0.00336153  1
  O  O209  1  0.38954751  0.76698185  0.51201788  1
  O  O210  1  0.86790843  0.25428920  0.00450172  1
  O  O211  1  0.86509605  0.25483858  0.50585661  1
  O  O212  1  0.86096943  0.74992906  0.00018149  1
  O  O213  1  0.87136435  0.74354069  0.51558200  1
  O  O214  1  0.12278963  0.23772842  0.49888435  1
  O  O215  1  0.14044235  0.25426097  0.99902207  1
  O  O216  1  0.12728210  0.74423947  0.50615992  1
  O  O217  1  0.13926792  0.74344078  1.00264109  1
  O  O218  1  0.63640838  0.23912017  0.50230888  1
  O  O219  1  0.62987068  0.24577459  0.99360501  1
  O  O220  1  0.62746107  0.74246541  0.48785463  1
  O  O221  1  0.63519612  0.74318117  0.98858174  1
  O  O222  1  0.50291127  0.23208971  0.11891687  1
  O  O223  1  0.49164843  0.24092454  0.63025960  1
  O  O224  1  0.48888083  0.75029157  0.10627466  1
  O  O225  1  0.49875839  0.73530828  0.62601431  1
  O  O226  1  0.98892440  0.23329910  0.11713242  1
  O  O227  1  0.99461668  0.24312025  0.63539647  1
  O  O228  1  1.00459453  0.73906646  0.11699985  1
  O  O229  1  0.98515799  0.74103003  0.62934426  1
  O  O230  1  -0.01249559  0.25828369  0.36787717  1
  O  O231  1  0.00133271  0.24773301  0.86337493  1
  O  O232  1  -0.03592803  0.74672693  0.34926074  1
  O  O233  1  -0.00666403  0.76820890  0.88462895  1
  O  O234  1  0.52146356  0.24350030  0.37361211  1
  O  O235  1  0.50933180  0.25238513  0.86832796  1
  O  O236  1  0.51392363  0.76760878  0.37750930  1
  O  O237  1  0.49544344  0.76993118  0.87876681  1
  O  O238  1  0.23809346  0.12306319  0.48222368  1
  O  O239  1  0.25301796  0.13896282  0.99385818  1
  O  O240  1  0.22834362  0.61794118  0.50215965  1
  O  O241  1  0.24288956  0.63751332  1.00390761  1
  O  O242  1  0.74400364  0.12788563  0.50675065  1
  O  O243  1  0.73418393  0.13318907  0.99764232  1
  O  O244  1  0.73798271  0.62843270  0.48556707  1
  O  O245  1  0.74552546  0.63334386  0.99094276  1
  O  O246  1  0.25813101  0.36440757  -0.00572664  1
  O  O247  1  0.25557302  0.37920608  0.51346768  1
  O  O248  1  0.25512197  0.86776732  0.00599111  1
  O  O249  1  0.26387577  0.87419601  0.49412772  1
  O  O250  1  0.76072687  0.36554324  -0.00465450  1
  O  O251  1  0.75577353  0.36272172  0.50282685  1
  O  O252  1  0.75065707  0.86019378  -0.00740550  1
  O  O253  1  0.74955952  0.87639433  0.51356991  1
  O  O254  1  0.12689123  0.49461891  0.24318021  1
  O  O255  1  0.13207303  0.49136247  0.74227042  1
  O  O256  1  0.14866394  0.97781003  0.26016404  1
  O  O257  1  0.12767135  1.00371686  0.73847820  1
  O  O258  1  0.61825884  0.49640409  0.22641487  1
  O  O259  1  0.62976009  0.49453823  0.74018315  1
  O  O260  1  0.62280208  0.99066858  0.23691981  1
  O  O261  1  0.64198676  1.00824666  0.74997408  1
  O  O262  1  0.35952047  -0.00866025  0.24558575  1
  O  O263  1  0.37829639  0.01328821  0.75998996  1
  O  O264  1  0.34645878  0.49795837  0.24085743  1
  O  O265  1  0.36015381  0.49078509  0.75243314  1
  O  O266  1  0.88735095  0.00565822  0.27091260  1
  O  O267  1  0.86838846  0.00555677  0.75778707  1
  O  O268  1  0.87611945  0.49868883  0.25810501  1
  O  O269  1  0.86804955  0.50568841  0.75362897  1
  O  O270  1  0.10821043  0.37456272  0.36865891  1
  O  O271  1  0.12173319  0.37330616  0.86182819  1
  O  O272  1  0.12900958  0.86159386  0.38064105  1
  O  O273  1  0.10909874  0.87788727  0.87705357  1
  O  O274  1  0.55983278  0.42155659  0.38213380  1
  O  O275  1  0.62293307  0.36512518  0.86729181  1
  O  O276  1  0.62307976  0.87329274  0.36139249  1
  O  O277  1  0.60696025  0.88073787  0.87836434  1
  O  O278  1  0.38834838  0.12059121  0.11745695  1
  O  O279  1  0.37557375  0.12934852  0.62960557  1
  O  O280  1  0.37415098  0.63743707  0.11953684  1
  O  O281  1  0.39211475  0.63413360  0.62125538  1
  O  O282  1  0.88612955  0.12788254  0.13405574  1
  O  O283  1  0.88551571  0.13007341  0.63369761  1
  O  O284  1  0.89126026  0.62397444  0.12642529  1
  O  O285  1  0.87850981  0.62748477  0.62766801  1
  O  O286  1  0.25278700  0.24379801  0.11324645  1
  O  O287  1  0.25827748  0.25723656  0.63043760  1
  O  O288  1  0.26252498  0.76295035  0.11380937  1
  O  O289  1  0.27079920  0.73539681  0.61886753  1
  O  O290  1  0.75849812  0.24127051  0.10945373  1
  O  O291  1  0.75470646  0.25420380  0.62034039  1
  O  O292  1  0.74332149  0.74739005  0.10875559  1
  O  O293  1  0.75847262  0.76078513  0.62345036  1
  O  O294  1  0.26262577  0.23761212  0.35501256  1
  O  O295  1  0.25115121  0.24149335  0.88112057  1
  O  O296  1  0.31518088  0.71541397  0.37920122  1
  O  O297  1  0.25703597  0.75616345  0.89163633  1
  O  O298  1  0.75187799  0.22669653  0.38844594  1
  O  O299  1  0.73847426  0.25123773  0.88345826  1
  O  O300  1  0.73792084  0.74705464  0.37644186  1
  O  O301  1  0.75328949  0.73937328  0.87781058  1
  O  O302  1  0.00600280  0.11592845  0.00309438  1
  O  O303  1  0.00801498  0.12739891  0.50620147  1
  O  O304  1  0.00540712  0.61740653  0.00662698  1
  O  O305  1  0.00993143  0.62993428  0.51189891  1
  O  O306  1  0.50639432  0.11703468  0.00500463  1
  O  O307  1  0.50813935  0.11454467  0.50380338  1
  O  O308  1  0.51402699  0.61823669  -0.01406129  1
  O  O309  1  0.51079269  0.63016144  0.48356861  1
  O  O310  1  0.48488167  0.37949326  0.51589202  1
  O  O311  1  0.48604826  0.38208493  0.99635914  1
  O  O312  1  0.50580439  0.88395348  0.49086900  1
  O  O313  1  0.49264067  0.88612743  0.99296513  1
  O  O314  1  0.98729495  0.36529121  0.48560094  1
  O  O315  1  0.99359450  0.38291796  0.99805881  1
  O  O316  1  1.01740246  0.88992127  0.49256636  1
  O  O317  1  0.99846193  0.88980383  0.99478460  1
  O  O318  1  0.51371296  0.48113665  0.37268022  1
  O  O319  1  0.49219726  0.49610037  0.88271562  1
  O  O320  1  0.50729732  0.98884650  0.38487500  1
  O  O321  1  0.49016219  0.99701840  0.88336093  1
  O  O322  1  0.98378334  0.49639846  0.37469993  1
  O  O323  1  0.99484244  0.50215647  0.88555335  1
  O  O324  1  0.99174868  1.00618382  0.38594070  1
  O  O325  1  0.99515967  0.99479880  0.88314785  1
  O  O326  1  -0.00002252  0.01442187  0.11026626  1
  O  O327  1  -0.01062917  0.00959517  0.61061827  1
  O  O328  1  0.00713194  0.50570651  0.11226239  1
  O  O329  1  0.00820839  0.50854155  0.62878334  1
  O  O330  1  0.50520265  0.00592106  0.11398609  1
  O  O331  1  0.49983061  0.00374415  0.61793138  1
  O  O332  1  0.49993188  0.50397641  0.10567802  1
  O  O333  1  0.50969200  0.51544929  0.63078241  1
  O  O334  1  0.22979818  0.38973787  0.26196287  1
  O  O335  1  0.23869923  0.37620711  0.73999158  1
  O  O336  1  0.24940053  0.87782858  0.24391441  1
  O  O337  1  0.24522154  0.88807715  0.75083262  1
  O  O338  1  0.69736115  0.36258452  0.33469857  1
  O  O339  1  0.74503589  0.37876945  0.74283402  1
  O  O340  1  0.73811528  0.87540732  0.24837280  1
  O  O341  1  0.75581790  0.88655279  0.74160135  1
  O  O342  1  0.24638110  0.10961364  0.26498400  1
  O  O343  1  0.26087759  0.13224584  0.75897133  1
  O  O344  1  0.23332006  0.61438035  0.25089622  1
  O  O345  1  0.24909496  0.60588229  0.74021690  1
  O  O346  1  0.74277314  0.12383358  0.26230049  1
  O  O347  1  0.76296431  0.11023719  0.73841053  1
  O  O348  1  0.75829761  0.63904236  0.26159680  1
  O  O349  1  0.75735706  0.61831753  0.75456192  1
  O  O350  1  0.36838094  0.12686784  0.38478938  1
  O  O351  1  0.37052592  0.12143118  0.86843645  1
  O  O352  1  0.42280431  0.60696532  0.33566518  1
  O  O353  1  0.37682728  0.60913264  0.87874599  1
  O  O354  1  0.86282787  0.12116739  0.37083683  1
  O  O355  1  0.88070658  0.11585172  0.86182764  1
  O  O356  1  0.86969731  0.60980981  0.37510420  1
  O  O357  1  0.86872489  0.62012191  0.86687930  1
  O  O358  1  0.11226012  0.38505700  0.14036264  1
  O  O359  1  0.12739457  0.37679891  0.63111069  1
  O  O360  1  0.14015310  0.87117763  0.12398808  1
  O  O361  1  0.13195885  0.87839147  0.62411182  1
  O  O362  1  0.62497779  0.38999692  0.11773788  1
  O  O363  1  0.62927587  0.38139588  0.62669083  1
  O  O364  1  0.61824263  0.88593152  0.13309466  1
  O  O365  1  0.63818952  0.87148999  0.62404209  1
  O  O366  1  0.13156738  0.26617066  0.24254963  1
  O  O367  1  0.11609682  0.25653802  0.74868334  1
  O  O368  1  0.14157535  0.76759354  0.25114451  1
  O  O369  1  0.11331280  0.72495615  0.75183466  1
  O  O370  1  0.61824770  0.25886948  0.24143628  1
  O  O371  1  0.62167596  0.25154451  0.75520716  1
  O  O372  1  0.62482068  0.76474255  0.25278350  1
  O  O373  1  0.62241728  0.74493170  0.75458740  1
  O  O374  1  0.41322590  0.31003937  0.24327399  1
  O  O375  1  0.37999461  0.24230831  0.74278672  1
  O  O376  1  0.38342456  0.76143208  0.22473196  1
  O  O377  1  0.37556098  0.75961413  0.73362615  1
  O  O378  1  0.85862617  0.25447067  0.23582808  1
  O  O379  1  0.88048360  0.24366233  0.74786894  1
  O  O380  1  0.90369528  0.75032981  0.28555967  1
  O  O381  1  0.86619145  0.73693560  0.73707476  1
  O  O382  1  0.37316690  0.49516660  0.51205732  1
  O  O383  1  0.37591119  0.49278323  0.99123773  1
  O  O384  1  0.38701683  0.98425352  0.50580551  1
  O  O385  1  0.38192508  0.99461152  0.99225506  1
  O  O386  1  0.86601896  0.48614193  0.49295747  1
  O  O387  1  0.88176742  0.49339040  0.99701915  1
  O  O388  1  0.89172121  1.01011319  0.48786712  1
  O  O389  1  0.88627301  1.00799829  0.98746525  1
  O  O390  1  0.11439440  0.00231106  -0.00515470  1
  O  O391  1  0.10680210  0.01995869  0.49730123  1
  O  O392  1  0.11985152  0.50321308  0.00531250  1
  O  O393  1  0.12473934  0.48885252  0.51191231  1
  O  O394  1  0.61760036  0.00465890  0.00558998  1
  O  O395  1  0.61821905  0.00623331  0.50676050  1
  O  O396  1  0.61922875  0.50496474  0.00479922  1
  O  O397  1  0.63229547  0.50635436  0.50828966  1
  O  O398  1  0.36995762  0.38420008  0.10467621  1
  O  O399  1  0.36542832  0.36725011  0.62011667  1
  O  O400  1  0.37191957  0.87255826  0.10936401  1
  O  O401  1  0.37670088  0.86415065  0.61314362  1
  O  O402  1  0.88464287  0.36393285  0.11310795  1
  O  O403  1  0.87053059  0.37084265  0.61701270  1
  O  O404  1  0.86921062  0.91219001  0.12195804  1
  O  O405  1  0.87066328  0.86149482  0.62931204  1
  O  O406  1  0.12518761  0.12956564  0.38076744  1
  O  O407  1  0.13809373  0.12669319  0.87658672  1
  O  O408  1  0.11768416  0.62807802  0.39261510  1
  O  O409  1  0.12073309  0.61755770  0.89019044  1
  O  O410  1  0.64030762  0.11250387  0.38651925  1
  O  O411  1  0.61612398  0.13586625  0.88284314  1
  O  O412  1  0.63053359  0.63263619  0.37211961  1
  O  O413  1  0.63804938  0.61962829  0.88344699  1
