# generated using pymatgen
data_V79Zn79O256
_symmetry_space_group_name_H-M   'P 1'
_cell_length_a   16.88639838
_cell_length_b   16.89091073
_cell_length_c   16.91607604
_cell_angle_alpha   89.97375789
_cell_angle_beta   89.93361292
_cell_angle_gamma   90.22231569
_symmetry_Int_Tables_number   1
_chemical_formula_structural   V79Zn79O256
_chemical_formula_sum   'V79 Zn79 O256'
_cell_volume   4824.87558265
_cell_formula_units_Z   1
loop_
 _symmetry_equiv_pos_site_id
 _symmetry_equiv_pos_as_xyz
  1  'x, y, z'
loop_
 _atom_site_type_symbol
 _atom_site_label
 _atom_site_symmetry_multiplicity
 _atom_site_fract_x
 _atom_site_fract_y
 _atom_site_fract_z
 _atom_site_occupancy
  V  V0  1  0.36937194  0.63588860  0.73873353  1
  V  V1  1  0.37013071  0.00197812  0.88552639  1
  V  V2  1  0.62620631  0.24776759  0.38142822  1
  V  V3  1  0.13234359  0.63408746  0.00633249  1
  V  V4  1  0.24494283  0.63678806  0.87312946  1
  V  V5  1  0.50814553  0.11727602  0.12209072  1
  V  V6  1  0.73391215  0.63440845  0.87124179  1
  V  V7  1  0.86612531  0.12456599  0.77220288  1
  V  V8  1  0.87888151  0.50328776  0.37855096  1
  V  V9  1  0.37819579  0.12094404  0.25266570  1
  V  V10  1  0.12499820  0.25041058  0.36613950  1
  V  V11  1  0.74937536  0.12487357  0.38075660  1
  V  V12  1  0.25096672  0.12107189  0.37745456  1
  V  V13  1  0.36311922  0.61913758  0.26696877  1
  V  V14  1  0.25217005  -0.00410639  0.25227065  1
  V  V15  1  -0.00633632  0.73920552  0.24400914  1
  V  V16  1  0.26113990  0.73878741  0.49889904  1
  V  V17  1  0.12697443  0.47139829  0.13117534  1
  V  V18  1  0.87168972  0.38824072  0.00170483  1
  V  V19  1  0.49148439  0.74898217  0.24804975  1
  V  V20  1  0.51497640  0.11839671  0.62486881  1
  V  V21  1  0.75681695  0.50945047  0.74653281  1
  V  V22  1  0.12374328  0.12027131  -0.01507870  1
  V  V23  1  0.25034589  0.86542653  0.61585155  1
  V  V24  1  0.87640857  0.24285953  0.12434256  1
  V  V25  1  0.00173806  0.87137213  0.37232755  1
  V  V26  1  0.50271924  0.50942407  0.49030931  1
  V  V27  1  0.25014485  0.47559891  0.25768843  1
  V  V28  1  0.88589803  0.74607325  0.64497940  1
  V  V29  1  0.37162735  0.24946743  0.12763093  1
  V  V30  1  0.86846218  0.52422836  0.88533280  1
  V  V31  1  0.51670862  0.00245405  0.50414319  1
  V  V32  1  0.50220652  0.25227958  0.25585429  1
  V  V33  1  0.37080330  0.37323880  0.00558780  1
  V  V34  1  0.50389144  0.86619125  0.87543499  1
  V  V35  1  0.04714376  0.82298420  0.81624082  1
  V  V36  1  0.61829877  0.50144940  0.12167153  1
  V  V37  1  0.74585479  0.88334105  0.63526857  1
  V  V38  1  0.75591056  0.25048923  0.50504324  1
  V  V39  1  0.62655726  0.12815651  -0.02231285  1
  V  V40  1  0.75059133  0.74553271  0.49783541  1
  V  V41  1  0.50467742  0.24954960  0.75581092  1
  V  V42  1  0.75421886  0.37502061  0.62439511  1
  V  V43  1  0.12503872  0.11877368  0.50989141  1
  V  V44  1  -0.01263723  -0.00701143  -0.00538376  1
  V  V45  1  0.62551113  0.74156063  0.37900962  1
  V  V46  1  0.87416687  0.74269246  0.12145542  1
  V  V47  1  0.12027323  0.00662467  0.12574752  1
  V  V48  1  0.13976303  0.48876780  0.62799320  1
  V  V49  1  0.75581616  0.87527063  0.12257143  1
  V  V50  1  0.61590996  0.63161071  -0.00041562  1
  V  V51  1  0.37044094  0.85181405  0.00235798  1
  V  V52  1  0.04071636  0.48581556  -0.04626625  1
  V  V53  1  0.00257010  0.37247951  0.37212824  1
  V  V54  1  0.62113826  0.37711069  0.25701878  1
  V  V55  1  0.25206134  0.23310428  -0.00949833  1
  V  V56  1  0.74323384  0.75581898  -0.00286869  1
  V  V57  1  0.36794775  0.49527225  0.85987851  1
  V  V58  1  0.61852493  0.51829083  0.62087361  1
  V  V59  1  0.24006674  -0.01105815  0.74345370  1
  V  V60  1  0.38717119  0.37575491  0.48730528  1
  V  V61  1  -0.00475252  0.60221412  0.62332987  1
  V  V62  1  0.37673083  0.24958672  0.62570965  1
  V  V63  1  0.12429629  0.87015229  0.24813257  1
  V  V64  1  0.87836999  0.87012698  0.49927891  1
  V  V65  1  0.87847615  0.00403537  0.37144399  1
  V  V66  1  -0.01242914  0.12667874  0.63169766  1
  V  V67  1  0.62356092  0.87703562  0.24968383  1
  V  V68  1  0.75554849  0.50753308  0.24969446  1
  V  V69  1  0.75313323  0.00639355  0.24864984  1
  V  V70  1  0.36636130  0.12131643  0.75181845  1
  V  V71  1  0.48410643  0.62722849  0.12618927  1
  V  V72  1  0.25306463  0.86163749  0.12217970  1
  V  V73  1  0.74611239  0.37432583  0.12133926  1
  V  V74  1  0.50754305  0.74934070  0.74006535  1
  V  V75  1  0.37688530  -0.00447356  0.38688698  1
  V  V76  1  0.62296932  0.37541287  0.74934222  1
  V  V77  1  0.25202895  0.25445685  0.50084444  1
  V  V78  1  0.49763424  0.87470528  0.38419255  1
  Zn  Zn79  1  0.88056686  0.37779392  0.50632617  1
  Zn  Zn80  1  0.13433801  0.73366524  0.37471224  1
  Zn  Zn81  1  0.12224468  0.61882235  0.49546428  1
  Zn  Zn82  1  0.75514029  0.23852806  -0.03624125  1
  Zn  Zn83  1  0.05709198  0.32515833  0.82951424  1
  Zn  Zn84  1  0.24713246  0.37116057  0.64662726  1
  Zn  Zn85  1  0.01034427  -0.00812673  0.50546767  1
  Zn  Zn86  1  0.75859271  0.62849763  0.37016750  1
  Zn  Zn87  1  0.49264888  0.49837328  -0.00098706  1
  Zn  Zn88  1  0.72712664  -0.00426707  0.76911558  1
  Zn  Zn89  1  0.93715413  0.29932048  0.67710555  1
  Zn  Zn90  1  -0.00461106  0.60773620  0.11633620  1
  Zn  Zn91  1  -0.00260206  0.23833201  0.24038456  1
  Zn  Zn92  1  0.50135353  0.37399039  0.87814021  1
  Zn  Zn93  1  0.62313856  -0.00389078  0.11266851  1
  Zn  Zn94  1  0.19014724  0.18632213  0.18808179  1
  Zn  Zn95  1  0.18388823  0.19231019  0.69408050  1
  Zn  Zn96  1  0.18378538  0.68101332  0.18880708  1
  Zn  Zn97  1  0.17428206  0.69045126  0.68665201  1
  Zn  Zn98  1  0.69176752  0.19042778  0.18846702  1
  Zn  Zn99  1  0.69615701  0.18897363  0.69913086  1
  Zn  Zn100  1  0.68108753  0.68912703  0.18730539  1
  Zn  Zn101  1  0.69123101  0.70115317  0.68616323  1
  Zn  Zn102  1  0.31642284  0.30802722  0.31695811  1
  Zn  Zn103  1  0.31256061  0.30440595  0.81634766  1
  Zn  Zn104  1  0.31189220  0.81048089  0.31626782  1
  Zn  Zn105  1  0.31024937  0.81497935  0.80997790  1
  Zn  Zn106  1  0.81319054  0.31626791  0.30936640  1
  Zn  Zn107  1  0.85432170  0.31997029  0.81522030  1
  Zn  Zn108  1  0.81457610  0.81274319  0.30892512  1
  Zn  Zn109  1  0.87780665  0.94706457  0.85690432  1
  Zn  Zn110  1  0.18418802  0.43934224  0.44260814  1
  Zn  Zn111  1  0.20308933  0.43309058  0.94014658  1
  Zn  Zn112  1  0.18934631  0.92794523  0.44242878  1
  Zn  Zn113  1  0.18888912  0.93122213  0.93386352  1
  Zn  Zn114  1  0.68895144  0.43993132  0.43949009  1
  Zn  Zn115  1  0.71575307  0.39953853  0.90404034  1
  Zn  Zn116  1  0.69135655  0.93216767  0.43892249  1
  Zn  Zn117  1  0.68694707  0.94431531  0.93515563  1
  Zn  Zn118  1  0.31196472  0.05776710  0.06990592  1
  Zn  Zn119  1  0.31362377  0.06063737  0.56794420  1
  Zn  Zn120  1  0.30267786  0.55560743  0.06636134  1
  Zn  Zn121  1  0.31053093  0.55455342  0.56058389  1
  Zn  Zn122  1  0.80229133  0.06280841  0.05118137  1
  Zn  Zn123  1  0.81345402  0.06099448  0.55816391  1
  Zn  Zn124  1  0.80038055  0.56989987  0.06488409  1
  Zn  Zn125  1  0.81465488  0.56523410  0.56154396  1
  Zn  Zn126  1  0.43293612  0.43732694  0.19095901  1
  Zn  Zn127  1  0.43956390  0.43788785  0.67969723  1
  Zn  Zn128  1  0.43448047  0.93426458  0.18708436  1
  Zn  Zn129  1  0.43376404  0.93272589  0.68890163  1
  Zn  Zn130  1  0.94147464  0.42886469  0.19422699  1
  Zn  Zn131  1  0.98558691  0.47839096  0.74372804  1
  Zn  Zn132  1  0.93752772  0.93880877  0.18432068  1
  Zn  Zn133  1  0.94149675  0.94199352  0.68456355  1
  Zn  Zn134  1  0.06141575  0.06704221  0.31204330  1
  Zn  Zn135  1  0.05089474  0.05115987  0.80751971  1
  Zn  Zn136  1  0.06760310  0.55384585  0.30569946  1
  Zn  Zn137  1  0.05410560  0.65127129  0.81327752  1
  Zn  Zn138  1  0.56482373  0.06342007  0.31396172  1
  Zn  Zn139  1  0.55138412  0.04975302  0.81023744  1
  Zn  Zn140  1  0.55801395  0.56183692  0.31057068  1
  Zn  Zn141  1  0.55423563  0.56176685  0.80908116  1
  Zn  Zn142  1  0.44159930  0.18324355  0.44124361  1
  Zn  Zn143  1  0.43978032  0.18279487  0.93864821  1
  Zn  Zn144  1  0.43594967  0.68765973  0.44029582  1
  Zn  Zn145  1  0.43365651  0.68289736  0.93058467  1
  Zn  Zn146  1  0.93969705  0.18811128  0.43896718  1
  Zn  Zn147  1  0.94669675  0.19206328  0.94449751  1
  Zn  Zn148  1  0.94747450  0.68272086  0.43739013  1
  Zn  Zn149  1  0.89785728  0.74980161  0.89619482  1
  Zn  Zn150  1  0.05303152  0.30481432  0.03401024  1
  Zn  Zn151  1  0.06467078  0.31249702  0.55236198  1
  Zn  Zn152  1  0.06081022  0.81356634  0.05914990  1
  Zn  Zn153  1  0.07382103  0.80596019  0.56949619  1
  Zn  Zn154  1  0.56136947  0.30670672  0.05948751  1
  Zn  Zn155  1  0.56777892  0.31319346  0.56802465  1
  Zn  Zn156  1  0.55555478  0.81563813  0.06290476  1
  Zn  Zn157  1  0.56397958  0.81111337  0.56444759  1
  O  O158  1  0.13451961  0.10752448  0.12535164  1
  O  O159  1  0.12522606  0.13145752  0.61261312  1
  O  O160  1  0.12525383  0.61727633  0.11372457  1
  O  O161  1  0.11304811  0.60813587  0.62625322  1
  O  O162  1  0.61375512  0.12458652  0.13130994  1
  O  O163  1  0.61247387  0.12848354  0.63344205  1
  O  O164  1  0.61114793  0.61962969  0.12148810  1
  O  O165  1  0.63149217  0.61656485  0.62299333  1
  O  O166  1  0.38468585  0.36772375  0.38828157  1
  O  O167  1  0.37340000  0.38399612  0.87775819  1
  O  O168  1  0.38845424  0.88422352  0.36831751  1
  O  O169  1  0.37223120  0.87716638  0.89113583  1
  O  O170  1  0.88103787  0.38177888  0.37644025  1
  O  O171  1  0.86737533  0.40499361  0.89503997  1
  O  O172  1  0.88261881  0.88205287  0.37775570  1
  O  O173  1  0.93426442  0.85059009  0.85262882  1
  O  O174  1  0.25932251  -0.00080535  0.37286683  1
  O  O175  1  0.26424696  -0.00997865  0.86253221  1
  O  O176  1  0.24448781  0.48814722  0.35763074  1
  O  O177  1  0.26456793  0.50265095  0.87335458  1
  O  O178  1  0.75644563  0.00495811  0.36955291  1
  O  O179  1  0.77176217  -0.01954980  0.87332862  1
  O  O180  1  0.75853107  0.50190953  0.36728651  1
  O  O181  1  0.75246965  0.51288101  0.86757823  1
  O  O182  1  0.23624511  0.49529256  0.13811751  1
  O  O183  1  0.24504009  0.49193443  0.63664877  1
  O  O184  1  0.24351809  0.98809126  0.13416298  1
  O  O185  1  0.25199981  0.99511741  0.63771348  1
  O  O186  1  0.73729011  0.49781828  0.13258191  1
  O  O187  1  0.74197331  0.49868086  0.62741358  1
  O  O188  1  0.74710028  0.99312862  0.13261085  1
  O  O189  1  0.75765460  0.98445955  0.61725376  1
  O  O190  1  -0.00521304  0.35606702  0.26639654  1
  O  O191  1  -0.03409661  0.36412928  0.76758671  1
  O  O192  1  0.00728147  0.86910151  0.25235850  1
  O  O193  1  0.02425479  0.88912165  0.74071675  1
  O  O194  1  0.50840380  0.36387742  0.24514539  1
  O  O195  1  0.50584811  0.36493779  0.74319724  1
  O  O196  1  0.50474306  0.86839683  0.25708304  1
  O  O197  1  0.48767993  0.85975718  0.76334989  1
  O  O198  1  0.49802455  0.13203863  0.24443359  1
  O  O199  1  0.48927905  0.12993674  0.73872414  1
  O  O200  1  0.48755380  0.62894202  0.24520709  1
  O  O201  1  0.48175292  0.63807823  0.75804285  1
  O  O202  1  1.00095971  0.12761489  0.24472027  1
  O  O203  1  0.99569509  0.12807210  0.73731893  1
  O  O204  1  1.00773253  0.63837340  0.24069034  1
  O  O205  1  0.99362096  0.60675232  0.73017482  1
  O  O206  1  0.37001503  0.24792645  0.00824021  1
  O  O207  1  0.37344113  0.25514090  0.50606750  1
  O  O208  1  0.36889367  0.75337577  0.00093836  1
  O  O209  1  0.36261173  0.74665328  0.50105605  1
  O  O210  1  0.86672846  0.27152778  0.00770392  1
  O  O211  1  0.85941787  0.25234081  0.49435324  1
  O  O212  1  0.85298807  0.75482057  0.00778271  1
  O  O213  1  0.87023633  0.76103008  0.49139824  1
  O  O214  1  0.13771471  0.23990169  0.48972062  1
  O  O215  1  0.14464317  0.22991549  1.01171958  1
  O  O216  1  0.13744820  0.74381779  0.49625026  1
  O  O217  1  0.12118150  0.73269077  1.00572901  1
  O  O218  1  0.63281281  0.25827757  0.48671618  1
  O  O219  1  0.62743152  0.23460520  1.00122373  1
  O  O220  1  0.63619943  0.75786854  0.48815166  1
  O  O221  1  0.62718481  0.73938004  1.01090425  1
  O  O222  1  0.49436832  0.23871469  0.13756603  1
  O  O223  1  0.49486467  0.23867188  0.63062674  1
  O  O224  1  0.50279688  0.74150110  0.13979447  1
  O  O225  1  0.49838805  0.75771784  0.63978390  1
  O  O226  1  0.98005264  0.26144585  0.11647870  1
  O  O227  1  1.00600329  0.23539187  0.61514345  1
  O  O228  1  0.98838850  0.75232980  0.12785422  1
  O  O229  1  0.98747124  0.75371544  0.62791574  1
  O  O230  1  0.00972072  0.25275224  0.37367748  1
  O  O231  1  0.01964222  0.27478513  0.92491668  1
  O  O232  1  -0.00648583  0.76201811  0.36123790  1
  O  O233  1  0.00884665  0.73369246  0.87664187  1
  O  O234  1  0.51029580  0.23930934  0.36462997  1
  O  O235  1  0.48976585  0.25201115  0.85892170  1
  O  O236  1  0.50530231  0.75703423  0.37116814  1
  O  O237  1  0.49243606  0.75988495  0.86909771  1
  O  O238  1  0.24581613  0.13254870  0.49793375  1
  O  O239  1  0.24516387  0.12589116  1.00400599  1
  O  O240  1  0.25005088  0.63466325  0.50669625  1
  O  O241  1  0.24092346  0.61904901  0.99067660  1
  O  O242  1  0.75065631  0.13249979  0.48908249  1
  O  O243  1  0.73456585  0.12822107  0.98729387  1
  O  O244  1  0.75775797  0.64157740  0.49345241  1
  O  O245  1  0.73264363  0.63458299  0.99549177  1
  O  O246  1  0.26222314  0.35201727  -0.00333650  1
  O  O247  1  0.26550875  0.36235489  0.49529312  1
  O  O248  1  0.26110020  0.87662498  0.00822386  1
  O  O249  1  0.25572877  0.86489898  0.50782021  1
  O  O250  1  0.75439183  0.38971966  0.01368565  1
  O  O251  1  0.74979653  0.36879256  0.50842758  1
  O  O252  1  0.73049703  0.86668448  0.01541889  1
  O  O253  1  0.76235922  0.86531445  0.50031933  1
  O  O254  1  0.13894087  0.48818040  0.24265750  1
  O  O255  1  0.10341247  0.48335430  0.72243140  1
  O  O256  1  0.13004363  0.99026959  0.24187032  1
  O  O257  1  0.14451834  1.01314571  0.75686399  1
  O  O258  1  0.62675162  0.49345766  0.24294787  1
  O  O259  1  0.62630837  0.50002879  0.73467852  1
  O  O260  1  0.63415804  0.98948064  0.25405910  1
  O  O261  1  0.61951128  0.99924918  0.74150095  1
  O  O262  1  0.37241608  0.00237331  0.26101873  1
  O  O263  1  0.36472079  0.00680001  0.75515998  1
  O  O264  1  0.36125086  0.50954936  0.24502432  1
  O  O265  1  0.37875992  0.50488311  0.75719226  1
  O  O266  1  0.86356472  -0.00987979  0.25913379  1
  O  O267  1  0.88744309  0.01811319  0.75615454  1
  O  O268  1  0.86201298  0.49161389  0.25790848  1
  O  O269  1  0.85970251  0.50468024  0.76490746  1
  O  O270  1  0.11225335  0.36533119  0.38218163  1
  O  O271  1  0.09819029  0.42503041  0.88983930  1
  O  O272  1  0.11629640  0.87796043  0.36264420  1
  O  O273  1  0.11363734  0.86990730  0.87658353  1
  O  O274  1  0.63359666  0.36647854  0.36280859  1
  O  O275  1  0.61382006  0.39648005  0.85293166  1
  O  O276  1  0.61703358  0.86840784  0.36621226  1
  O  O277  1  0.60154808  0.87970933  0.88665347  1
  O  O278  1  0.38759110  0.12749863  0.13225786  1
  O  O279  1  0.38034020  0.13512352  0.63128564  1
  O  O280  1  0.38169145  0.61970084  0.12937667  1
  O  O281  1  0.36695575  0.61760823  0.64183948  1
  O  O282  1  0.86197775  0.14550634  0.10894857  1
  O  O283  1  0.88610975  0.12793145  0.61971860  1
  O  O284  1  0.87927798  0.63680495  0.11561328  1
  O  O285  1  0.88267490  0.63752182  0.62070710  1
  O  O286  1  0.26822330  0.23830860  0.12125487  1
  O  O287  1  0.25934286  0.24827944  0.61541073  1
  O  O288  1  0.24542107  0.76292364  0.13240905  1
  O  O289  1  0.24344394  0.75605281  0.61667435  1
  O  O290  1  0.75303100  0.26667238  0.12501271  1
  O  O291  1  0.73820348  0.25991019  0.61472316  1
  O  O292  1  0.75321555  0.75514792  0.12184467  1
  O  O293  1  0.76579551  0.75673581  0.61595351  1
  O  O294  1  0.24774620  0.24187563  0.38311036  1
  O  O295  1  0.26005358  0.23407655  0.89174477  1
  O  O296  1  0.24891222  0.75505974  0.39084846  1
  O  O297  1  0.25291069  0.73561392  0.87768029  1
  O  O298  1  0.74546806  0.24338617  0.37899016  1
  O  O299  1  0.75522278  0.29600915  0.86900943  1
  O  O300  1  0.74327006  0.75087984  0.37725338  1
  O  O301  1  0.74758596  0.74181547  0.88854114  1
  O  O302  1  0.01871964  0.11232157  0.00442379  1
  O  O303  1  0.01623819  0.12502882  0.50229021  1
  O  O304  1  0.02801459  0.59161703  -0.00459332  1
  O  O305  1  0.00309686  0.63327263  0.52032432  1
  O  O306  1  0.50806155  0.13047601  0.01698342  1
  O  O307  1  0.50095058  0.11906300  0.51595395  1
  O  O308  1  0.50049003  0.62603508  0.00900919  1
  O  O309  1  0.49305975  0.60845940  0.49892487  1
  O  O310  1  0.48971995  0.37494783  0.50790372  1
  O  O311  1  0.48661308  0.37143975  0.99665181  1
  O  O312  1  0.50543713  0.88244196  0.48958912  1
  O  O313  1  0.48131140  0.86780995  0.99223818  1
  O  O314  1  0.99263413  0.36504723  0.48057605  1
  O  O315  1  0.98769388  0.41524211  1.00629053  1
  O  O316  1  0.99654009  0.87251371  0.48844068  1
  O  O317  1  1.00405598  0.89377607  1.00611569  1
  O  O318  1  0.51127168  0.49500939  0.39075121  1
  O  O319  1  0.48052421  0.50110720  0.87993181  1
  O  O320  1  0.49660018  0.99534536  0.38302864  1
  O  O321  1  0.47666816  0.97904187  0.86590490  1
  O  O322  1  0.98831009  0.48356159  0.36217528  1
  O  O323  1  0.97585461  0.51807440  0.86942708  1
  O  O324  1  0.99401925  0.98884242  0.37343229  1
  O  O325  1  0.99026158  1.00310018  0.89124468  1
  O  O326  1  0.01639304  -0.00319254  0.12124766  1
  O  O327  1  -0.00025265  0.02053019  0.61706062  1
  O  O328  1  0.02108634  0.49763462  0.14497460  1
  O  O329  1  -0.01455929  0.50270499  0.61496815  1
  O  O330  1  0.50195542  0.01336954  0.13394442  1
  O  O331  1  0.49384722  0.01060594  0.61885357  1
  O  O332  1  0.50340575  0.50870597  0.12768484  1
  O  O333  1  0.51356906  0.50163778  0.61805264  1
  O  O334  1  0.26248466  0.37681842  0.24591273  1
  O  O335  1  0.21717327  0.34182195  0.76030500  1
  O  O336  1  0.24332426  0.87647939  0.24606034  1
  O  O337  1  0.24467424  0.88344394  0.74448586  1
  O  O338  1  0.73861124  0.38526317  0.24045171  1
  O  O339  1  0.74027259  0.39296369  0.73974620  1
  O  O340  1  0.74081423  0.88078650  0.24293936  1
  O  O341  1  0.75884957  0.87992627  0.73390156  1
  O  O342  1  0.25796916  0.11603898  0.25787115  1
  O  O343  1  0.26230952  0.12181439  0.74507886  1
  O  O344  1  0.26203755  0.62726901  0.25263292  1
  O  O345  1  0.25650189  0.62981460  0.76271924  1
  O  O346  1  0.74670867  0.11345952  0.25866977  1
  O  O347  1  0.76221649  0.11358388  0.75169422  1
  O  O348  1  0.74230591  0.61296356  0.24977579  1
  O  O349  1  0.73549421  0.62085237  0.76071953  1
  O  O350  1  0.37232679  0.11579007  0.37244848  1
  O  O351  1  0.38441572  0.10978334  0.86646200  1
  O  O352  1  0.37721692  0.61851819  0.36479867  1
  O  O353  1  0.36225794  0.61271101  0.87042097  1
  O  O354  1  0.86725912  0.11238043  0.38117168  1
  O  O355  1  0.87872922  0.13414862  0.87204524  1
  O  O356  1  0.88207708  0.60776368  0.37267710  1
  O  O357  1  0.85289185  0.62724200  0.88187598  1
  O  O358  1  0.11847376  0.37393403  0.11407868  1
  O  O359  1  0.13339572  0.38154866  0.60897827  1
  O  O360  1  0.13251671  0.88166862  0.13212442  1
  O  O361  1  0.14508710  0.88181297  0.61746924  1
  O  O362  1  0.62682393  0.38201639  0.13142288  1
  O  O363  1  0.63347605  0.38535785  0.63236283  1
  O  O364  1  0.62661187  0.87638310  0.13672973  1
  O  O365  1  0.64679571  0.86508529  0.62024493  1
  O  O366  1  0.13264351  0.24711505  0.26396304  1
  O  O367  1  0.15162380  0.28203867  0.76299569  1
  O  O368  1  0.11587157  0.75910000  0.24945808  1
  O  O369  1  0.10651275  0.74946430  0.75994587  1
  O  O370  1  0.62090164  0.25813537  0.25710080  1
  O  O371  1  0.61608825  0.26190645  0.74345292  1
  O  O372  1  0.61513699  0.75883523  0.25762443  1
  O  O373  1  0.60714437  0.74125148  0.75260807  1
  O  O374  1  0.38406413  0.24236695  0.24726666  1
  O  O375  1  0.38129598  0.24298527  0.74259789  1
  O  O376  1  0.38451591  0.73789353  0.25878272  1
  O  O377  1  0.37502551  0.73910065  0.74996341  1
  O  O378  1  0.86810504  0.25549707  0.22846286  1
  O  O379  1  0.87078167  0.22857510  0.74498822  1
  O  O380  1  0.88169634  0.75413493  0.23608550  1
  O  O381  1  0.87352481  0.74611513  0.74041947  1
  O  O382  1  0.38768752  0.48372712  0.50715044  1
  O  O383  1  0.36954997  0.48528910  0.99856581  1
  O  O384  1  0.38375998  1.00560427  0.48963856  1
  O  O385  1  0.37022328  1.00265644  0.98698963  1
  O  O386  1  0.86710946  0.49636192  0.48229852  1
  O  O387  1  0.86521038  0.50952037  0.99140333  1
  O  O388  1  0.87822988  0.98653619  0.48716499  1
  O  O389  1  0.88828479  1.00111528  1.01170100  1
  O  O390  1  0.12905166  0.00629374  0.01038210  1
  O  O391  1  0.13088403  0.01591809  0.49384360  1
  O  O392  1  0.13488721  0.49619681  0.01760208  1
  O  O393  1  0.13155736  0.50422147  0.51668518  1
  O  O394  1  0.62559050  0.02040576  0.00030179  1
  O  O395  1  0.61612116  -0.00034029  0.49439027  1
  O  O396  1  0.61766153  0.51120622  0.01576782  1
  O  O397  1  0.61550274  0.49527740  0.51101063  1
  O  O398  1  0.38331303  0.36071299  0.11751521  1
  O  O399  1  0.36979845  0.36106323  0.62387415  1
  O  O400  1  0.36920384  0.87804075  0.11124996  1
  O  O401  1  0.35325410  0.87707584  0.63207966  1
  O  O402  1  0.86367128  0.38397846  0.11697791  1
  O  O403  1  0.85881280  0.37349428  0.62549565  1
  O  O404  1  0.86043367  0.86834880  0.12764050  1
  O  O405  1  0.87424906  0.86560512  0.61534699  1
  O  O406  1  0.13308824  0.13090570  0.38417752  1
  O  O407  1  0.12471414  0.11692166  0.88705166  1
  O  O408  1  0.10408726  0.62526682  0.38114977  1
  O  O409  1  0.13938940  0.61355389  0.88585282  1
  O  O410  1  0.63673211  0.13570598  0.37006181  1
  O  O411  1  0.60471414  0.12581936  0.88060134  1
  O  O412  1  0.62435350  0.63941982  0.36770324  1
  O  O413  1  0.62364763  0.61705685  0.88867104  1
