# generated using pymatgen
data_V79Zn79O256
_symmetry_space_group_name_H-M   'P 1'
_cell_length_a   16.88396078
_cell_length_b   16.87748040
_cell_length_c   16.88017676
_cell_angle_alpha   90.09448057
_cell_angle_beta   89.95812093
_cell_angle_gamma   89.95681684
_symmetry_Int_Tables_number   1
_chemical_formula_structural   V79Zn79O256
_chemical_formula_sum   'V79 Zn79 O256'
_cell_volume   4810.14432037
_cell_formula_units_Z   1
loop_
 _symmetry_equiv_pos_site_id
 _symmetry_equiv_pos_as_xyz
  1  'x, y, z'
loop_
 _atom_site_type_symbol
 _atom_site_label
 _atom_site_symmetry_multiplicity
 _atom_site_fract_x
 _atom_site_fract_y
 _atom_site_fract_z
 _atom_site_occupancy
  V  V0  1  0.11476065  0.38058375  0.75398455  1
  V  V1  1  0.76070845  0.00764199  0.25060969  1
  V  V2  1  0.49547162  -0.00087963  -0.00803544  1
  V  V3  1  0.39045322  0.73772814  0.63395134  1
  V  V4  1  0.24743641  0.25648854  0.50604571  1
  V  V5  1  0.25271258  0.01014848  0.25071982  1
  V  V6  1  0.25247712  0.37720166  0.63465555  1
  V  V7  1  0.49593262  0.37537531  0.87755152  1
  V  V8  1  -0.00269249  -0.00266844  0.50805611  1
  V  V9  1  0.11575963  0.61982312  0.51251028  1
  V  V10  1  0.12072068  0.12275554  -0.00084615  1
  V  V11  1  0.50151870  0.87028777  0.37303772  1
  V  V12  1  0.88043471  0.23573247  0.62511491  1
  V  V13  1  0.89132956  0.87413298  -0.00661841  1
  V  V14  1  -0.00346845  0.62311751  0.12445244  1
  V  V15  1  -0.00551971  0.22175105  0.75391319  1
  V  V16  1  0.36487242  0.51225207  0.87963752  1
  V  V17  1  0.62721186  0.75143042  0.85210157  1
  V  V18  1  0.62234424  0.00137366  0.12651315  1
  V  V19  1  0.74842369  -0.00758116  0.75251864  1
  V  V20  1  0.50771797  0.13396114  0.61920828  1
  V  V21  1  0.89160030  0.49878269  0.37988075  1
  V  V22  1  0.24886025  0.51364976  0.75290422  1
  V  V23  1  -0.00646734  0.48325197  -0.00044422  1
  V  V24  1  0.12770336  0.74905754  0.37146007  1
  V  V25  1  0.49003063  0.13250880  0.13890431  1
  V  V26  1  -0.00416640  0.87829920  0.37302255  1
  V  V27  1  0.37581470  0.12364056  0.74325643  1
  V  V28  1  0.75229865  0.50483630  0.75347490  1
  V  V29  1  0.25344892  0.74672975  -0.00025067  1
  V  V30  1  0.49282705  0.36867980  0.36629563  1
  V  V31  1  0.12255004  0.12812890  0.49996633  1
  V  V32  1  0.14691300  0.00412766  0.62264719  1
  V  V33  1  0.12713498  -0.00309169  0.11969613  1
  V  V34  1  0.25482040  0.62382707  0.36318609  1
  V  V35  1  0.75630379  0.74964792  0.48548622  1
  V  V36  1  0.00019818  0.74943224  0.24508644  1
  V  V37  1  -0.00953862  0.11673668  0.12685661  1
  V  V38  1  0.74785827  0.87391837  0.11476045  1
  V  V39  1  0.38634921  0.73600080  0.13615209  1
  V  V40  1  0.36982515  0.38146417  0.50653200  1
  V  V41  1  0.75312272  0.26111586  0.00288890  1
  V  V42  1  0.63011091  0.61215466  0.49546952  1
  V  V43  1  0.75735222  0.37871470  0.62349449  1
  V  V44  1  0.49569833  0.86702379  0.86321410  1
  V  V45  1  0.87268178  0.26433178  0.12016901  1
  V  V46  1  0.13494802  0.49206510  0.12782464  1
  V  V47  1  0.49385252  0.25449422  0.74420060  1
  V  V48  1  0.62796471  0.38165710  0.74974478  1
  V  V49  1  0.86498459  0.74816973  0.11642116  1
  V  V50  1  0.25810355  0.12258854  0.88008577  1
  V  V51  1  0.50036427  0.50249222  0.00774174  1
  V  V52  1  0.62235953  0.87142358  0.25162814  1
  V  V53  1  0.88691743  -0.00210454  0.87499264  1
  V  V54  1  0.13014308  0.62269710  -0.00584996  1
  V  V55  1  0.25396274  0.75407444  0.50661556  1
  V  V56  1  0.37499441  0.87751332  0.50630647  1
  V  V57  1  0.62376170  0.12525757  0.00053901  1
  V  V58  1  0.88012780  0.48691592  0.87710994  1
  V  V59  1  -0.00773069  0.25463393  0.25578210  1
  V  V60  1  0.37095644  0.87740752  0.00643110  1
  V  V61  1  0.63319934  0.49155918  0.12174584  1
  V  V62  1  0.50678404  0.00592616  0.49792268  1
  V  V63  1  0.62560409  0.36379161  0.24732441  1
  V  V64  1  0.13150810  0.37731360  0.25597102  1
  V  V65  1  0.13444023  0.87399391  0.24122348  1
  V  V66  1  0.13050391  0.87094249  0.74075919  1
  V  V67  1  0.74629743  0.50072548  0.26275338  1
  V  V68  1  0.37138084  0.50577680  0.35950693  1
  V  V69  1  0.62880460  0.63566700  0.00558297  1
  V  V70  1  0.75225079  0.12010267  0.87179601  1
  V  V71  1  0.11531597  0.75885571  0.87616749  1
  V  V72  1  0.89247767  0.63160812  0.74681952  1
  V  V73  1  0.62614403  0.25076395  0.87653890  1
  V  V74  1  0.35975687  0.36379411  0.00666059  1
  V  V75  1  0.62531752  -0.00674162  0.62750936  1
  V  V76  1  0.75330986  0.13617987  0.38112371  1
  V  V77  1  0.12309928  0.24819930  0.87719849  1
  V  V78  1  0.76239720  0.87136182  0.61932008  1
  Zn  Zn79  1  0.61031775  0.23868414  0.38649429  1
  Zn  Zn80  1  0.88096942  0.00326943  0.37383529  1
  Zn  Zn81  1  0.56552299  0.55945718  0.65236543  1
  Zn  Zn82  1  0.90774245  0.72882758  0.60311470  1
  Zn  Zn83  1  0.48949477  0.50691905  0.50652416  1
  Zn  Zn84  1  0.62020137  0.73788997  0.36971203  1
  Zn  Zn85  1  0.25334291  0.14014978  0.36944316  1
  Zn  Zn86  1  0.26673203  -0.00787132  0.75193460  1
  Zn  Zn87  1  0.70696864  0.22118816  0.53161834  1
  Zn  Zn88  1  0.37963368  0.00828594  0.36604158  1
  Zn  Zn89  1  0.34554863  0.25072987  0.14189013  1
  Zn  Zn90  1  0.88340570  0.37313745  0.49100570  1
  Zn  Zn91  1  0.85306138  0.63267329  0.25177117  1
  Zn  Zn92  1  0.11366344  0.26047681  0.38285638  1
  Zn  Zn93  1  0.75953418  0.63584428  0.87871632  1
  Zn  Zn94  1  0.17930018  0.19080037  0.18622405  1
  Zn  Zn95  1  0.18689776  0.18886938  0.68942358  1
  Zn  Zn96  1  0.19255806  0.68589798  0.17821592  1
  Zn  Zn97  1  0.18990700  0.69295686  0.68847309  1
  Zn  Zn98  1  0.68852654  0.18798362  0.18805020  1
  Zn  Zn99  1  0.68640125  0.18707782  0.69596754  1
  Zn  Zn100  1  0.63556824  0.66145150  0.21093912  1
  Zn  Zn101  1  0.69913250  0.68878606  0.68100510  1
  Zn  Zn102  1  0.30732314  0.31200638  0.31422163  1
  Zn  Zn103  1  0.30933280  0.31150893  0.81807897  1
  Zn  Zn104  1  0.31723206  0.81709290  0.31502688  1
  Zn  Zn105  1  0.31034248  0.80550801  0.81591410  1
  Zn  Zn106  1  0.81516910  0.31672245  0.30903699  1
  Zn  Zn107  1  0.81583326  0.30714162  0.81160250  1
  Zn  Zn108  1  0.81154597  0.81744953  0.30246435  1
  Zn  Zn109  1  0.81284209  0.81419446  0.81003668  1
  Zn  Zn110  1  0.18322367  0.44195068  0.43738151  1
  Zn  Zn111  1  0.18235409  0.43531993  0.93674477  1
  Zn  Zn112  1  0.18733571  0.93640725  0.43368130  1
  Zn  Zn113  1  0.19226025  0.93913997  0.93491434  1
  Zn  Zn114  1  0.68417299  0.41937392  0.44069785  1
  Zn  Zn115  1  0.68918645  0.44227628  0.93346959  1
  Zn  Zn116  1  0.68842639  0.93894469  0.43802585  1
  Zn  Zn117  1  0.68025416  0.93212794  0.93350108  1
  Zn  Zn118  1  0.30889618  0.06585738  0.06508042  1
  Zn  Zn119  1  0.32399857  0.07621330  0.55078026  1
  Zn  Zn120  1  0.31484094  0.56129510  0.06586955  1
  Zn  Zn121  1  0.30090314  0.56643226  0.56128861  1
  Zn  Zn122  1  0.81281546  0.05996645  0.05634854  1
  Zn  Zn123  1  0.81362080  0.05651374  0.56203219  1
  Zn  Zn124  1  0.80792554  0.55809765  0.06168411  1
  Zn  Zn125  1  0.81361869  0.56563437  0.55965228  1
  Zn  Zn126  1  0.43546831  0.43420954  0.18403778  1
  Zn  Zn127  1  0.44184787  0.46403945  0.69463867  1
  Zn  Zn128  1  0.43667502  0.93557974  0.18466438  1
  Zn  Zn129  1  0.43791644  0.93775496  0.68044363  1
  Zn  Zn130  1  0.93649119  0.43823493  0.19053648  1
  Zn  Zn131  1  0.93378765  0.44015889  0.68619137  1
  Zn  Zn132  1  0.94011130  0.93144898  0.18392024  1
  Zn  Zn133  1  0.96355395  0.89419547  0.67393777  1
  Zn  Zn134  1  0.06671126  0.06712467  0.31147063  1
  Zn  Zn135  1  0.06995018  0.05014886  0.80991891  1
  Zn  Zn136  1  0.06363437  0.56354461  0.31257737  1
  Zn  Zn137  1  0.06302643  0.56311055  0.81774529  1
  Zn  Zn138  1  0.56852442  0.06194623  0.31544896  1
  Zn  Zn139  1  0.56182293  0.06142037  0.80905073  1
  Zn  Zn140  1  0.56002126  0.55551572  0.32030049  1
  Zn  Zn141  1  0.55338331  0.57177839  0.82230206  1
  Zn  Zn142  1  0.42981948  0.19175101  0.43765224  1
  Zn  Zn143  1  0.43680197  0.18859381  0.93813315  1
  Zn  Zn144  1  0.44210721  0.68513811  0.44359463  1
  Zn  Zn145  1  0.44380041  0.69081215  0.94233540  1
  Zn  Zn146  1  0.93250404  0.18060424  0.44071650  1
  Zn  Zn147  1  0.93822824  0.18484257  0.94116901  1
  Zn  Zn148  1  0.93553399  0.68113096  0.42786654  1
  Zn  Zn149  1  0.93851292  0.68234463  0.93585539  1
  Zn  Zn150  1  0.06720220  0.30586422  0.06763272  1
  Zn  Zn151  1  0.06346187  0.31314548  0.57824283  1
  Zn  Zn152  1  0.06280550  0.80970465  0.06050519  1
  Zn  Zn153  1  0.06875723  0.81184926  0.55759457  1
  Zn  Zn154  1  0.55713209  0.31149574  0.06270808  1
  Zn  Zn155  1  0.55621963  0.34255830  0.56707574  1
  Zn  Zn156  1  0.55691516  0.81390489  0.06385190  1
  Zn  Zn157  1  0.56777651  0.80765157  0.56070641  1
  O  O158  1  0.11456275  0.11625877  0.11591754  1
  O  O159  1  0.12819432  0.11214435  0.61728873  1
  O  O160  1  0.11665296  0.61314571  0.11839493  1
  O  O161  1  0.12907696  0.63507344  0.61151093  1
  O  O162  1  0.61893516  0.11794518  0.11828919  1
  O  O163  1  0.61701189  0.11980310  0.62834314  1
  O  O164  1  0.62742173  0.60918103  0.10853843  1
  O  O165  1  0.64026574  0.62607023  0.60721573  1
  O  O166  1  0.37492249  0.38985693  0.37855911  1
  O  O167  1  0.38141632  0.37872071  0.88516117  1
  O  O168  1  0.38587641  0.88389922  0.38207051  1
  O  O169  1  0.38934182  0.86411370  0.88778056  1
  O  O170  1  0.87166543  0.38941456  0.37572240  1
  O  O171  1  0.87757264  0.38706992  0.86748519  1
  O  O172  1  0.89221347  0.87815330  0.36394071  1
  O  O173  1  0.87190641  0.88122481  0.88577475  1
  O  O174  1  0.24614280  -0.00057239  0.35709215  1
  O  O175  1  0.24259638  0.01908605  0.86762486  1
  O  O176  1  0.25898827  0.51292141  0.37598707  1
  O  O177  1  0.25847866  0.50091279  0.87480991  1
  O  O178  1  0.75288825  0.00215914  0.36111932  1
  O  O179  1  0.74448431  0.00336482  0.86980359  1
  O  O180  1  0.74436813  0.49324572  0.36307473  1
  O  O181  1  0.76141898  0.50155449  0.86726991  1
  O  O182  1  0.23334021  0.50186389  0.12328412  1
  O  O183  1  0.25213739  0.49571278  0.64600206  1
  O  O184  1  0.23697901  1.00583786  0.13480102  1
  O  O185  1  0.24811704  1.00406780  0.61706304  1
  O  O186  1  0.73830536  0.49040310  0.12773997  1
  O  O187  1  0.76203472  0.48588532  0.63810350  1
  O  O188  1  0.74171136  0.99758185  0.13035808  1
  O  O189  1  0.74390162  0.99567407  0.63097575  1
  O  O190  1  0.00388158  0.35965311  0.24332625  1
  O  O191  1  0.01451053  0.38513584  0.75110078  1
  O  O192  1  0.01150966  0.86909321  0.25276179  1
  O  O193  1  0.03409121  0.89755900  0.76370469  1
  O  O194  1  0.50626708  0.38187586  0.25990789  1
  O  O195  1  0.50621804  0.37260130  0.76011405  1
  O  O196  1  0.51052855  0.88681062  0.25904577  1
  O  O197  1  0.49339755  0.88218976  0.76517367  1
  O  O198  1  0.50173034  0.11389107  0.23701170  1
  O  O199  1  0.49677039  0.13555102  0.74489408  1
  O  O200  1  0.53573570  0.64347400  0.25901231  1
  O  O201  1  0.48944789  0.56974344  0.73272126  1
  O  O202  1  1.01001495  0.13916061  0.23459640  1
  O  O203  1  1.00340492  0.12404846  0.74667176  1
  O  O204  1  1.00313561  0.63030387  0.23475277  1
  O  O205  1  0.99249428  0.61827646  0.74825167  1
  O  O206  1  0.37732717  0.26245495  0.00024910  1
  O  O207  1  0.35926950  0.26974517  0.49594786  1
  O  O208  1  0.37236634  0.75645579  0.00635143  1
  O  O209  1  0.37127877  0.75803728  0.50330574  1
  O  O210  1  0.86797733  0.24498621  0.01090493  1
  O  O211  1  0.89148033  0.25672233  0.51946630  1
  O  O212  1  0.87815200  0.76145088  0.00348681  1
  O  O213  1  0.86358093  0.74397828  0.49632780  1
  O  O214  1  0.12250439  0.24653422  0.50453879  1
  O  O215  1  0.11591309  0.23807641  0.98777781  1
  O  O216  1  0.13563812  0.75080092  0.48673584  1
  O  O217  1  0.13120490  0.74322816  0.99555876  1
  O  O218  1  0.62583435  0.28387457  0.49144051  1
  O  O219  1  0.63099316  0.24212337  0.99735714  1
  O  O220  1  0.64039824  0.74608664  0.49406267  1
  O  O221  1  0.62228082  0.73640339  1.00614733  1
  O  O222  1  0.50633214  0.23175667  0.12465035  1
  O  O223  1  0.51088528  0.24958479  0.63668558  1
  O  O224  1  0.48704508  0.74946525  0.12405707  1
  O  O225  1  0.49092439  0.75117286  0.62369786  1
  O  O226  1  0.98749264  0.24052291  0.12811889  1
  O  O227  1  0.99077609  0.25053984  0.64456217  1
  O  O228  1  0.99081798  0.74232378  0.12531235  1
  O  O229  1  0.99367559  0.78903015  0.63517050  1
  O  O230  1  -0.00669195  0.24268904  0.35945696  1
  O  O231  1  0.00524595  0.23838032  0.86270070  1
  O  O232  1  0.00977975  0.75611141  0.36572928  1
  O  O233  1  0.01573788  0.74903883  0.88077864  1
  O  O234  1  0.49256592  0.26462425  0.37314987  1
  O  O235  1  0.50549395  0.25842004  0.86906475  1
  O  O236  1  0.50225204  0.76667229  0.38239840  1
  O  O237  1  0.50974936  0.75814329  0.87413382  1
  O  O238  1  0.23894093  0.14267019  0.50754617  1
  O  O239  1  0.24319094  0.12260425  0.98547354  1
  O  O240  1  0.23931452  0.63691331  0.48781558  1
  O  O241  1  0.23741478  0.62834376  1.00569533  1
  O  O242  1  0.75140772  0.12410851  0.48845292  1
  O  O243  1  0.73727295  0.12779814  0.99453543  1
  O  O244  1  0.74645690  0.64203298  0.50077083  1
  O  O245  1  0.73352223  0.61571277  0.99236909  1
  O  O246  1  0.26099038  0.37543092  -0.00581884  1
  O  O247  1  0.24795138  0.37672480  0.51245767  1
  O  O248  1  0.26665095  0.87045027  -0.00613481  1
  O  O249  1  0.26339884  0.86686114  0.48736144  1
  O  O250  1  0.74317155  0.35983507  -0.00507410  1
  O  O251  1  0.75913403  0.37768847  0.51987608  1
  O  O252  1  0.74697536  0.87879953  0.01250007  1
  O  O253  1  0.74806818  0.86800566  0.50983867  1
  O  O254  1  0.11458646  0.49003809  0.23659338  1
  O  O255  1  0.13865383  0.48757685  0.76984059  1
  O  O256  1  0.13146581  0.99304072  0.24086757  1
  O  O257  1  0.13932487  1.00094126  0.73191684  1
  O  O258  1  0.63105762  0.48946263  0.24189300  1
  O  O259  1  0.63706848  0.49089630  0.75889409  1
  O  O260  1  0.63466131  0.99431568  0.23945881  1
  O  O261  1  0.63536967  1.00345467  0.74088135  1
  O  O262  1  0.35622575  -0.00530580  0.24374423  1
  O  O263  1  0.38036799  0.01651901  0.74467755  1
  O  O264  1  0.37584368  0.49927936  0.26068807  1
  O  O265  1  0.35720702  0.49177499  0.77007821  1
  O  O266  1  0.86251852  -0.00437964  0.24364728  1
  O  O267  1  0.86073618  -0.00608419  0.77206670  1
  O  O268  1  0.85788579  0.49453528  0.25509206  1
  O  O269  1  0.87249867  0.50841252  0.75754506  1
  O  O270  1  0.11963450  0.38132083  0.36155397  1
  O  O271  1  0.13046151  0.35987327  0.86492789  1
  O  O272  1  0.12066395  0.86454400  0.36304938  1
  O  O273  1  0.12599094  0.86165603  0.88151967  1
  O  O274  1  0.60574202  0.38047042  0.36305999  1
  O  O275  1  0.61646559  0.37221120  0.86939135  1
  O  O276  1  0.61712395  0.88153559  0.36622134  1
  O  O277  1  0.61179571  0.85947403  0.87824820  1
  O  O278  1  0.38795287  0.12861855  0.11808980  1
  O  O279  1  0.39243245  0.12968735  0.63188854  1
  O  O280  1  0.37554000  0.63492874  0.12453237  1
  O  O281  1  0.37390371  0.63841119  0.61336617  1
  O  O282  1  0.88795663  0.12197124  0.12005353  1
  O  O283  1  0.87043031  0.13673869  0.62296797  1
  O  O284  1  0.87891451  0.63091807  0.12348534  1
  O  O285  1  0.87290433  0.62460861  0.64047487  1
  O  O286  1  0.24078784  0.23683263  0.10830865  1
  O  O287  1  0.24282622  0.26381446  0.61812847  1
  O  O288  1  0.25899987  0.74849377  0.10882250  1
  O  O289  1  0.25646398  0.75045007  0.60991727  1
  O  O290  1  0.76452704  0.24148670  0.11838838  1
  O  O291  1  0.76172826  0.25271104  0.63114994  1
  O  O292  1  0.76236070  0.76021862  0.12879543  1
  O  O293  1  0.75991368  0.76550835  0.61910048  1
  O  O294  1  0.23779650  0.25962674  0.39303922  1
  O  O295  1  0.23441344  0.23406471  0.86494202  1
  O  O296  1  0.24626420  0.74263484  0.37840828  1
  O  O297  1  0.24132584  0.74788463  0.89155583  1
  O  O298  1  0.75576057  0.23820539  0.37161342  1
  O  O299  1  0.74852304  0.23958166  0.88232246  1
  O  O300  1  0.75116147  0.76177637  0.38318630  1
  O  O301  1  0.73192924  0.75315280  0.87002908  1
  O  O302  1  0.00862000  0.12500649  0.01382417  1
  O  O303  1  0.01128406  0.10897436  0.49455252  1
  O  O304  1  0.00859651  0.62004273  0.01132078  1
  O  O305  1  0.01650165  0.64077950  0.49771981  1
  O  O306  1  0.50919787  0.11791889  -0.00053280  1
  O  O307  1  0.49685423  0.12165908  0.50912457  1
  O  O308  1  0.51525073  0.61121427  -0.00870161  1
  O  O309  1  0.52006857  0.62081657  0.49928578  1
  O  O310  1  0.48250876  0.37707991  0.48156746  1
  O  O311  1  0.49560630  0.38056329  0.99151386  1
  O  O312  1  0.49675136  0.88467250  0.49269902  1
  O  O313  1  0.49227440  0.88253427  0.99392567  1
  O  O314  1  0.99379123  0.40086997  0.53785549  1
  O  O315  1  1.00334019  0.38506356  1.00596069  1
  O  O316  1  1.01630356  0.88982093  0.48350820  1
  O  O317  1  0.98981473  0.87779066  1.00101618  1
  O  O318  1  0.48311281  0.49343981  0.38037612  1
  O  O319  1  0.48772748  0.49008740  0.88538535  1
  O  O320  1  0.50104643  0.99698601  0.38425401  1
  O  O321  1  0.51035304  0.98748489  0.88535298  1
  O  O322  1  0.99154024  0.49656019  0.37001410  1
  O  O323  1  0.99729392  0.50167982  0.89343056  1
  O  O324  1  1.00385090  0.99423181  0.37725897  1
  O  O325  1  0.98528730  1.00796844  0.87503821  1
  O  O326  1  0.00855932  0.01075073  0.13334764  1
  O  O327  1  0.01422517  -0.01217647  0.60914200  1
  O  O328  1  0.00021427  0.50545139  0.11517069  1
  O  O329  1  -0.00717785  0.46573804  0.58828426  1
  O  O330  1  0.50644391  0.00773519  0.11420062  1
  O  O331  1  0.50965806  0.01005750  0.61962464  1
  O  O332  1  0.50975059  0.49290583  0.11364339  1
  O  O333  1  0.51831356  0.45951052  0.60827705  1
  O  O334  1  0.23032049  0.37352319  0.24980634  1
  O  O335  1  0.24354159  0.37703564  0.74805430  1
  O  O336  1  0.23767729  0.88209759  0.25154666  1
  O  O337  1  0.23594461  0.88231124  0.76765046  1
  O  O338  1  0.73188835  0.38122959  0.25406528  1
  O  O339  1  0.74569959  0.38142152  0.75114068  1
  O  O340  1  0.74423179  0.88923634  0.23714933  1
  O  O341  1  0.75023680  0.88266683  0.73660559  1
  O  O342  1  0.23839822  0.11388935  0.25271333  1
  O  O343  1  0.26227026  0.12719847  0.75303204  1
  O  O344  1  0.24580874  0.62933699  0.26415495  1
  O  O345  1  0.24155558  0.61221972  0.75349388  1
  O  O346  1  0.74866058  0.11207339  0.25334515  1
  O  O347  1  0.74761764  0.11620363  0.76534351  1
  O  O348  1  0.73827456  0.60469928  0.24260140  1
  O  O349  1  0.75568286  0.61378733  0.75288092  1
  O  O350  1  0.35925345  0.11447195  0.40008513  1
  O  O351  1  0.36345878  0.13003665  0.86858013  1
  O  O352  1  0.36639865  0.61715168  0.37927247  1
  O  O353  1  0.37860598  0.61029402  0.88566326  1
  O  O354  1  0.86042211  0.11894149  0.37453244  1
  O  O355  1  0.86146731  0.10729705  0.89294255  1
  O  O356  1  0.87797761  0.60754320  0.36157923  1
  O  O357  1  0.87645403  0.61375893  0.86584749  1
  O  O358  1  0.12001168  0.38644541  0.13167629  1
  O  O359  1  0.13505943  0.37572488  0.64694598  1
  O  O360  1  0.11700647  0.88420848  0.12970455  1
  O  O361  1  0.13500730  0.88497741  0.63409236  1
  O  O362  1  0.61525574  0.37642568  0.13951734  1
  O  O363  1  0.64740041  0.36505684  0.64228533  1
  O  O364  1  0.62759392  0.88388314  0.12917584  1
  O  O365  1  0.63406366  0.88795203  0.62140088  1
  O  O366  1  0.11167495  0.26270856  0.25040516  1
  O  O367  1  0.10899662  0.25460095  0.75469395  1
  O  O368  1  0.12278690  0.75478448  0.25074589  1
  O  O369  1  0.13290802  0.76190854  0.76280253  1
  O  O370  1  0.62846841  0.26138085  0.25595614  1
  O  O371  1  0.61794799  0.25959634  0.75929628  1
  O  O372  1  0.64163344  0.76999110  0.25359634  1
  O  O373  1  0.62367141  0.74395173  0.75338455  1
  O  O374  1  0.37695045  0.26085673  0.24741832  1
  O  O375  1  0.38775177  0.24476343  0.75685769  1
  O  O376  1  0.36680105  0.75709800  0.23358566  1
  O  O377  1  0.36570957  0.75199827  0.73192867  1
  O  O378  1  0.88326382  0.25257954  0.23539534  1
  O  O379  1  0.88770294  0.24294767  0.74739378  1
  O  O380  1  0.88119546  0.74926007  0.23694791  1
  O  O381  1  0.87425030  0.73198678  0.75840432  1
  O  O382  1  0.36739619  0.49350309  0.49362163  1
  O  O383  1  0.37918605  0.49057589  0.99427860  1
  O  O384  1  0.39094223  0.99140819  0.50716396  1
  O  O385  1  0.38157117  0.98812529  1.00488252  1
  O  O386  1  0.87007608  0.50224281  0.48252679  1
  O  O387  1  0.88640272  0.50143899  0.99495408  1
  O  O388  1  0.89407593  1.00132118  0.49915348  1
  O  O389  1  0.86852928  0.98280855  0.99044682  1
  O  O390  1  0.13113408  0.00847419  0.00769018  1
  O  O391  1  0.12699778  0.00638911  0.50728549  1
  O  O392  1  0.11466037  0.50211822  0.00847553  1
  O  O393  1  0.12853969  0.52048130  0.49752576  1
  O  O394  1  0.61829953  0.00568254  0.00822987  1
  O  O395  1  0.61465793  -0.00063106  0.50855268  1
  O  O396  1  0.61765216  0.49827177  0.00408523  1
  O  O397  1  0.63652188  0.50985552  0.49650543  1
  O  O398  1  0.37577096  0.37360446  0.10957842  1
  O  O399  1  0.36231824  0.38591031  0.61868440  1
  O  O400  1  0.38016088  0.86649423  0.10955644  1
  O  O401  1  0.38039817  0.86501138  0.61170112  1
  O  O402  1  0.87584007  0.36284404  0.12154334  1
  O  O403  1  0.86259655  0.35943733  0.63846077  1
  O  O404  1  0.86961452  0.87016604  0.11118192  1
  O  O405  1  0.86016533  0.89063087  0.62484967  1
  O  O406  1  0.13041099  0.13120129  0.38832817  1
  O  O407  1  0.12904710  0.12730928  0.88058122  1
  O  O408  1  0.13356114  0.63510870  0.37572816  1
  O  O409  1  0.12123103  0.63515458  0.88750934  1
  O  O410  1  0.64318536  0.12834852  0.36961888  1
  O  O411  1  0.62998743  0.12913470  0.88287212  1
  O  O412  1  0.63339796  0.62358236  0.38895965  1
  O  O413  1  0.62274539  0.63982781  0.88209689  1
