# generated using pymatgen
data_V79Zn79O256
_symmetry_space_group_name_H-M   'P 1'
_cell_length_a   16.89783915
_cell_length_b   16.90354190
_cell_length_c   16.88722243
_cell_angle_alpha   90.00399364
_cell_angle_beta   90.06468101
_cell_angle_gamma   90.04274415
_symmetry_Int_Tables_number   1
_chemical_formula_structural   V79Zn79O256
_chemical_formula_sum   'V79 Zn79 O256'
_cell_volume   4823.54918474
_cell_formula_units_Z   1
loop_
 _symmetry_equiv_pos_site_id
 _symmetry_equiv_pos_as_xyz
  1  'x, y, z'
loop_
 _atom_site_type_symbol
 _atom_site_label
 _atom_site_symmetry_multiplicity
 _atom_site_fract_x
 _atom_site_fract_y
 _atom_site_fract_z
 _atom_site_occupancy
  V  V0  1  0.87970081  -0.01652997  0.37392428  1
  V  V1  1  0.74587057  0.75377567  0.50859851  1
  V  V2  1  0.50086569  0.63022935  0.62926354  1
  V  V3  1  0.87936969  0.75385977  0.12624979  1
  V  V4  1  0.12176790  0.87402825  0.76005124  1
  V  V5  1  0.24720780  0.49755463  0.25175901  1
  V  V6  1  0.61962943  0.75238154  0.36411885  1
  V  V7  1  0.62785653  0.12091200  0.49507225  1
  V  V8  1  0.87785312  0.38151959  0.00029715  1
  V  V9  1  0.87515804  0.62391594  0.72761323  1
  V  V10  1  0.37635752  0.49567650  0.87557362  1
  V  V11  1  0.74994314  0.12034673  0.37023071  1
  V  V12  1  0.74973864  0.75526522  -0.00078799  1
  V  V13  1  0.25825713  0.74877811  0.00356215  1
  V  V14  1  0.23755560  0.63148442  0.37726729  1
  V  V15  1  0.75424278  0.87667870  0.63680916  1
  V  V16  1  0.37868227  0.48554067  0.37774112  1
  V  V17  1  0.23768305  0.11877121  0.37976416  1
  V  V18  1  0.38902600  -0.01254001  0.87816733  1
  V  V19  1  0.24582453  0.24593613  0.00747953  1
  V  V20  1  0.01435051  0.11031100  0.60992020  1
  V  V21  1  0.23831254  0.74787788  0.49930398  1
  V  V22  1  0.62821904  0.00003868  0.63678355  1
  V  V23  1  0.87201944  0.23416277  0.62891235  1
  V  V24  1  0.62847547  0.63068171  -0.00368035  1
  V  V25  1  0.49941333  0.87032790  0.35891967  1
  V  V26  1  0.24452718  -0.00025192  0.75013492  1
  V  V27  1  0.12320659  0.37258094  0.74668651  1
  V  V28  1  0.12620418  0.24438119  0.39242578  1
  V  V29  1  -0.00508303  0.37417475  0.37955399  1
  V  V30  1  0.61811731  -0.01767271  0.12681745  1
  V  V31  1  0.63133230  0.38556760  0.74547383  1
  V  V32  1  0.62268992  0.12244092  0.00890809  1
  V  V33  1  0.75031994  0.62748287  0.86988203  1
  V  V34  1  0.38018393  0.63644596  0.25028281  1
  V  V35  1  0.00295827  0.51511359  0.50357789  1
  V  V36  1  0.74554221  -0.02555531  0.24267907  1
  V  V37  1  0.49672325  0.48855918  0.50264146  1
  V  V38  1  0.61187244  0.85505023  0.75872396  1
  V  V39  1  0.87316687  0.87965692  -0.00092890  1
  V  V40  1  0.50084537  -0.00585394  0.50055734  1
  V  V41  1  -0.00320057  0.24548668  0.24616921  1
  V  V42  1  0.87781307  0.37434081  0.50264245  1
  V  V43  1  0.62216567  0.26565894  0.36818762  1
  V  V44  1  -0.00195972  0.23804940  0.74897672  1
  V  V45  1  0.49922282  0.63076103  0.12955155  1
  V  V46  1  0.36880372  0.25794562  0.61473023  1
  V  V47  1  0.63329528  0.49949424  0.14245925  1
  V  V48  1  0.37599167  0.62920427  0.74999471  1
  V  V49  1  0.61719974  0.62850466  0.50114081  1
  V  V50  1  0.75727016  0.12294151  0.86512296  1
  V  V51  1  -0.00036001  0.37897217  0.87632742  1
  V  V52  1  0.00634142  0.00051926  -0.00064947  1
  V  V53  1  0.12556918  0.36736184  0.25229544  1
  V  V54  1  0.37140423  0.00604919  0.36751167  1
  V  V55  1  0.87300108  -0.00073822  0.86433947  1
  V  V56  1  0.75426216  0.37879312  0.13756735  1
  V  V57  1  0.37682541  0.36831729  0.01067538  1
  V  V58  1  0.75753953  0.25326309  0.00408854  1
  V  V59  1  0.11497463  0.74518425  0.87720970  1
  V  V60  1  0.37565225  0.86919348  0.50380795  1
  V  V61  1  0.87145144  0.50282880  0.87033034  1
  V  V62  1  0.02480813  0.75573401  0.25070155  1
  V  V63  1  0.48495099  0.25970274  0.24732571  1
  V  V64  1  0.37206386  0.12586402  0.75154998  1
  V  V65  1  0.87178600  0.12275915  0.23740337  1
  V  V66  1  0.62789141  0.25167056  0.87523264  1
  V  V67  1  0.50055297  0.25273857  0.74813051  1
  V  V68  1  -0.00174587  0.74761964  0.72892164  1
  V  V69  1  0.25058606  0.49583094  0.74711056  1
  V  V70  1  0.50547570  0.49714628  0.00239148  1
  V  V71  1  0.12294360  0.51568104  0.62387737  1
  V  V72  1  0.24335106  0.87829613  0.62638914  1
  V  V73  1  0.11764902  0.61454263  -0.00114062  1
  V  V74  1  0.11894962  0.49436367  0.12154688  1
  V  V75  1  0.14077305  0.89798686  0.23303080  1
  V  V76  1  0.50054960  0.12509735  0.62303064  1
  V  V77  1  0.75136809  0.38770933  0.62929770  1
  V  V78  1  0.02231884  0.12245459  0.11958000  1
  Zn  Zn79  1  0.24654334  0.61916146  0.87676982  1
  Zn  Zn80  1  0.24720545  0.37487674  0.60775840  1
  Zn  Zn81  1  0.48926551  0.13702916  0.12887212  1
  Zn  Zn82  1  0.74900744  0.24960841  0.50068536  1
  Zn  Zn83  1  0.24177982  0.12447423  0.87805142  1
  Zn  Zn84  1  0.37629008  0.75559985  0.63837729  1
  Zn  Zn85  1  0.03276594  0.87710053  0.39355396  1
  Zn  Zn86  1  0.12415845  0.24537539  0.88060156  1
  Zn  Zn87  1  0.27891154  0.87630073  0.11817549  1
  Zn  Zn88  1  0.76668071  0.60569704  0.36115856  1
  Zn  Zn89  1  0.25995054  0.36159783  0.14244512  1
  Zn  Zn90  1  0.88011722  0.87409118  0.51054012  1
  Zn  Zn91  1  0.87692058  0.61884791  0.25137394  1
  Zn  Zn92  1  -0.00276798  0.61993286  0.12067806  1
  Zn  Zn93  1  0.50519840  0.37502126  0.87499596  1
  Zn  Zn94  1  0.31530053  0.17911972  0.19671726  1
  Zn  Zn95  1  0.18544182  0.18490968  0.68268459  1
  Zn  Zn96  1  0.19493040  0.68197006  0.17801533  1
  Zn  Zn97  1  0.19285245  0.69272994  0.68936256  1
  Zn  Zn98  1  0.68998489  0.19464598  0.19072225  1
  Zn  Zn99  1  0.68660689  0.18870563  0.68555013  1
  Zn  Zn100  1  0.69459572  0.68729990  0.18532840  1
  Zn  Zn101  1  0.68610055  0.68581208  0.68905221  1
  Zn  Zn102  1  0.30915868  0.30743718  0.43887044  1
  Zn  Zn103  1  0.31222234  0.31188157  0.81582881  1
  Zn  Zn104  1  0.30443117  0.81759485  0.30924221  1
  Zn  Zn105  1  0.30409086  0.81180004  0.82703295  1
  Zn  Zn106  1  0.81244500  0.30615421  0.31636373  1
  Zn  Zn107  1  0.81487650  0.31081837  0.81072937  1
  Zn  Zn108  1  0.82281473  0.77863808  0.32828737  1
  Zn  Zn109  1  0.81706831  0.80957790  0.81149641  1
  Zn  Zn110  1  0.18055603  0.44495205  0.43677203  1
  Zn  Zn111  1  0.19033238  0.42998545  0.93713321  1
  Zn  Zn112  1  0.18650712  0.93125359  0.43182053  1
  Zn  Zn113  1  0.20835745  0.95196361  0.95829380  1
  Zn  Zn114  1  0.68953483  0.44478264  0.44336127  1
  Zn  Zn115  1  0.69188576  0.44069252  0.93664724  1
  Zn  Zn116  1  0.68844988  0.93259288  0.43481041  1
  Zn  Zn117  1  0.68511542  0.93846167  0.93539301  1
  Zn  Zn118  1  0.30737211  0.05926895  0.05513539  1
  Zn  Zn119  1  0.30949935  0.06406185  0.56050462  1
  Zn  Zn120  1  0.30921398  0.56264372  0.06517985  1
  Zn  Zn121  1  0.31238206  0.56234917  0.56153211  1
  Zn  Zn122  1  0.80301496  0.05670656  0.05928377  1
  Zn  Zn123  1  0.81503700  0.05373223  0.55971815  1
  Zn  Zn124  1  0.81494155  0.56433428  0.06125071  1
  Zn  Zn125  1  0.80529762  0.55775109  0.53727491  1
  Zn  Zn126  1  0.44313086  0.43832820  0.19568699  1
  Zn  Zn127  1  0.44141520  0.43876698  0.68435229  1
  Zn  Zn128  1  0.40705478  0.99294143  0.15793774  1
  Zn  Zn129  1  0.43745421  0.93780708  0.69286283  1
  Zn  Zn130  1  0.93239042  0.43831835  0.19156145  1
  Zn  Zn131  1  0.93793982  0.43866582  0.68515687  1
  Zn  Zn132  1  0.94256532  0.93439851  0.18393707  1
  Zn  Zn133  1  0.94204898  0.93628291  0.69086569  1
  Zn  Zn134  1  0.06234539  0.05984720  0.30871051  1
  Zn  Zn135  1  0.06233257  0.06235683  0.81617947  1
  Zn  Zn136  1  0.03240843  0.55191463  0.29841522  1
  Zn  Zn137  1  0.05683193  0.56411443  0.80721262  1
  Zn  Zn138  1  0.55986804  0.06458468  0.30282240  1
  Zn  Zn139  1  0.56476532  0.06778128  0.81707857  1
  Zn  Zn140  1  0.55970358  0.56244133  0.31918981  1
  Zn  Zn141  1  0.56306338  0.56463307  0.81327066  1
  Zn  Zn142  1  0.44564961  0.18723090  0.43237862  1
  Zn  Zn143  1  0.43823711  0.18372803  0.93717502  1
  Zn  Zn144  1  0.43305334  0.68527963  0.43482355  1
  Zn  Zn145  1  0.43948290  0.67849362  0.94010269  1
  Zn  Zn146  1  0.93519475  0.18190458  0.43636066  1
  Zn  Zn147  1  0.93979541  0.18826523  0.93895695  1
  Zn  Zn148  1  0.94710979  0.71002343  0.43987139  1
  Zn  Zn149  1  0.93677413  0.68699961  0.93716015  1
  Zn  Zn150  1  0.06119700  0.31191149  0.06673215  1
  Zn  Zn151  1  0.06016258  0.31150717  0.57049902  1
  Zn  Zn152  1  0.06606183  0.81608027  0.05751569  1
  Zn  Zn153  1  0.06371009  0.83691638  0.55245612  1
  Zn  Zn154  1  0.56793005  0.31450992  0.07050399  1
  Zn  Zn155  1  0.56680785  0.30955079  0.56148026  1
  Zn  Zn156  1  0.48997723  0.83997135  0.14289487  1
  Zn  Zn157  1  0.56367200  0.81241436  0.57145869  1
  O  O158  1  0.11721608  0.12124362  0.11991459  1
  O  O159  1  0.11427460  0.12474941  0.61939123  1
  O  O160  1  0.12576851  0.61048787  0.11644389  1
  O  O161  1  0.13019022  0.61454762  0.63248211  1
  O  O162  1  0.63530181  0.13379786  0.11024099  1
  O  O163  1  0.62303636  0.11996090  0.61422316  1
  O  O164  1  0.62338137  0.61219776  0.11822889  1
  O  O165  1  0.60698759  0.62681550  0.62254209  1
  O  O166  1  0.36994909  0.38724280  0.37628226  1
  O  O167  1  0.38148505  0.38406938  0.88335389  1
  O  O168  1  0.38384068  0.88045027  0.38367630  1
  O  O169  1  0.37658163  0.88719387  0.86694066  1
  O  O170  1  0.88422972  0.36278153  0.38844440  1
  O  O171  1  0.87882095  0.38290912  0.87757337  1
  O  O172  1  0.86416982  0.88286594  0.36638531  1
  O  O173  1  0.86734808  0.89106033  0.88086870  1
  O  O174  1  0.26163873  0.00585645  0.38367487  1
  O  O175  1  0.26211501  0.00324936  0.86266898  1
  O  O176  1  0.25811592  0.51142747  0.37016888  1
  O  O177  1  0.26005398  0.49666205  0.86655828  1
  O  O178  1  0.75137605  0.00155088  0.35995100  1
  O  O179  1  0.75840079  0.01576850  0.88037855  1
  O  O180  1  0.76650411  0.52233712  0.43147906  1
  O  O181  1  0.76120917  0.51002548  0.87298756  1
  O  O182  1  0.24335803  0.49612666  0.14025213  1
  O  O183  1  0.24400475  0.49674470  0.63229315  1
  O  O184  1  0.23988035  0.97372493  0.06888284  1
  O  O185  1  0.25589266  0.99005951  0.63593470  1
  O  O186  1  0.74148735  0.49389544  0.12215509  1
  O  O187  1  0.75513329  0.48565005  0.62186267  1
  O  O188  1  0.73719815  0.99406574  0.13469715  1
  O  O189  1  0.74002785  0.98689055  0.61893564  1
  O  O190  1  0.00283672  0.36452165  0.25921121  1
  O  O191  1  0.00531711  0.36718864  0.75481564  1
  O  O192  1  0.01501541  0.86633607  0.24150494  1
  O  O193  1  0.00875266  0.85992769  0.74607802  1
  O  O194  1  0.50384989  0.36177715  0.25117678  1
  O  O195  1  0.50967950  0.36566313  0.74800192  1
  O  O196  1  0.49677122  0.87266991  0.26145089  1
  O  O197  1  0.51253884  0.87001291  0.74154252  1
  O  O198  1  0.50903609  0.14813430  0.24884242  1
  O  O199  1  0.49519868  0.13650146  0.74427362  1
  O  O200  1  0.48752675  0.61787467  0.24581366  1
  O  O201  1  0.49144345  0.61398201  0.73767919  1
  O  O202  1  0.99344103  0.12523372  0.23599680  1
  O  O203  1  1.00425276  0.13501655  0.73925545  1
  O  O204  1  1.00222945  0.64813095  0.23667655  1
  O  O205  1  0.98842603  0.63485736  0.74405879  1
  O  O206  1  0.37793424  0.26521196  -0.00389717  1
  O  O207  1  0.38313415  0.24859953  0.50991615  1
  O  O208  1  0.35704828  0.73254892  -0.00999511  1
  O  O209  1  0.37050074  0.76200702  0.49914743  1
  O  O210  1  0.86452728  0.26240160  -0.00622012  1
  O  O211  1  0.87504717  0.25512440  0.51322530  1
  O  O212  1  0.87147909  0.76038327  0.00161760  1
  O  O213  1  0.84422130  0.74145197  0.50419567  1
  O  O214  1  0.11693962  0.25092557  0.49038769  1
  O  O215  1  0.14270961  0.26292507  1.00192125  1
  O  O216  1  0.14053493  0.75346498  0.50453102  1
  O  O217  1  0.12851871  0.73711539  0.99319660  1
  O  O218  1  0.62439871  0.23488853  0.49077708  1
  O  O219  1  0.63504184  0.24845844  0.99128110  1
  O  O220  1  0.62057632  0.74495711  0.49640244  1
  O  O221  1  0.63638351  0.73269086  1.00412919  1
  O  O222  1  0.50487446  0.25240292  0.13864301  1
  O  O223  1  0.49431212  0.24548805  0.63080154  1
  O  O224  1  0.50789477  0.72946171  0.12509296  1
  O  O225  1  0.49234016  0.73510591  0.62451852  1
  O  O226  1  1.00445391  0.23627285  0.13463506  1
  O  O227  1  0.98844766  0.24033275  0.63001246  1
  O  O228  1  0.98852550  0.75245728  0.12037743  1
  O  O229  1  1.00778154  0.75203152  0.63168040  1
  O  O230  1  0.00722573  0.25047528  0.36952300  1
  O  O231  1  -0.00298927  0.25941420  0.86494158  1
  O  O232  1  0.01640585  0.75302796  0.35117483  1
  O  O233  1  0.01075302  0.74479670  0.86904104  1
  O  O234  1  0.51552365  0.25100990  0.36781229  1
  O  O235  1  0.51107571  0.25021504  0.86584274  1
  O  O236  1  0.50458269  0.76227694  0.37825876  1
  O  O237  1  0.50372198  0.77976450  0.90440535  1
  O  O238  1  0.25806182  0.12600712  0.48246060  1
  O  O239  1  0.25981967  0.14482413  0.99556008  1
  O  O240  1  0.25686379  0.63205484  0.48574117  1
  O  O241  1  0.23760690  0.62695741  0.99863332  1
  O  O242  1  0.74254158  0.11839612  0.48900960  1
  O  O243  1  0.74342652  0.13674057  0.99322539  1
  O  O244  1  0.72574866  0.64414759  0.52161895  1
  O  O245  1  0.74601871  0.62925692  0.99050470  1
  O  O246  1  0.26726699  0.36975868  0.00291119  1
  O  O247  1  0.24609616  0.37871198  0.49671173  1
  O  O248  1  0.24971939  0.84728857  -0.01791798  1
  O  O249  1  0.25835341  0.86909978  0.50729896  1
  O  O250  1  0.75915221  0.37076599  0.00269415  1
  O  O251  1  0.75914588  0.37009700  0.51444641  1
  O  O252  1  0.75615037  0.86465634  -0.00862340  1
  O  O253  1  0.74566594  0.86728298  0.51245944  1
  O  O254  1  0.12721732  0.48993692  0.24694661  1
  O  O255  1  0.13065765  0.49322376  0.74449113  1
  O  O256  1  0.12667988  0.99791487  0.23951053  1
  O  O257  1  0.13421286  0.98836354  0.75934489  1
  O  O258  1  0.62429021  0.50518881  0.24114999  1
  O  O259  1  0.61992767  0.48429523  0.75239100  1
  O  O260  1  0.63632678  0.99819450  0.24037304  1
  O  O261  1  0.62305383  1.00762455  0.73726383  1
  O  O262  1  0.37864781  -0.00593733  0.27060084  1
  O  O263  1  0.36787483  0.00952612  0.75286525  1
  O  O264  1  0.36640457  0.50064334  0.26193119  1
  O  O265  1  0.36939645  0.50064337  0.75599413  1
  O  O266  1  0.85997008  0.00101179  0.25166586  1
  O  O267  1  0.87773632  -0.00155650  0.76557193  1
  O  O268  1  0.92221517  0.51567525  0.26928330  1
  O  O269  1  0.88188290  0.51586396  0.75456570  1
  O  O270  1  0.11521903  0.36234050  0.37201389  1
  O  O271  1  0.11590084  0.37387201  0.86482872  1
  O  O272  1  0.13746036  0.87489116  0.34051702  1
  O  O273  1  0.13140945  0.86033098  0.86331117  1
  O  O274  1  0.63619762  0.36274947  0.38769861  1
  O  O275  1  0.62984638  0.36547403  0.86706777  1
  O  O276  1  0.60794215  0.86711874  0.37898376  1
  O  O277  1  0.62945405  0.88610513  0.85388807  1
  O  O278  1  0.37645213  0.10337972  0.13377154  1
  O  O279  1  0.38091070  0.13381696  0.63191843  1
  O  O280  1  0.38396284  0.61236889  0.14031051  1
  O  O281  1  0.38070009  0.62595161  0.63424991  1
  O  O282  1  0.86419417  0.12069254  0.13677132  1
  O  O283  1  0.87616276  0.13221994  0.62173971  1
  O  O284  1  0.87888137  0.63992588  0.11974201  1
  O  O285  1  0.86490318  0.61734079  0.63027469  1
  O  O286  1  0.26250205  0.24923174  0.11319630  1
  O  O287  1  0.26625750  0.25006582  0.62730148  1
  O  O288  1  0.25171169  0.75260021  0.10803111  1
  O  O289  1  0.25724414  0.75845555  0.61872490  1
  O  O290  1  0.74329722  0.26998763  0.11643518  1
  O  O291  1  0.76319147  0.24910718  0.62353318  1
  O  O292  1  0.76376061  0.74552626  0.10897395  1
  O  O293  1  0.73491675  0.76695877  0.61897908  1
  O  O294  1  0.23170761  0.24050153  0.38067718  1
  O  O295  1  0.24991478  0.25333056  0.88940403  1
  O  O296  1  0.25489951  0.73851663  0.38114080  1
  O  O297  1  0.23339668  0.73628814  0.87747237  1
  O  O298  1  0.74223570  0.23714224  0.38016647  1
  O  O299  1  0.74592145  0.24339529  0.88117483  1
  O  O300  1  0.72531907  0.76028453  0.39392915  1
  O  O301  1  0.76073040  0.73726614  0.88505906  1
  O  O302  1  -0.00700834  0.11942503  0.01348026  1
  O  O303  1  -0.00452469  0.12218781  0.51095818  1
  O  O304  1  0.01270302  0.62318612  0.00041588  1
  O  O305  1  -0.01025076  0.61177003  0.49127736  1
  O  O306  1  0.51996296  0.13478792  0.00231799  1
  O  O307  1  0.50920284  0.11280664  0.50146072  1
  O  O308  1  0.50821373  0.61444308  0.00718415  1
  O  O309  1  0.49957956  0.62359693  0.51091341  1
  O  O310  1  0.50374437  0.38963276  0.50865371  1
  O  O311  1  0.49495997  0.38216106  1.00128640  1
  O  O312  1  0.49394765  0.88177279  0.50295672  1
  O  O313  1  0.50483435  0.83272070  0.95647522  1
  O  O314  1  0.99332012  0.36953485  0.49498081  1
  O  O315  1  0.98955784  0.36444410  0.98914301  1
  O  O316  1  0.97409640  0.82034299  0.48082414  1
  O  O317  1  0.98873200  0.89181365  1.00082031  1
  O  O318  1  0.48627491  0.50019385  0.38420002  1
  O  O319  1  0.49577966  0.49759006  0.88557692  1
  O  O320  1  0.49558275  0.98823341  0.38174665  1
  O  O321  1  0.48884366  1.00243028  0.86308273  1
  O  O322  1  1.01390856  0.48269939  0.39582919  1
  O  O323  1  0.99003520  0.48630206  0.86720361  1
  O  O324  1  0.98164349  0.99115382  0.35963884  1
  O  O325  1  0.97913570  1.01654954  0.88759927  1
  O  O326  1  -0.00456996  0.01212132  0.11200756  1
  O  O327  1  -0.00403079  0.01222371  0.62847414  1
  O  O328  1  0.01585807  0.49507827  0.12576986  1
  O  O329  1  0.01015964  0.49712793  0.61501016  1
  O  O330  1  0.52306013  0.02032973  0.13527809  1
  O  O331  1  0.50725963  0.00478366  0.61724862  1
  O  O332  1  0.51475740  0.50372278  0.12044477  1
  O  O333  1  0.48915268  0.51216356  0.60962001  1
  O  O334  1  0.23650521  0.38466576  0.25803173  1
  O  O335  1  0.24168897  0.38308606  0.75015213  1
  O  O336  1  0.24794230  0.87887004  0.23335727  1
  O  O337  1  0.24462569  0.88010509  0.74522882  1
  O  O338  1  0.76363108  0.37390161  0.23652124  1
  O  O339  1  0.74684576  0.37022454  0.73808700  1
  O  O340  1  0.74781460  0.87827727  0.25002142  1
  O  O341  1  0.74203149  0.86736421  0.73968652  1
  O  O342  1  0.25962386  0.12785497  0.28087746  1
  O  O343  1  0.25783490  0.11662698  0.74450657  1
  O  O344  1  0.26025135  0.61804748  0.25692823  1
  O  O345  1  0.25799685  0.60978314  0.75092625  1
  O  O346  1  0.75537149  0.12511349  0.25827590  1
  O  O347  1  0.74537127  0.13178827  0.76645102  1
  O  O348  1  0.75974115  0.62418616  0.25080986  1
  O  O349  1  0.76674662  0.63591269  0.75621236  1
  O  O350  1  0.37963795  0.10758856  0.38252742  1
  O  O351  1  0.37401044  0.12664721  0.85859868  1
  O  O352  1  0.37186116  0.61741985  0.36142091  1
  O  O353  1  0.37987087  0.60842194  0.86740095  1
  O  O354  1  0.86633175  0.11054463  0.36574292  1
  O  O355  1  0.86245685  0.12141759  0.87874358  1
  O  O356  1  0.86622479  0.67358825  0.36198456  1
  O  O357  1  0.86940605  0.61619115  0.87331906  1
  O  O358  1  0.12905733  0.37725743  0.13714279  1
  O  O359  1  0.12558987  0.38246608  0.63592565  1
  O  O360  1  0.12666305  0.87604015  0.13099168  1
  O  O361  1  0.13810090  0.86743256  0.64081290  1
  O  O362  1  0.63966865  0.39094264  0.12279526  1
  O  O363  1  0.64334826  0.36484356  0.63024895  1
  O  O364  1  0.59984521  0.88553104  0.11847451  1
  O  O365  1  0.63044279  0.88263012  0.63890174  1
  O  O366  1  0.11153049  0.25853902  0.26110187  1
  O  O367  1  0.11656503  0.26060763  0.74441273  1
  O  O368  1  0.12488648  0.75266167  0.23467453  1
  O  O369  1  0.11452565  0.74967037  0.75535643  1
  O  O370  1  0.63315685  0.25706934  0.26706222  1
  O  O371  1  0.61889787  0.25499260  0.75649595  1
  O  O372  1  0.62855457  0.74562561  0.26546298  1
  O  O373  1  0.62222439  0.75465093  0.75607999  1
  O  O374  1  0.38456302  0.25513444  0.25240885  1
  O  O375  1  0.38332568  0.24630265  0.74264950  1
  O  O376  1  0.37150333  0.73523351  0.25186703  1
  O  O377  1  0.36532070  0.73188905  0.75972544  1
  O  O378  1  0.88813970  0.23660284  0.25945414  1
  O  O379  1  0.88326580  0.25197468  0.73707682  1
  O  O380  1  0.88088745  0.76494549  0.22753522  1
  O  O381  1  0.88899211  0.74095519  0.74728621  1
  O  O382  1  0.38300418  0.50530518  0.48717356  1
  O  O383  1  0.38422149  0.49379016  0.99501178  1
  O  O384  1  0.38497188  0.98917317  0.49687516  1
  O  O385  1  0.37990254  1.01225331  0.97483473  1
  O  O386  1  0.89601023  0.48278889  0.51382832  1
  O  O387  1  0.87254997  0.49053068  0.98770588  1
  O  O388  1  0.86826295  0.99036630  0.47932662  1
  O  O389  1  0.87450690  0.99357366  0.99420391  1
  O  O390  1  0.10243742  -0.00241585  -0.01930478  1
  O  O391  1  0.08989287  -0.06957931  0.48683972  1
  O  O392  1  0.13538084  0.50088285  0.00954146  1
  O  O393  1  0.11344436  0.50220800  0.51097872  1
  O  O394  1  0.63481657  0.01335112  0.01326118  1
  O  O395  1  0.61821002  0.00351189  0.50510139  1
  O  O396  1  0.61840945  0.50586013  0.00268634  1
  O  O397  1  0.60312599  0.51434947  0.48998652  1
  O  O398  1  0.37656586  0.38457566  0.11314957  1
  O  O399  1  0.37528533  0.36022629  0.62884348  1
  O  O400  1  0.39423322  0.88959230  0.11850544  1
  O  O401  1  0.36713971  0.87484797  0.61983100  1
  O  O402  1  0.86347412  0.38715063  0.11478187  1
  O  O403  1  0.86691376  0.36496432  0.62299159  1
  O  O404  1  0.87545469  0.86754374  0.10989900  1
  O  O405  1  0.85859794  0.88225708  0.62795957  1
  O  O406  1  0.12738297  0.13095235  0.37631749  1
  O  O407  1  0.12851209  0.13349205  0.86989574  1
  O  O408  1  0.14147563  0.61886988  0.36623583  1
  O  O409  1  0.12299836  0.62397024  0.88120662  1
  O  O410  1  0.63301085  0.12210229  0.38082249  1
  O  O411  1  0.63576951  0.13267110  0.88569819  1
  O  O412  1  0.61445115  0.64075199  0.38550327  1
  O  O413  1  0.63773150  0.61756225  0.88184533  1
