# generated using pymatgen
data_V79Zn79O256
_symmetry_space_group_name_H-M   'P 1'
_cell_length_a   16.91255208
_cell_length_b   16.93674413
_cell_length_c   16.93127272
_cell_angle_alpha   89.61105789
_cell_angle_beta   89.97290110
_cell_angle_gamma   90.02095231
_symmetry_Int_Tables_number   1
_chemical_formula_structural   V79Zn79O256
_chemical_formula_sum   'V79 Zn79 O256'
_cell_volume   4849.74154033
_cell_formula_units_Z   1
loop_
 _symmetry_equiv_pos_site_id
 _symmetry_equiv_pos_as_xyz
  1  'x, y, z'
loop_
 _atom_site_type_symbol
 _atom_site_label
 _atom_site_symmetry_multiplicity
 _atom_site_fract_x
 _atom_site_fract_y
 _atom_site_fract_z
 _atom_site_occupancy
  V  V0  1  0.74300339  0.88238773  0.12502384  1
  V  V1  1  0.25280858  0.12321681  0.87015408  1
  V  V2  1  0.25214255  0.88457265  0.12267476  1
  V  V3  1  0.49693043  0.49595893  0.48096221  1
  V  V4  1  0.37612869  -0.00359406  0.88209510  1
  V  V5  1  0.75926917  0.50413530  0.75267921  1
  V  V6  1  0.37554153  0.62598522  0.25191883  1
  V  V7  1  0.11462015  0.52465003  0.12401592  1
  V  V8  1  0.36991299  0.59664622  0.74773519  1
  V  V9  1  0.00109058  0.11840610  0.12464861  1
  V  V10  1  0.62404756  0.11758678  0.00479732  1
  V  V11  1  0.13019760  0.50828870  0.64335696  1
  V  V12  1  0.76189503  0.11749369  0.87025143  1
  V  V13  1  0.62321652  0.11401610  0.51338070  1
  V  V14  1  0.74317284  0.00533082  0.24878446  1
  V  V15  1  0.75122280  0.25001735  -0.00024330  1
  V  V16  1  0.36730534  0.00222473  0.37722009  1
  V  V17  1  0.76020378  0.62699574  0.87341322  1
  V  V18  1  0.25147319  0.25396863  -0.00337434  1
  V  V19  1  0.62429364  0.75524461  0.37626862  1
  V  V20  1  0.49747384  0.87237668  0.88183567  1
  V  V21  1  -0.00539029  0.87064025  0.38470535  1
  V  V22  1  0.87889981  0.23866315  0.62840014  1
  V  V23  1  0.13453344  0.87037415  0.73928856  1
  V  V24  1  0.50424266  0.60691976  0.12068455  1
  V  V25  1  0.00440817  0.75548940  0.24230169  1
  V  V26  1  0.49954773  0.75363689  0.24392512  1
  V  V27  1  0.49798297  0.24532901  0.74656436  1
  V  V28  1  0.12382953  0.37655494  0.23927269  1
  V  V29  1  0.49492369  0.88015844  0.37847367  1
  V  V30  1  0.00094487  0.87246247  0.88328639  1
  V  V31  1  0.87961848  0.62067610  0.24627494  1
  V  V32  1  0.49792730  -0.00182615  0.51703723  1
  V  V33  1  0.87596415  0.24686944  0.12754531  1
  V  V34  1  0.62514692  0.25027480  0.87710569  1
  V  V35  1  0.26350519  0.75793751  0.50649842  1
  V  V36  1  0.75212277  0.37666237  0.62596082  1
  V  V37  1  0.74559314  0.38415736  0.12347060  1
  V  V38  1  0.01130269  0.50827508  0.50269804  1
  V  V39  1  0.24532369  -0.00783294  0.74158416  1
  V  V40  1  0.62844316  0.75061529  0.87075307  1
  V  V41  1  0.48965091  0.38690070  0.88939248  1
  V  V42  1  0.87513292  0.38217819  0.49660299  1
  V  V43  1  -0.00478495  0.38179612  0.37229807  1
  V  V44  1  0.36667305  0.11956007  0.24800645  1
  V  V45  1  0.13147251  0.24502864  0.38192849  1
  V  V46  1  0.87449873  0.75638882  0.12256010  1
  V  V47  1  0.12052442  0.11819169  0.00162021  1
  V  V48  1  0.75438936  0.75758293  -0.00205560  1
  V  V49  1  0.12402321  0.25383776  0.86498168  1
  V  V50  1  0.74844342  0.24754682  0.50140520  1
  V  V51  1  0.87908178  0.38021869  -0.00584174  1
  V  V52  1  0.26479006  0.39115018  0.11022972  1
  V  V53  1  0.13936602  0.74281147  0.88806267  1
  V  V54  1  0.37546474  0.25282485  0.12207496  1
  V  V55  1  0.87790675  0.63369917  0.73326789  1
  V  V56  1  -0.00521333  0.24935346  0.24753899  1
  V  V57  1  -0.00129315  0.23028046  0.74636611  1
  V  V58  1  0.12566714  0.74738831  0.38098075  1
  V  V59  1  0.62508634  0.37796743  0.75078242  1
  V  V60  1  0.75201265  0.61794609  0.37239224  1
  V  V61  1  0.87023936  -0.00807069  0.37994376  1
  V  V62  1  0.61965157  0.37968024  0.25351579  1
  V  V63  1  0.00247013  0.74585687  0.73797875  1
  V  V64  1  0.61950330  0.50440271  0.62503579  1
  V  V65  1  0.25704874  0.60863622  0.88308846  1
  V  V66  1  0.62664004  0.87649236  0.73163133  1
  V  V67  1  0.00068244  0.37844449  0.86719366  1
  V  V68  1  0.48486370  0.74440175  0.74649892  1
  V  V69  1  0.76221798  0.75631291  0.49620874  1
  V  V70  1  0.24838129  0.62503624  0.38072972  1
  V  V71  1  0.50171484  0.11710446  0.12513532  1
  V  V72  1  0.24279730  0.36905287  0.62769455  1
  V  V73  1  0.62591868  0.61448980  0.00328726  1
  V  V74  1  -0.00021103  0.51914737  -0.00390245  1
  V  V75  1  0.75599110  0.12453336  0.37205676  1
  V  V76  1  0.76953585  0.87372032  0.61555408  1
  V  V77  1  0.25052834  0.50443299  0.25393657  1
  V  V78  1  0.00443531  0.01216503  0.50796502  1
  Zn  Zn79  1  0.13196670  -0.09942230  0.24402873  1
  Zn  Zn80  1  0.36586195  0.36752470  0.48167621  1
  Zn  Zn81  1  0.37241572  0.75366918  0.10330305  1
  Zn  Zn82  1  0.39973142  0.10890035  0.72883329  1
  Zn  Zn83  1  0.31280622  0.94283264  0.56127464  1
  Zn  Zn84  1  0.75118583  0.50130330  0.24415794  1
  Zn  Zn85  1  0.75919387  0.00839805  0.73787214  1
  Zn  Zn86  1  0.49114607  0.62683309  0.61671171  1
  Zn  Zn87  1  0.49738311  0.25397632  0.25348587  1
  Zn  Zn88  1  0.20210360  0.06522898  0.31542755  1
  Zn  Zn89  1  0.61642833  0.89094018  0.24393761  1
  Zn  Zn90  1  0.62230304  0.25109979  0.37476489  1
  Zn  Zn91  1  0.62413382  0.62890724  0.50210246  1
  Zn  Zn92  1  -0.01108309  -0.00854057  -0.00017809  1
  Zn  Zn93  1  0.50073957  -0.00775999  0.00592742  1
  Zn  Zn94  1  0.18435793  0.19351643  0.18153164  1
  Zn  Zn95  1  0.24065606  0.16967575  0.66546968  1
  Zn  Zn96  1  0.19296729  0.70075241  0.18387037  1
  Zn  Zn97  1  0.19522540  0.68325400  0.69103317  1
  Zn  Zn98  1  0.68642288  0.19032234  0.18845202  1
  Zn  Zn99  1  0.68784883  0.18928068  0.68949675  1
  Zn  Zn100  1  0.68589400  0.69095898  0.18707076  1
  Zn  Zn101  1  0.68720466  0.69244906  0.68326797  1
  Zn  Zn102  1  0.31004963  0.30896997  0.30301457  1
  Zn  Zn103  1  0.31423428  0.32311230  0.81233863  1
  Zn  Zn104  1  0.31157474  0.81445203  0.30717780  1
  Zn  Zn105  1  0.31335776  0.81069328  0.94437662  1
  Zn  Zn106  1  0.80863312  0.31452828  0.31263471  1
  Zn  Zn107  1  0.81701665  0.31074669  0.81149999  1
  Zn  Zn108  1  0.81165266  0.81484448  0.30623022  1
  Zn  Zn109  1  0.83333698  0.84563202  0.79221168  1
  Zn  Zn110  1  0.18424071  0.42965012  0.43792336  1
  Zn  Zn111  1  0.17721941  0.44143984  0.93713065  1
  Zn  Zn112  1  0.17788613  0.92751612  0.43531751  1
  Zn  Zn113  1  0.18149394  0.93546837  0.93730117  1
  Zn  Zn114  1  0.68116708  0.43712022  0.43943883  1
  Zn  Zn115  1  0.69009846  0.43797900  0.93385174  1
  Zn  Zn116  1  0.68111884  0.93729641  0.43820005  1
  Zn  Zn117  1  0.68825156  0.93625707  0.93395469  1
  Zn  Zn118  1  0.31006411  0.06330152  0.06132697  1
  Zn  Zn119  1  0.37749437  0.24898886  0.60774027  1
  Zn  Zn120  1  0.31397354  0.56575433  0.07005993  1
  Zn  Zn121  1  0.31135657  0.55178573  0.56302382  1
  Zn  Zn122  1  0.81706617  0.05940930  0.05941903  1
  Zn  Zn123  1  0.81775984  0.05671240  0.55920361  1
  Zn  Zn124  1  0.81802214  0.56863043  0.05950559  1
  Zn  Zn125  1  0.81113194  0.56495270  0.55992785  1
  Zn  Zn126  1  0.43557182  0.44008491  0.30531500  1
  Zn  Zn127  1  0.43446798  0.42498932  0.68118276  1
  Zn  Zn128  1  0.42750389  0.93719170  0.18827285  1
  Zn  Zn129  1  0.43081326  0.92770795  0.70292139  1
  Zn  Zn130  1  0.93568127  0.43770312  0.17972358  1
  Zn  Zn131  1  0.93868750  0.44027546  0.68003471  1
  Zn  Zn132  1  0.92702410  0.93930003  0.19331380  1
  Zn  Zn133  1  0.94159771  0.94050864  0.69091184  1
  Zn  Zn134  1  0.03980942  0.06683149  0.31773604  1
  Zn  Zn135  1  0.06620032  0.05676066  0.81455460  1
  Zn  Zn136  1  0.06164724  0.56528073  0.31462526  1
  Zn  Zn137  1  0.06482500  0.56749855  0.81479649  1
  Zn  Zn138  1  0.55675743  0.08235750  0.32415820  1
  Zn  Zn139  1  0.57316255  0.05699542  0.81298442  1
  Zn  Zn140  1  0.57291109  0.56712770  0.30287421  1
  Zn  Zn141  1  0.56366618  0.56413267  0.81431642  1
  Zn  Zn142  1  0.43645913  0.18264592  0.43099728  1
  Zn  Zn143  1  0.43699423  0.18812027  0.93529729  1
  Zn  Zn144  1  0.43789335  0.68038532  0.43226799  1
  Zn  Zn145  1  0.43874549  0.67249945  0.93164076  1
  Zn  Zn146  1  0.93784632  0.18984853  0.43799413  1
  Zn  Zn147  1  0.93941506  0.18991522  0.93903070  1
  Zn  Zn148  1  0.93629994  0.68582733  0.43169524  1
  Zn  Zn149  1  0.93615810  0.70678947  0.92559855  1
  Zn  Zn150  1  0.06682694  0.31256812  0.05671427  1
  Zn  Zn151  1  0.06579726  0.31613672  0.56676135  1
  Zn  Zn152  1  0.07831404  0.80981386  0.06411906  1
  Zn  Zn153  1  0.07056848  0.81088952  0.56044541  1
  Zn  Zn154  1  0.55973220  0.31334800  0.07034167  1
  Zn  Zn155  1  0.53499257  0.29381710  0.53831351  1
  Zn  Zn156  1  0.56658834  0.80541252  0.06042485  1
  Zn  Zn157  1  0.44443333  0.81071996  0.56510899  1
  O  O158  1  0.11300076  0.13522800  0.11306500  1
  O  O159  1  0.15193836  0.12204297  0.58616933  1
  O  O160  1  0.11762520  0.62220532  0.13335437  1
  O  O161  1  0.13001222  0.60874970  0.63044325  1
  O  O162  1  0.61520286  0.13269172  0.11573613  1
  O  O163  1  0.63463549  0.12393748  0.61232566  1
  O  O164  1  0.61416852  0.63086305  0.11856759  1
  O  O165  1  0.62291982  0.61481155  0.62599437  1
  O  O166  1  0.37624979  0.36973951  0.36754058  1
  O  O167  1  0.39011978  0.37295389  0.87957810  1
  O  O168  1  0.38426081  0.88841638  0.36864907  1
  O  O169  1  0.38664685  0.88464178  0.87640575  1
  O  O170  1  0.88294832  0.36950795  0.38413888  1
  O  O171  1  0.88079334  0.37215276  0.88732143  1
  O  O172  1  0.88220664  0.87947021  0.37066216  1
  O  O173  1  0.90273628  0.84350336  0.88288121  1
  O  O174  1  0.26333096  -0.00402457  0.38751982  1
  O  O175  1  0.25675084  0.00622339  0.87277553  1
  O  O176  1  0.23303530  0.50941533  0.35864624  1
  O  O177  1  0.24121622  0.50956158  0.87482030  1
  O  O178  1  0.75421464  0.00335600  0.37345142  1
  O  O179  1  0.74935794  0.01719351  0.88055410  1
  O  O180  1  0.74751898  0.51648018  0.37636062  1
  O  O181  1  0.74680159  0.51305316  0.86234076  1
  O  O182  1  0.22676247  0.50922323  0.13918827  1
  O  O183  1  0.23675246  0.49386942  0.62754322  1
  O  O184  1  0.25435447  0.98761826  0.12232491  1
  O  O185  1  0.25352791  1.00225785  0.64287759  1
  O  O186  1  0.75964880  0.48746375  0.11991173  1
  O  O187  1  0.74216232  0.49688523  0.63161158  1
  O  O188  1  0.75624118  0.99435757  0.13634372  1
  O  O189  1  0.75618182  0.97910219  0.61934096  1
  O  O190  1  0.00388121  0.37189036  0.25105239  1
  O  O191  1  -0.01089582  0.38164316  0.76633289  1
  O  O192  1  -0.00359128  0.86230641  0.25737994  1
  O  O193  1  0.01500247  0.86249447  0.75625652  1
  O  O194  1  0.51607973  0.37586867  0.24868454  1
  O  O195  1  0.51224843  0.36706860  0.76169641  1
  O  O196  1  0.49940644  0.86995459  0.25714237  1
  O  O197  1  0.51148209  0.86348914  0.75984945  1
  O  O198  1  0.48762509  0.11784479  0.23430581  1
  O  O199  1  0.50867118  0.13870920  0.75939885  1
  O  O200  1  0.49656870  0.63117117  0.23954333  1
  O  O201  1  0.48699151  0.63210107  0.75635694  1
  O  O202  1  0.99843212  0.14292550  0.23972820  1
  O  O203  1  1.00011841  0.13171816  0.75326710  1
  O  O204  1  0.98548538  0.63745866  0.25850926  1
  O  O205  1  0.99162489  0.63683175  0.75582365  1
  O  O206  1  0.36125319  0.24263982  0.00667081  1
  O  O207  1  0.42443730  0.26495835  0.50335729  1
  O  O208  1  0.39574746  0.75349698  -0.00713292  1
  O  O209  1  0.36956328  0.75051046  0.49531409  1
  O  O210  1  0.86753978  0.25961707  0.00561367  1
  O  O211  1  0.86817696  0.25842603  0.50774510  1
  O  O212  1  0.86465866  0.74177219  0.01130242  1
  O  O213  1  0.86088810  0.74919056  0.49043349  1
  O  O214  1  0.11324270  0.25879317  0.47960668  1
  O  O215  1  0.12919355  0.23904352  0.98747670  1
  O  O216  1  0.13845954  0.75252967  0.48615708  1
  O  O217  1  0.12156256  0.73855576  0.98603157  1
  O  O218  1  0.63375859  0.23903930  0.50027634  1
  O  O219  1  0.63576561  0.24605326  0.99453069  1
  O  O220  1  0.63367002  0.74553183  0.48031376  1
  O  O221  1  0.63558260  0.73967042  0.99104337  1
  O  O222  1  0.49100158  0.23844052  0.12676579  1
  O  O223  1  0.51008377  0.25699826  0.64647476  1
  O  O224  1  0.49932977  0.75192030  0.13719888  1
  O  O225  1  0.50155523  0.74369499  0.64129113  1
  O  O226  1  0.99343456  0.24993471  0.12916887  1
  O  O227  1  0.99605320  0.25481427  0.64001091  1
  O  O228  1  0.99332887  0.75760767  0.13690178  1
  O  O229  1  1.01274140  0.74998813  0.63922347  1
  O  O230  1  0.00179444  0.26023163  0.36329578  1
  O  O231  1  0.00241724  0.25562998  0.86336073  1
  O  O232  1  0.00507857  0.75312123  0.36731730  1
  O  O233  1  0.02160956  0.75131583  0.86237432  1
  O  O234  1  0.51909626  0.20505287  0.35585756  1
  O  O235  1  0.51294145  0.25775319  0.87153748  1
  O  O236  1  0.50456912  0.75814465  0.36835878  1
  O  O237  1  0.51136484  0.75262471  0.86574605  1
  O  O238  1  0.18723408  0.11248491  0.52240776  1
  O  O239  1  0.24072871  0.13288488  0.99042181  1
  O  O240  1  0.26239041  0.63000791  0.48391495  1
  O  O241  1  0.26551076  0.61959740  0.98344446  1
  O  O242  1  0.74524859  0.13131878  0.49886987  1
  O  O243  1  0.74427250  0.13511999  0.99567815  1
  O  O244  1  0.75156471  0.63550148  0.48482152  1
  O  O245  1  0.74751874  0.63404114  0.99206763  1
  O  O246  1  0.22981005  0.35722941  0.00018447  1
  O  O247  1  0.25742944  0.39117804  0.51133630  1
  O  O248  1  0.24637781  0.87672766  0.00914161  1
  O  O249  1  0.25209900  0.86355431  0.49843960  1
  O  O250  1  0.75662328  0.36868305  0.00233931  1
  O  O251  1  0.75455411  0.36695510  0.50396501  1
  O  O252  1  0.74418120  0.86387930  0.00580645  1
  O  O253  1  0.74645890  0.86545560  0.50419924  1
  O  O254  1  0.11953142  0.49513560  0.23866485  1
  O  O255  1  0.11604526  0.49679917  0.74195051  1
  O  O256  1  0.11960577  1.00886773  0.26519017  1
  O  O257  1  0.13461098  0.98427279  0.75536369  1
  O  O258  1  0.63307680  0.48607042  0.24907805  1
  O  O259  1  0.63538221  0.49601749  0.74528610  1
  O  O260  1  0.63815303  1.00721443  0.26082909  1
  O  O261  1  0.63883709  0.97898921  0.75708851  1
  O  O262  1  0.37464996  0.00753370  0.26520372  1
  O  O263  1  0.36334556  0.00184575  0.76211289  1
  O  O264  1  0.36107155  0.51180523  0.24561703  1
  O  O265  1  0.37916200  0.49815557  0.75242831  1
  O  O266  1  0.85958197  -0.00086276  0.26663406  1
  O  O267  1  0.85716201  -0.04414275  0.76112024  1
  O  O268  1  0.87652714  0.51718882  0.24179490  1
  O  O269  1  0.86449154  0.51174082  0.74030797  1
  O  O270  1  0.11510792  0.36976192  0.35845425  1
  O  O271  1  0.11345755  0.36218991  0.88079595  1
  O  O272  1  0.11360682  0.86100387  0.36423803  1
  O  O273  1  0.12423190  0.85879801  0.86728482  1
  O  O274  1  0.63736476  0.37039715  0.35915768  1
  O  O275  1  0.62815186  0.36701924  0.86659288  1
  O  O276  1  0.61256828  0.87106356  0.37085333  1
  O  O277  1  0.62313233  0.86269243  0.86882406  1
  O  O278  1  0.38000556  0.13047344  0.12833381  1
  O  O279  1  0.34913241  0.14496582  0.63674521  1
  O  O280  1  0.38947610  0.62811287  0.13193060  1
  O  O281  1  0.37646320  0.61290866  0.64204417  1
  O  O282  1  0.88247751  0.14221100  0.11698699  1
  O  O283  1  0.86847825  0.13965126  0.62188496  1
  O  O284  1  0.86672952  0.63991401  0.13885748  1
  O  O285  1  0.86880708  0.63098397  0.63390547  1
  O  O286  1  0.25510055  0.26083398  0.11368944  1
  O  O287  1  0.23440812  0.26717649  0.60994590  1
  O  O288  1  0.25773795  0.76108051  0.11972259  1
  O  O289  1  0.24692044  0.73883267  0.60208374  1
  O  O290  1  0.75747562  0.25674755  0.11540525  1
  O  O291  1  0.75690977  0.25651888  0.61949865  1
  O  O292  1  0.75424419  0.75857618  0.11796276  1
  O  O293  1  0.74250702  0.75453535  0.60165681  1
  O  O294  1  0.23017931  0.25723940  0.36760410  1
  O  O295  1  0.24374241  0.24443047  0.87566940  1
  O  O296  1  0.24538313  0.74423888  0.37973157  1
  O  O297  1  0.24288369  0.74399091  0.87840496  1
  O  O298  1  0.75340476  0.24237062  0.38722292  1
  O  O299  1  0.74427037  0.24585944  0.88212327  1
  O  O300  1  0.74442019  0.75012257  0.37871903  1
  O  O301  1  0.74377800  0.74519895  0.88144024  1
  O  O302  1  0.00515882  0.12757367  0.00833610  1
  O  O303  1  -0.00114024  0.11285837  0.49599733  1
  O  O304  1  -0.01018587  0.61642011  -0.01082520  1
  O  O305  1  -0.01208991  0.60514049  0.49044616  1
  O  O306  1  0.50899467  0.12724972  0.00573132  1
  O  O307  1  0.51523119  0.11116004  0.50074717  1
  O  O308  1  0.51024499  0.62436505  0.01216213  1
  O  O309  1  0.50503834  0.61356448  0.49964058  1
  O  O310  1  0.51976759  0.39784906  0.49260030  1
  O  O311  1  0.51008982  0.37044772  0.98707032  1
  O  O312  1  0.50027731  0.88845198  0.49114692  1
  O  O313  1  0.51671141  0.87716810  0.98488559  1
  O  O314  1  0.99278137  0.38248999  0.49083264  1
  O  O315  1  0.99268064  0.37539063  0.99097602  1
  O  O316  1  1.00093680  0.86787258  0.48661153  1
  O  O317  1  1.01757242  0.87201129  0.98701213  1
  O  O318  1  0.50279667  0.50899581  0.37641482  1
  O  O319  1  0.50851533  0.48540623  0.87432279  1
  O  O320  1  0.49282819  0.99502906  0.38043425  1
  O  O321  1  0.49385576  0.98982615  0.86976562  1
  O  O322  1  1.00335293  0.48799055  0.38107192  1
  O  O323  1  1.01367512  0.49335635  0.89221646  1
  O  O324  1  0.98689343  0.98897985  0.38260452  1
  O  O325  1  1.00467967  0.97563930  0.86921056  1
  O  O326  1  -0.01045216  0.01682322  0.13163719  1
  O  O327  1  -0.00844552  -0.00694086  0.60707764  1
  O  O328  1  0.00780648  0.50189661  0.11396940  1
  O  O329  1  0.01335435  0.49339702  0.61040852  1
  O  O330  1  0.49150879  0.01117184  0.12105240  1
  O  O331  1  0.49022516  -0.00333447  0.61492095  1
  O  O332  1  0.50197866  0.51222367  0.12892364  1
  O  O333  1  0.51290559  0.49700342  0.62484603  1
  O  O334  1  0.24280253  0.38797949  0.23413368  1
  O  O335  1  0.25415359  0.36853178  0.73005085  1
  O  O336  1  0.24712858  0.87270258  0.23681625  1
  O  O337  1  0.24151528  0.88561896  0.75471175  1
  O  O338  1  0.74954477  0.37945742  0.23854994  1
  O  O339  1  0.74754563  0.38416989  0.74863814  1
  O  O340  1  0.74297017  0.88456431  0.24247572  1
  O  O341  1  0.73687590  0.85296686  0.72377489  1
  O  O342  1  0.26073838  0.12889273  0.24006744  1
  O  O343  1  0.23398090  0.10860350  0.76286364  1
  O  O344  1  0.25729227  0.62388489  0.25422661  1
  O  O345  1  0.26754884  0.62351161  0.75832436  1
  O  O346  1  0.74625558  0.12181498  0.26135777  1
  O  O347  1  0.74496413  0.12340895  0.76467739  1
  O  O348  1  0.75690862  0.62567747  0.25639462  1
  O  O349  1  0.75713228  0.62449481  0.75372695  1
  O  O350  1  0.37376234  0.11136883  0.36558998  1
  O  O351  1  0.36322438  0.12129332  0.86895323  1
  O  O352  1  0.36551322  0.62477553  0.36023749  1
  O  O353  1  0.36750544  0.61772138  0.86191967  1
  O  O354  1  0.86261058  0.11568526  0.38332838  1
  O  O355  1  0.86015494  0.13445082  0.87929564  1
  O  O356  1  0.85999567  0.63337500  0.35858808  1
  O  O357  1  0.86299563  0.63561527  0.86434356  1
  O  O358  1  0.13279909  0.38046665  0.12954602  1
  O  O359  1  0.13419832  0.38975727  0.61860292  1
  O  O360  1  0.13986217  0.87198203  0.13104008  1
  O  O361  1  0.12876105  0.87143213  0.63989539  1
  O  O362  1  0.63823794  0.36924832  0.13375881  1
  O  O363  1  0.63363072  0.38355627  0.63982639  1
  O  O364  1  0.63776299  0.87214898  0.12600104  1
  O  O365  1  0.61470578  0.87609002  0.63583668  1
  O  O366  1  0.11434298  0.26209308  0.24927495  1
  O  O367  1  0.10800010  0.24721356  0.75980890  1
  O  O368  1  0.10818934  0.74437741  0.25446966  1
  O  O369  1  0.12545143  0.75667936  0.75296360  1
  O  O370  1  0.62766816  0.26561620  0.24986898  1
  O  O371  1  0.62395496  0.25875336  0.75952523  1
  O  O372  1  0.61445667  0.75136910  0.25897545  1
  O  O373  1  0.62121292  0.75471781  0.75708207  1
  O  O374  1  0.37675866  0.23397817  0.24196642  1
  O  O375  1  0.39721834  0.25365713  0.75907011  1
  O  O376  1  0.38736922  0.73980641  0.25376206  1
  O  O377  1  0.38954355  0.75353866  0.75566743  1
  O  O378  1  0.88310487  0.26169955  0.23817552  1
  O  O379  1  0.88905095  0.25251062  0.74354913  1
  O  O380  1  0.88302808  0.74428753  0.24248313  1
  O  O381  1  0.89476693  0.74895023  0.74906099  1
  O  O382  1  0.39672497  0.49715510  0.50218103  1
  O  O383  1  0.32492316  0.45158501  1.05468348  1
  O  O384  1  0.38801663  1.00458052  0.48815092  1
  O  O385  1  0.38148803  1.01143423  0.98452182  1
  O  O386  1  0.88005128  0.48604785  0.50898951  1
  O  O387  1  0.89137129  0.49307801  1.00674522  1
  O  O388  1  0.88378234  0.99680407  0.48755493  1
  O  O389  1  0.87818262  0.99138748  1.00087137  1
  O  O390  1  0.11393008  0.01571869  -0.01026271  1
  O  O391  1  0.10291243  -0.00980273  0.49082340  1
  O  O392  1  0.11415056  0.50511924  0.01558801  1
  O  O393  1  0.11230102  0.50359633  0.49485795  1
  O  O394  1  0.62335197  0.01464202  -0.00657564  1
  O  O395  1  0.61486329  0.00572597  0.50387718  1
  O  O396  1  0.63673290  0.51571405  -0.00358849  1
  O  O397  1  0.62181717  0.50726791  0.50873214  1
  O  O398  1  0.37190924  0.35109249  0.14454639  1
  O  O399  1  0.36435145  0.36584363  0.61599543  1
  O  O400  1  0.36278680  0.87133627  0.12546122  1
  O  O401  1  0.37512155  0.87451433  0.62466680  1
  O  O402  1  0.86897241  0.36691732  0.11300604  1
  O  O403  1  0.87006560  0.36608959  0.61709401  1
  O  O404  1  0.86136313  0.86361434  0.13218458  1
  O  O405  1  0.86591488  0.86287201  0.62048559  1
  O  O406  1  0.12080304  0.14239994  0.36548621  1
  O  O407  1  0.13013673  0.13349663  0.88070665  1
  O  O408  1  0.13552134  0.63659623  0.36675571  1
  O  O409  1  0.14429749  0.63504586  0.86392372  1
  O  O410  1  0.64533864  0.11986916  0.39399391  1
  O  O411  1  0.63349912  0.13575846  0.88412613  1
  O  O412  1  0.64076309  0.63561802  0.36800787  1
  O  O413  1  0.63405953  0.63396818  0.87965608  1
