# generated using pymatgen
data_V79Zn79O256
_symmetry_space_group_name_H-M   'P 1'
_cell_length_a   16.87781598
_cell_length_b   16.86126132
_cell_length_c   16.85493065
_cell_angle_alpha   89.86367663
_cell_angle_beta   89.97905811
_cell_angle_gamma   89.92071263
_symmetry_Int_Tables_number   1
_chemical_formula_structural   V79Zn79O256
_chemical_formula_sum   'V79 Zn79 O256'
_cell_volume   4796.57901430
_cell_formula_units_Z   1
loop_
 _symmetry_equiv_pos_site_id
 _symmetry_equiv_pos_as_xyz
  1  'x, y, z'
loop_
 _atom_site_type_symbol
 _atom_site_label
 _atom_site_symmetry_multiplicity
 _atom_site_fract_x
 _atom_site_fract_y
 _atom_site_fract_z
 _atom_site_occupancy
  V  V0  1  0.50469929  0.61373720  0.12657367  1
  V  V1  1  -0.00027060  -0.00078134  -0.00105104  1
  V  V2  1  0.24930015  0.37202524  0.11813710  1
  V  V3  1  0.49734983  0.88835384  0.87310994  1
  V  V4  1  0.12718475  0.11326328  0.50732766  1
  V  V5  1  0.87272829  0.74507186  0.62756704  1
  V  V6  1  0.75390059  0.48929508  0.75408109  1
  V  V7  1  0.36910368  0.88257307  -0.00096026  1
  V  V8  1  -0.00836516  0.37883629  0.87636198  1
  V  V9  1  0.87430849  0.26220160  0.61529885  1
  V  V10  1  0.49752732  0.75372054  0.25235797  1
  V  V11  1  0.00023609  0.62785322  0.13356386  1
  V  V12  1  0.75296947  0.00665243  0.75172730  1
  V  V13  1  0.74124792  0.26065823  0.49978213  1
  V  V14  1  0.12673979  0.36475502  0.25567231  1
  V  V15  1  0.73887861  0.75341562  -0.00113341  1
  V  V16  1  -0.00051803  0.74918226  0.75076464  1
  V  V17  1  0.25378782  0.00358037  0.76595903  1
  V  V18  1  0.71666508  0.47241668  0.24757031  1
  V  V19  1  0.12669450  0.88014232  0.74422519  1
  V  V20  1  0.12967903  0.62220128  -0.00557772  1
  V  V21  1  0.24111482  0.26078028  0.49825774  1
  V  V22  1  0.51002125  0.25018704  0.24725449  1
  V  V23  1  0.74848233  0.87406886  0.62544738  1
  V  V24  1  -0.00459160  0.11607828  0.62953799  1
  V  V25  1  0.13099641  0.74668172  0.87376911  1
  V  V26  1  0.72964839  0.12324250  0.38793146  1
  V  V27  1  0.25062416  0.88394016  0.62294802  1
  V  V28  1  0.24207217  0.12825610  0.37399511  1
  V  V29  1  0.75341259  0.62552318  0.87649657  1
  V  V30  1  0.50007811  0.74182023  0.75668443  1
  V  V31  1  0.37613409  0.24685703  0.12542888  1
  V  V32  1  0.37034565  0.25707723  0.62256187  1
  V  V33  1  0.13191286  0.12529640  -0.00440002  1
  V  V34  1  0.00361448  0.61852190  0.61934064  1
  V  V35  1  0.37456416  0.12395561  0.25367124  1
  V  V36  1  0.49816244  -0.00022309  0.48413320  1
  V  V37  1  0.88343984  0.12080944  0.27417025  1
  V  V38  1  0.74431032  0.88374291  0.12873425  1
  V  V39  1  -0.00136068  0.87446039  0.87441194  1
  V  V40  1  0.37637142  0.52487287  0.87245463  1
  V  V41  1  0.49390039  0.12509351  0.62014989  1
  V  V42  1  0.38285539  0.38143245  -0.00659758  1
  V  V43  1  0.50992155  0.36766327  0.37348183  1
  V  V44  1  0.24266124  0.74695687  0.49453289  1
  V  V45  1  0.13314709  0.49300397  0.62046214  1
  V  V46  1  0.61916360  0.75745245  0.37385837  1
  V  V47  1  0.12562258  0.86263602  0.25301687  1
  V  V48  1  0.75100268  0.00392289  0.25486612  1
  V  V49  1  0.74802374  0.74438119  0.49407239  1
  V  V50  1  0.25136643  -0.00280704  0.25374052  1
  V  V51  1  -0.01564173  0.49719850  -0.00347775  1
  V  V52  1  0.87599101  0.25988853  0.12352826  1
  V  V53  1  0.37977741  0.87684000  0.48489087  1
  V  V54  1  0.49601990  0.49842720  0.50118592  1
  V  V55  1  -0.00369711  0.12391192  0.12707783  1
  V  V56  1  0.37748517  0.74753364  0.62925197  1
  V  V57  1  0.12995517  0.24863510  0.87415715  1
  V  V58  1  0.87877927  0.75193032  0.13097819  1
  V  V59  1  0.85969393  0.62118680  0.26015423  1
  V  V60  1  0.25366943  0.74783575  0.00039658  1
  V  V61  1  0.87370648  0.01222219  0.87080637  1
  V  V62  1  0.63219809  0.48989816  0.62807149  1
  V  V63  1  0.62656159  0.60584578  0.00452852  1
  V  V64  1  -0.00519052  0.25076470  0.74874676  1
  V  V65  1  0.37189340  0.12630142  0.75685627  1
  V  V66  1  0.12970673  -0.00533178  0.12662825  1
  V  V67  1  0.87523342  0.88045081  0.49577904  1
  V  V68  1  0.25145483  0.62289932  0.36186411  1
  V  V69  1  0.12712568  0.49759992  0.12292259  1
  V  V70  1  -0.02416730  0.38600704  0.39800759  1
  V  V71  1  0.62092085  0.00348172  0.62044306  1
  V  V72  1  0.62268726  0.87249995  0.75594866  1
  V  V73  1  0.37727149  0.74700572  0.12547449  1
  V  V74  1  0.62455517  0.62498155  0.49712955  1
  V  V75  1  0.87458124  0.87566570  0.00010990  1
  V  V76  1  0.51207333  0.00416825  0.01587668  1
  V  V77  1  0.00001719  0.86722583  0.37011824  1
  V  V78  1  0.25274342  0.50913507  0.75678671  1
  Zn  Zn79  1  0.50431048  0.35150929  0.86671570  1
  Zn  Zn80  1  0.38202339  0.50373854  0.35960739  1
  Zn  Zn81  1  0.11606469  0.62604100  0.48722486  1
  Zn  Zn82  1  0.73051652  0.14791679  0.87131762  1
  Zn  Zn83  1  -0.00438290  0.00145731  0.49553752  1
  Zn  Zn84  1  0.26059152  0.50038753  0.24279521  1
  Zn  Zn85  1  0.25881849  0.24394257  -0.01178214  1
  Zn  Zn86  1  0.13236625  0.37259484  0.74753558  1
  Zn  Zn87  1  0.62200081  0.34819274  0.76118703  1
  Zn  Zn88  1  0.61453837  0.88901633  0.25208487  1
  Zn  Zn89  1  0.36825096  0.37978854  0.49726210  1
  Zn  Zn90  1  0.76286817  0.24669005  -0.00196784  1
  Zn  Zn91  1  0.49681182  0.61910227  0.63324819  1
  Zn  Zn92  1  0.87702541  0.61657927  0.75936087  1
  Zn  Zn93  1  0.00536715  0.24984106  0.26180131  1
  Zn  Zn94  1  0.18906592  0.18489798  0.18171414  1
  Zn  Zn95  1  0.18693134  0.18760543  0.68599073  1
  Zn  Zn96  1  0.18840065  0.68630848  0.18099185  1
  Zn  Zn97  1  0.19060489  0.68909020  0.68490950  1
  Zn  Zn98  1  0.69042291  0.30002727  0.17604486  1
  Zn  Zn99  1  0.69097653  0.18237048  0.67707110  1
  Zn  Zn100  1  0.68530952  0.69258783  0.18620391  1
  Zn  Zn101  1  0.68337356  0.68072808  0.68835877  1
  Zn  Zn102  1  0.31616858  0.31719241  0.31456899  1
  Zn  Zn103  1  0.31125697  0.31979801  0.80409176  1
  Zn  Zn104  1  0.31014951  0.80834058  0.30807229  1
  Zn  Zn105  1  0.31616729  0.81282684  0.81450204  1
  Zn  Zn106  1  0.81306585  0.30542646  0.31642535  1
  Zn  Zn107  1  0.81485063  0.31037441  0.80970015  1
  Zn  Zn108  1  0.81190672  0.81056191  0.31311668  1
  Zn  Zn109  1  0.80931741  0.81290032  0.81522272  1
  Zn  Zn110  1  0.18070722  0.44655778  0.43449956  1
  Zn  Zn111  1  0.18856218  0.43479947  0.93250975  1
  Zn  Zn112  1  0.18737462  0.93558097  0.43284846  1
  Zn  Zn113  1  0.18659303  0.93523272  0.93748012  1
  Zn  Zn114  1  0.69528787  0.44288932  0.42987382  1
  Zn  Zn115  1  0.69024986  0.42488271  0.93824645  1
  Zn  Zn116  1  0.68702855  0.93675803  0.43689027  1
  Zn  Zn117  1  0.68772416  0.94183232  0.93778989  1
  Zn  Zn118  1  0.31467717  0.06275434  0.06672517  1
  Zn  Zn119  1  0.31498087  0.06235366  0.55961644  1
  Zn  Zn120  1  0.31684850  0.56334754  0.06034770  1
  Zn  Zn121  1  0.31150950  0.56482107  0.56523305  1
  Zn  Zn122  1  0.80499239  0.06780517  0.05736274  1
  Zn  Zn123  1  0.81277183  0.06622244  0.56568248  1
  Zn  Zn124  1  0.80520783  0.56016681  0.07782953  1
  Zn  Zn125  1  0.81405654  0.55489731  0.55747564  1
  Zn  Zn126  1  0.43991951  0.43324297  0.18785584  1
  Zn  Zn127  1  0.44371890  0.43489536  0.69841516  1
  Zn  Zn128  1  0.43187484  0.93430805  0.18549639  1
  Zn  Zn129  1  0.43388761  0.93789182  0.68409285  1
  Zn  Zn130  1  0.93876596  0.44222821  0.19711548  1
  Zn  Zn131  1  0.94062876  0.43523297  0.68601608  1
  Zn  Zn132  1  0.93709875  0.93937646  0.19101398  1
  Zn  Zn133  1  0.93528844  0.93487457  0.68615862  1
  Zn  Zn134  1  0.06358475  0.05393946  0.31930245  1
  Zn  Zn135  1  0.06379606  0.06262622  0.81096283  1
  Zn  Zn136  1  0.06692147  0.55838383  0.31414001  1
  Zn  Zn137  1  0.06270301  0.56091167  0.80870809  1
  Zn  Zn138  1  0.56492459  0.06907191  0.30485080  1
  Zn  Zn139  1  0.55918662  0.06774220  0.80561209  1
  Zn  Zn140  1  0.56429044  0.56437970  0.31227875  1
  Zn  Zn141  1  0.58273146  0.52392120  0.83873150  1
  Zn  Zn142  1  0.43232223  0.18765959  0.43492101  1
  Zn  Zn143  1  0.44756262  0.18700057  0.93757419  1
  Zn  Zn144  1  0.43455265  0.68555437  0.43830630  1
  Zn  Zn145  1  0.44987787  0.69224128  0.94012608  1
  Zn  Zn146  1  0.95292646  0.20503770  0.44278707  1
  Zn  Zn147  1  0.94241286  0.19067503  0.94022024  1
  Zn  Zn148  1  0.93857027  0.69060302  0.43680787  1
  Zn  Zn149  1  0.93595665  0.68679732  0.94287153  1
  Zn  Zn150  1  0.05753257  0.31035705  0.06174484  1
  Zn  Zn151  1  0.06093929  0.31205963  0.55807143  1
  Zn  Zn152  1  0.06389273  0.81226495  0.06359173  1
  Zn  Zn153  1  0.05910773  0.81272970  0.56283673  1
  Zn  Zn154  1  0.55132852  0.29541162  0.03672214  1
  Zn  Zn155  1  0.55993030  0.31271842  0.56362086  1
  Zn  Zn156  1  0.55872473  0.81811556  0.06586391  1
  Zn  Zn157  1  0.56054179  0.81492025  0.56514503  1
  O  O158  1  0.11666144  0.11604847  0.11835779  1
  O  O159  1  0.11632021  0.12714561  0.61407400  1
  O  O160  1  0.11999847  0.61843372  0.11450608  1
  O  O161  1  0.11199169  0.62325656  0.62543587  1
  O  O162  1  0.62183635  0.11924577  0.12113912  1
  O  O163  1  0.61132016  0.11125518  0.62747265  1
  O  O164  1  0.61706983  0.63038933  0.11513136  1
  O  O165  1  0.61852601  0.61847929  0.61318017  1
  O  O166  1  0.38582354  0.38192597  0.37940675  1
  O  O167  1  0.38024114  0.36332653  0.88853253  1
  O  O168  1  0.37088562  0.87104441  0.38606450  1
  O  O169  1  0.38322245  0.87262463  0.88895890  1
  O  O170  1  0.87957171  0.38335572  0.36543367  1
  O  O171  1  0.89208119  0.37427354  0.87010698  1
  O  O172  1  0.88669939  0.86676233  0.38312947  1
  O  O173  1  0.88073842  0.88031367  0.88093352  1
  O  O174  1  0.24455089  0.01110690  0.36350400  1
  O  O175  1  0.25296656  -0.00228145  0.86543203  1
  O  O176  1  0.25308512  0.51356012  0.37253706  1
  O  O177  1  0.25546758  0.50339468  0.86508199  1
  O  O178  1  0.74668487  0.01246306  0.37375549  1
  O  O179  1  0.75861669  -0.00083655  0.86626169  1
  O  O180  1  0.73967191  0.50199487  0.34462244  1
  O  O181  1  0.74736600  0.50444330  0.86115930  1
  O  O182  1  0.24294010  0.49225705  0.11808653  1
  O  O183  1  0.23894049  0.50428617  0.63242534  1
  O  O184  1  0.23726464  1.00431061  0.13517339  1
  O  O185  1  0.25365297  0.98725628  0.62725216  1
  O  O186  1  0.75367704  0.49619163  0.15294187  1
  O  O187  1  0.73863987  0.50518044  0.63142192  1
  O  O188  1  0.76129056  0.99254228  0.13533173  1
  O  O189  1  0.74187195  0.99563546  0.63026301  1
  O  O190  1  0.02198602  0.37677552  0.24522481  1
  O  O191  1  0.00656637  0.36757181  0.75635751  1
  O  O192  1  0.00906764  0.87665243  0.26006525  1
  O  O193  1  0.00907894  0.87046139  0.75213061  1
  O  O194  1  0.49796295  0.36205005  0.26110760  1
  O  O195  1  0.50480167  0.35730845  0.75143199  1
  O  O196  1  0.49998842  0.86110538  0.24413591  1
  O  O197  1  0.50483884  0.87675533  0.75545279  1
  O  O198  1  0.48743701  0.13936925  0.25826699  1
  O  O199  1  0.47869171  0.11513861  0.73400509  1
  O  O200  1  0.50762436  0.63611952  0.23402855  1
  O  O201  1  0.50653163  0.64215763  0.75457098  1
  O  O202  1  0.99686269  0.12120630  0.24615024  1
  O  O203  1  1.00886251  0.13281302  0.73546967  1
  O  O204  1  1.00638733  0.62195254  0.23523793  1
  O  O205  1  0.99525171  0.63106719  0.74178494  1
  O  O206  1  0.37593276  0.25836098  0.00966297  1
  O  O207  1  0.36113178  0.24904238  0.50770951  1
  O  O208  1  0.37015974  0.75645069  0.00197310  1
  O  O209  1  0.36952820  0.76230220  0.50670128  1
  O  O210  1  0.88600881  0.25337258  0.01772424  1
  O  O211  1  0.86972864  0.24798542  0.51118685  1
  O  O212  1  0.86597207  0.75630144  0.00927727  1
  O  O213  1  0.86580275  0.75578216  0.50864305  1
  O  O214  1  0.13784619  0.24059477  0.50577621  1
  O  O215  1  0.12269258  0.24090746  0.99205197  1
  O  O216  1  0.14059875  0.75353041  0.50526398  1
  O  O217  1  0.13260184  0.74508572  0.99428661  1
  O  O218  1  0.64231345  0.24766503  0.51677462  1
  O  O219  1  0.62349396  0.16591791  1.06462912  1
  O  O220  1  0.62754201  0.74663134  0.49628918  1
  O  O221  1  0.63695663  0.75334475  1.00493201  1
  O  O222  1  0.48784371  0.26072863  0.13724972  1
  O  O223  1  0.48332983  0.23632003  0.61022939  1
  O  O224  1  0.49428126  0.74481648  0.13056173  1
  O  O225  1  0.49276291  0.75319259  0.63632442  1
  O  O226  1  0.99644536  0.23866547  0.13192744  1
  O  O227  1  0.99301533  0.24362335  0.62886245  1
  O  O228  1  0.99016788  0.73988840  0.11353913  1
  O  O229  1  0.99253996  0.74263625  0.63093627  1
  O  O230  1  0.00370639  0.28019467  0.37463869  1
  O  O231  1  0.00590152  0.25634257  0.86666159  1
  O  O232  1  0.00856579  0.76692119  0.38495968  1
  O  O233  1  0.00761997  0.75463403  0.87199070  1
  O  O234  1  0.49594731  0.25872367  0.36658788  1
  O  O235  1  0.53099614  0.26054833  0.93191151  1
  O  O236  1  0.50461472  0.74229301  0.36399982  1
  O  O237  1  0.49778907  0.76460406  0.86163344  1
  O  O238  1  0.24076563  0.12718170  0.49476022  1
  O  O239  1  0.23675114  0.12482674  1.00461965  1
  O  O240  1  0.24766826  0.64067289  0.50122891  1
  O  O241  1  0.23843104  0.63249722  1.00097793  1
  O  O242  1  0.74988177  0.12562950  0.49156929  1
  O  O243  1  0.74697368  0.13037645  0.98482043  1
  O  O244  1  0.74022947  0.63701800  0.50845257  1
  O  O245  1  0.74159674  0.63179991  1.00241643  1
  O  O246  1  0.25600229  0.36966654  0.00563195  1
  O  O247  1  0.24559679  0.36346380  0.49379139  1
  O  O248  1  0.26119650  0.86596245  -0.00470114  1
  O  O249  1  0.25809682  0.86873390  0.50234917  1
  O  O250  1  0.71162417  0.35128638  0.02438424  1
  O  O251  1  0.74853387  0.36022360  0.49012804  1
  O  O252  1  0.75470698  0.87282529  0.00743196  1
  O  O253  1  0.75464454  0.86622685  0.50569709  1
  O  O254  1  0.13279563  0.49214251  0.23245695  1
  O  O255  1  0.13312746  0.50030970  0.74077530  1
  O  O256  1  0.13211503  0.99423674  0.24312077  1
  O  O257  1  0.13804005  0.99002748  0.75554195  1
  O  O258  1  0.61642898  0.49005222  0.24241876  1
  O  O259  1  0.63549098  0.51014800  0.73383320  1
  O  O260  1  0.64301434  1.00492598  0.25104341  1
  O  O261  1  0.63097178  0.99293840  0.74198111  1
  O  O262  1  0.36226576  0.00886778  0.23940592  1
  O  O263  1  0.36184683  0.00885443  0.74699416  1
  O  O264  1  0.37309086  0.50167101  0.24535852  1
  O  O265  1  0.36459437  0.50108969  0.75951295  1
  O  O266  1  0.87041270  0.01405823  0.25147351  1
  O  O267  1  0.86465633  -0.01006147  0.75807596  1
  O  O268  1  0.88197548  0.52197042  0.25126272  1
  O  O269  1  0.85742098  0.49950103  0.73779104  1
  O  O270  1  0.14267877  0.37543103  0.35398681  1
  O  O271  1  0.11346550  0.36496128  0.87590298  1
  O  O272  1  0.11857321  0.87443879  0.36204511  1
  O  O273  1  0.11983668  0.86632678  0.86691867  1
  O  O274  1  0.60845158  0.37494297  0.38104633  1
  O  O275  1  0.60849240  0.40924841  0.86319352  1
  O  O276  1  0.62350928  0.86304137  0.37325580  1
  O  O277  1  0.61759879  0.87964397  0.86273692  1
  O  O278  1  0.36683782  0.13697872  0.13757365  1
  O  O279  1  0.37721725  0.13116411  0.62830643  1
  O  O280  1  0.39278440  0.63566207  0.10884754  1
  O  O281  1  0.37835809  0.64223908  0.62060439  1
  O  O282  1  0.88971170  0.12491757  0.12717135  1
  O  O283  1  0.89200760  0.13271833  0.61989457  1
  O  O284  1  0.88238488  0.63361119  0.13349647  1
  O  O285  1  0.88376169  0.63352653  0.62548868  1
  O  O286  1  0.25815901  0.25659306  0.11953731  1
  O  O287  1  0.25836806  0.24488196  0.61058137  1
  O  O288  1  0.26106611  0.74332940  0.11058249  1
  O  O289  1  0.25767075  0.76016273  0.61713972  1
  O  O290  1  0.77366269  0.23799521  0.12609337  1
  O  O291  1  0.76567523  0.24229902  0.61566539  1
  O  O292  1  0.75942514  0.76089944  0.11877817  1
  O  O293  1  0.75487869  0.75360521  0.62028759  1
  O  O294  1  0.25461872  0.24087675  0.38860803  1
  O  O295  1  0.23439928  0.25550075  0.87086428  1
  O  O296  1  0.25419536  0.74166215  0.38744376  1
  O  O297  1  0.23950168  0.75462969  0.88250091  1
  O  O298  1  0.75742230  0.23328617  0.39068199  1
  O  O299  1  0.74862687  0.26239964  0.88340177  1
  O  O300  1  0.73940390  0.75504287  0.38731355  1
  O  O301  1  0.75235342  0.74192597  0.88699051  1
  O  O302  1  0.01015069  0.11782396  0.00811979  1
  O  O303  1  0.01338761  0.12586466  0.50837198  1
  O  O304  1  0.00872378  0.61488210  0.00586668  1
  O  O305  1  0.00098346  0.63257666  0.51500342  1
  O  O306  1  0.48341387  0.10012468  0.00129622  1
  O  O307  1  0.48606063  0.10774561  0.50459057  1
  O  O308  1  0.51909373  0.62896382  0.00753031  1
  O  O309  1  0.50616312  0.61453556  0.50196380  1
  O  O310  1  0.49753332  0.38039096  0.49111817  1
  O  O311  1  0.47945273  0.39111479  1.01355389  1
  O  O312  1  0.48728002  0.88258600  0.50092421  1
  O  O313  1  0.49174332  0.88274461  0.99266114  1
  O  O314  1  0.98925184  0.37615605  0.49896917  1
  O  O315  1  1.00258962  0.39077754  0.99604705  1
  O  O316  1  0.99213619  0.87624563  0.49562420  1
  O  O317  1  0.99635954  0.87999776  0.99465809  1
  O  O318  1  0.50182871  0.49202487  0.38532454  1
  O  O319  1  0.47459202  0.50262542  0.86967649  1
  O  O320  1  0.50643694  1.00368277  0.38528657  1
  O  O321  1  0.50295805  0.99276672  0.87812745  1
  O  O322  1  1.01907346  0.47665235  0.37434524  1
  O  O323  1  1.00411714  0.49697048  0.88848461  1
  O  O324  1  1.00465905  0.98008988  0.38239069  1
  O  O325  1  0.99462171  0.99337712  0.87693541  1
  O  O326  1  0.00812465  0.00522017  0.12036654  1
  O  O327  1  -0.00347877  0.01234967  0.62349545  1
  O  O328  1  0.00853442  0.50605590  0.11309204  1
  O  O329  1  0.00911160  0.51372616  0.63225750  1
  O  O330  1  0.50380420  -0.01008337  0.11634602  1
  O  O331  1  0.50322180  0.00488478  0.61670951  1
  O  O332  1  0.49726521  0.51523728  0.12596722  1
  O  O333  1  0.51052455  0.49929816  0.61999739  1
  O  O334  1  0.24412844  0.37353634  0.23339770  1
  O  O335  1  0.24640157  0.39469903  0.74920599  1
  O  O336  1  0.23662498  0.88320874  0.25720855  1
  O  O337  1  0.24746068  0.88473393  0.74529224  1
  O  O338  1  0.73405485  0.36628883  0.25616004  1
  O  O339  1  0.74135749  0.38640614  0.75248853  1
  O  O340  1  0.75490907  0.88764869  0.24624513  1
  O  O341  1  0.74074586  0.87970781  0.74532929  1
  O  O342  1  0.25148339  0.11958576  0.25641400  1
  O  O343  1  0.25493727  0.11065610  0.74432069  1
  O  O344  1  0.24950056  0.62815183  0.25859412  1
  O  O345  1  0.24620014  0.61134846  0.74650479  1
  O  O346  1  0.77047975  0.12038494  0.27712702  1
  O  O347  1  0.74929871  0.10978343  0.75103817  1
  O  O348  1  0.75855412  0.62929062  0.24805167  1
  O  O349  1  0.75084197  0.62007214  0.76090711  1
  O  O350  1  0.36064992  0.12763542  0.36271208  1
  O  O351  1  0.37938334  0.13948623  0.85532275  1
  O  O352  1  0.35753051  0.62250051  0.38258583  1
  O  O353  1  0.37423561  0.62381052  0.88347382  1
  O  O354  1  0.89808845  0.12572550  0.37261951  1
  O  O355  1  0.88486546  0.11250932  0.87463777  1
  O  O356  1  0.87842002  0.64193185  0.35740583  1
  O  O357  1  0.86131743  0.62510891  0.87892663  1
  O  O358  1  0.13230887  0.38018133  0.12323883  1
  O  O359  1  0.11758509  0.39062970  0.62392941  1
  O  O360  1  0.11597310  0.88488698  0.13752328  1
  O  O361  1  0.13341834  0.86758742  0.63715586  1
  O  O362  1  0.64449970  0.34886683  0.08022196  1
  O  O363  1  0.62319906  0.38743184  0.62968609  1
  O  O364  1  0.64088268  0.87014957  0.13238837  1
  O  O365  1  0.62760646  0.88481489  0.63293665  1
  O  O366  1  0.12688349  0.26014783  0.24239700  1
  O  O367  1  0.11606529  0.25001749  0.75502872  1
  O  O368  1  0.12930048  0.76418047  0.24069810  1
  O  O369  1  0.12297655  0.75763496  0.75723608  1
  O  O370  1  0.60822898  0.24253090  0.23758532  1
  O  O371  1  0.61887347  0.22280378  0.75886332  1
  O  O372  1  0.61735218  0.75249974  0.25960847  1
  O  O373  1  0.61176081  0.76237820  0.73981743  1
  O  O374  1  0.37671856  0.24377326  0.24281042  1
  O  O375  1  0.35896999  0.23674367  0.73221887  1
  O  O376  1  0.38060449  0.75350584  0.23633030  1
  O  O377  1  0.38818229  0.75926671  0.74250282  1
  O  O378  1  0.88172134  0.23087413  0.24568439  1
  O  O379  1  0.88801238  0.25119062  0.73833840  1
  O  O380  1  0.87189982  0.74509898  0.23648427  1
  O  O381  1  0.87875411  0.75153681  0.74078859  1
  O  O382  1  0.38785849  0.49900988  0.50858195  1
  O  O383  1  0.35954224  0.48917908  0.98132277  1
  O  O384  1  0.38295934  0.98661827  0.49972056  1
  O  O385  1  0.37511184  0.98453867  1.00800372  1
  O  O386  1  0.87969885  0.50862226  0.48328657  1
  O  O387  1  0.88631646  0.50655634  1.00773607  1
  O  O388  1  0.87196881  0.98332251  0.50838198  1
  O  O389  1  0.88044070  0.99499060  0.99101074  1
  O  O390  1  0.12138578  0.00310915  0.00582567  1
  O  O391  1  0.12784609  0.01051209  0.50283660  1
  O  O392  1  0.12380359  0.50720977  0.00524044  1
  O  O393  1  0.13172412  0.50921099  0.51649297  1
  O  O394  1  0.61227432  -0.00002332  -0.00152400  1
  O  O395  1  0.60838129  -0.01168090  0.50902468  1
  O  O396  1  0.63584136  0.50812885  0.01068498  1
  O  O397  1  0.62204828  0.50463429  0.50873480  1
  O  O398  1  0.36548797  0.36979506  0.11523343  1
  O  O399  1  0.37997934  0.35898338  0.62363932  1
  O  O400  1  0.37962168  0.86040903  0.10813371  1
  O  O401  1  0.36699784  0.86767772  0.61694824  1
  O  O402  1  0.88352909  0.35789573  0.14203600  1
  O  O403  1  0.87816954  0.36146238  0.62414167  1
  O  O404  1  0.87192455  0.87022076  0.12050044  1
  O  O405  1  0.87080292  0.86319598  0.61812361  1
  O  O406  1  0.13119070  0.12441621  0.38908631  1
  O  O407  1  0.11607914  0.13404625  0.88462487  1
  O  O408  1  0.14142967  0.62271429  0.37558850  1
  O  O409  1  0.11701937  0.63623311  0.88294111  1
  O  O410  1  0.63134591  0.13017270  0.37881245  1
  O  O411  1  0.61690478  0.16883741  0.82720113  1
  O  O412  1  0.62011189  0.63585249  0.38931778  1
  O  O413  1  0.63726104  0.61547669  0.89349565  1
