# generated using pymatgen
data_V79Zn79O256
_symmetry_space_group_name_H-M   'P 1'
_cell_length_a   16.88495654
_cell_length_b   16.96231093
_cell_length_c   16.95557303
_cell_angle_alpha   89.97870545
_cell_angle_beta   90.02116113
_cell_angle_gamma   89.91794806
_symmetry_Int_Tables_number   1
_chemical_formula_structural   V79Zn79O256
_chemical_formula_sum   'V79 Zn79 O256'
_cell_volume   4856.20412570
_cell_formula_units_Z   1
loop_
 _symmetry_equiv_pos_site_id
 _symmetry_equiv_pos_as_xyz
  1  'x, y, z'
loop_
 _atom_site_type_symbol
 _atom_site_label
 _atom_site_symmetry_multiplicity
 _atom_site_fract_x
 _atom_site_fract_y
 _atom_site_fract_z
 _atom_site_occupancy
  V  V0  1  0.38355406  0.73946494  0.12282885  1
  V  V1  1  0.88965290  0.75306549  0.62276032  1
  V  V2  1  0.61368247  0.61991442  0.00280952  1
  V  V3  1  0.49692758  0.74398048  0.74901590  1
  V  V4  1  0.87367436  0.25679117  0.11695510  1
  V  V5  1  0.00979482  0.37410553  0.88485960  1
  V  V6  1  0.60586417  0.49442638  0.12086207  1
  V  V7  1  0.87452115  0.36259902  0.49644098  1
  V  V8  1  0.74364244  0.50630867  0.73829885  1
  V  V9  1  0.11637214  0.00931307  0.61708951  1
  V  V10  1  0.74740463  0.25460441  -0.00707598  1
  V  V11  1  0.50366236  0.01544648  0.50860031  1
  V  V12  1  0.25220772  0.37181072  0.12428008  1
  V  V13  1  0.86549020  0.12371535  0.25561475  1
  V  V14  1  0.51125755  0.24403406  0.24744552  1
  V  V15  1  0.24785596  0.87229462  0.12157305  1
  V  V16  1  0.12468190  0.49634407  0.11758637  1
  V  V17  1  0.25576142  0.50407494  0.74751841  1
  V  V18  1  0.37963184  0.24471428  0.12408739  1
  V  V19  1  0.13273311  0.75165672  0.37785989  1
  V  V20  1  0.38007418  -0.00164685  0.37989512  1
  V  V21  1  0.36627379  0.74150780  0.63181036  1
  V  V22  1  0.38875744  0.62180965  0.24640898  1
  V  V23  1  0.25614213  0.25031560  -0.00161038  1
  V  V24  1  0.50665200  0.61343150  0.62119439  1
  V  V25  1  0.25354474  0.49165208  0.25159373  1
  V  V26  1  0.11965850  0.87353666  0.25382158  1
  V  V27  1  0.38376237  0.87138701  0.50602006  1
  V  V28  1  0.37273769  -0.00972571  0.87594701  1
  V  V29  1  0.38285149  0.11970439  0.24887096  1
  V  V30  1  0.25012700  0.62478201  0.37722214  1
  V  V31  1  0.87783250  0.49457984  0.88506287  1
  V  V32  1  0.00652843  0.25426247  0.25370283  1
  V  V33  1  0.62351417  0.74872834  0.87035858  1
  V  V34  1  0.11875914  0.74744320  0.86981784  1
  V  V35  1  0.25609601  0.62483533  0.86938301  1
  V  V36  1  0.12108712  0.62506380  0.50024368  1
  V  V37  1  -0.01018154  -0.00306260  0.48667195  1
  V  V38  1  0.87751281  0.75469704  0.11652490  1
  V  V39  1  0.61752993  0.11440617  0.00124093  1
  V  V40  1  0.06896691  0.43376771  0.30669744  1
  V  V41  1  -0.00228948  0.75416729  0.25011765  1
  V  V42  1  0.62676755  0.24131652  0.40064493  1
  V  V43  1  0.12305035  0.13125638  -0.00427751  1
  V  V44  1  0.86365349  0.61999923  0.24618734  1
  V  V45  1  0.38295801  0.37446118  0.50222238  1
  V  V46  1  0.89537546  0.62686892  0.74524037  1
  V  V47  1  -0.00610862  0.87460969  0.87808839  1
  V  V48  1  0.74269639  0.73768546  0.49035824  1
  V  V49  1  0.49688772  0.87278304  0.87017437  1
  V  V50  1  0.62056715  0.37161254  0.75648394  1
  V  V51  1  0.62147601  0.01150833  0.63235930  1
  V  V52  1  0.11476276  0.50119236  0.62532702  1
  V  V53  1  0.74858536  0.12303956  0.39966502  1
  V  V54  1  0.75108906  -0.01122260  0.75419603  1
  V  V55  1  -0.00019092  0.12744368  0.12529647  1
  V  V56  1  0.24558455  0.12651656  0.87523489  1
  V  V57  1  0.24844189  0.87662288  0.62029275  1
  V  V58  1  0.02209717  0.25933158  0.74850061  1
  V  V59  1  0.11646073  0.87374566  0.74920341  1
  V  V60  1  0.24792503  0.74929874  -0.00042775  1
  V  V61  1  0.24801833  0.00443155  0.74989201  1
  V  V62  1  0.00431368  0.62069035  0.12106247  1
  V  V63  1  0.87260305  0.13917859  0.74500299  1
  V  V64  1  0.75633943  0.75383170  -0.00139827  1
  V  V65  1  0.12450520  0.24549765  0.37551333  1
  V  V66  1  0.74149580  0.86580783  0.61888809  1
  V  V67  1  0.50686260  0.36906517  0.37232000  1
  V  V68  1  0.12315086  0.00025841  0.12664588  1
  V  V69  1  0.62324604  0.87757280  0.27027315  1
  V  V70  1  0.42582550  0.92515531  0.05583802  1
  V  V71  1  0.38642442  0.24534917  0.63273562  1
  V  V72  1  0.24657452  0.37604428  0.63044125  1
  V  V73  1  0.38140339  0.48736610  0.88595371  1
  V  V74  1  0.25310671  -0.00202981  0.25292593  1
  V  V75  1  0.38521623  0.49656589  0.37727384  1
  V  V76  1  -0.00630308  -0.00115942  -0.00325536  1
  V  V77  1  0.74957742  0.36102628  0.61846623  1
  V  V78  1  0.24445812  0.24535700  0.50032453  1
  Zn  Zn79  1  0.74602574  0.48937544  0.24487610  1
  Zn  Zn80  1  0.74078253  0.89457273  0.12613407  1
  Zn  Zn81  1  -0.00506055  0.14275123  0.61242062  1
  Zn  Zn82  1  0.85881778  -0.02779176  0.37108428  1
  Zn  Zn83  1  0.73858034  0.37598301  0.12837036  1
  Zn  Zn84  1  0.12069809  0.61718172  -0.00669656  1
  Zn  Zn85  1  0.40198557  0.12608792  0.74712994  1
  Zn  Zn86  1  0.24781813  0.12302653  0.38062863  1
  Zn  Zn87  1  0.80195525  0.56500703  0.41165964  1
  Zn  Zn88  1  0.75123892  0.62169249  0.87342570  1
  Zn  Zn89  1  0.75052118  0.12783528  0.87285713  1
  Zn  Zn90  1  0.87447684  -0.00159816  0.87295698  1
  Zn  Zn91  1  0.57752562  0.22651652  0.83776460  1
  Zn  Zn92  1  0.51836250  0.74923081  0.28101272  1
  Zn  Zn93  1  -0.01455681  0.50080208  0.49035286  1
  Zn  Zn94  1  0.18840067  0.18711127  0.19005865  1
  Zn  Zn95  1  0.18920277  0.18929980  0.68547117  1
  Zn  Zn96  1  0.19005733  0.68269154  0.19127575  1
  Zn  Zn97  1  0.18269303  0.68526661  0.68706304  1
  Zn  Zn98  1  0.68775828  0.17621399  0.17585425  1
  Zn  Zn99  1  0.69255901  0.18724810  0.68533834  1
  Zn  Zn100  1  0.68065980  0.69111640  0.18146965  1
  Zn  Zn101  1  0.68381094  0.68444308  0.68586819  1
  Zn  Zn102  1  0.31634994  0.30863098  0.31266070  1
  Zn  Zn103  1  0.30955057  0.31308140  0.81163229  1
  Zn  Zn104  1  0.34322969  0.79602378  0.32895601  1
  Zn  Zn105  1  0.30633361  0.81249044  0.80882718  1
  Zn  Zn106  1  0.81067474  0.30519411  0.30747142  1
  Zn  Zn107  1  0.80964670  0.32253245  0.81252708  1
  Zn  Zn108  1  0.80022650  0.80641015  0.30293084  1
  Zn  Zn109  1  0.81309145  0.80733271  0.80772281  1
  Zn  Zn110  1  0.19407433  0.43830963  0.44613137  1
  Zn  Zn111  1  0.19414575  0.43337834  0.93485385  1
  Zn  Zn112  1  0.18766226  0.93792395  0.43806359  1
  Zn  Zn113  1  0.18013270  0.93786140  0.93843107  1
  Zn  Zn114  1  0.72221762  0.40863415  0.40581297  1
  Zn  Zn115  1  0.69075428  0.43811188  0.93669399  1
  Zn  Zn116  1  0.68652893  0.93800013  0.44497833  1
  Zn  Zn117  1  0.68375849  0.93069849  0.93884140  1
  Zn  Zn118  1  0.31056545  0.06675823  0.06461017  1
  Zn  Zn119  1  0.31402447  0.06508756  0.56727702  1
  Zn  Zn120  1  0.31049336  0.56263092  0.05863772  1
  Zn  Zn121  1  0.31370993  0.55998821  0.55890868  1
  Zn  Zn122  1  0.80472975  0.06623793  0.05890623  1
  Zn  Zn123  1  0.81796198  0.05490243  0.56799640  1
  Zn  Zn124  1  0.80125855  0.56581698  0.06314606  1
  Zn  Zn125  1  0.82234074  0.56281901  0.57167411  1
  Zn  Zn126  1  0.43953931  0.42923913  0.18600754  1
  Zn  Zn127  1  0.43518299  0.43466624  0.69594821  1
  Zn  Zn128  1  0.59352936  0.99872806  0.13766474  1
  Zn  Zn129  1  0.43879533  0.93562521  0.69217414  1
  Zn  Zn130  1  0.93221001  0.44051996  0.17843170  1
  Zn  Zn131  1  0.93121027  0.43179501  0.68906191  1
  Zn  Zn132  1  0.90516622  0.95701629  0.17206742  1
  Zn  Zn133  1  0.93335015  0.93514668  0.68436399  1
  Zn  Zn134  1  0.06207513  0.06580786  0.31196880  1
  Zn  Zn135  1  0.05802078  0.06606545  0.80762496  1
  Zn  Zn136  1  0.00029640  0.61924978  0.36383572  1
  Zn  Zn137  1  0.06643048  0.55263039  0.81190130  1
  Zn  Zn138  1  0.56662710  0.05699667  0.31982302  1
  Zn  Zn139  1  0.56592122  0.05815112  0.82534538  1
  Zn  Zn140  1  0.59464452  0.53787866  0.32565957  1
  Zn  Zn141  1  0.55861540  0.56264331  0.81088399  1
  Zn  Zn142  1  0.43469984  0.18757139  0.43956192  1
  Zn  Zn143  1  0.43844677  0.17637556  0.92599829  1
  Zn  Zn144  1  0.44078465  0.68488358  0.44224588  1
  Zn  Zn145  1  0.43350192  0.68419965  0.93691834  1
  Zn  Zn146  1  0.94073251  0.18452837  0.43864466  1
  Zn  Zn147  1  0.93560598  0.18993874  0.92740505  1
  Zn  Zn148  1  0.93130028  0.81283605  0.43985419  1
  Zn  Zn149  1  0.93868457  0.67979117  0.93353583  1
  Zn  Zn150  1  0.06671052  0.31488623  0.06235363  1
  Zn  Zn151  1  0.05687548  0.32069525  0.55791746  1
  Zn  Zn152  1  0.06224526  0.81132049  0.06051039  1
  Zn  Zn153  1  0.06788391  0.81728612  0.55756440  1
  Zn  Zn154  1  0.56116343  0.30550781  0.05612911  1
  Zn  Zn155  1  0.56682383  0.32022319  0.57221917  1
  Zn  Zn156  1  0.57051854  0.81070646  0.06376360  1
  Zn  Zn157  1  0.56370646  0.80833015  0.56480433  1
  O  O158  1  0.11658474  0.12140987  0.11970996  1
  O  O159  1  0.12129523  0.11079210  0.63052053  1
  O  O160  1  0.12160850  0.61312477  0.12789212  1
  O  O161  1  0.13288380  0.61429239  0.61238170  1
  O  O162  1  0.63268513  0.10427422  0.10893378  1
  O  O163  1  0.63147257  0.10973056  0.62559939  1
  O  O164  1  0.62554395  0.61867626  0.10778789  1
  O  O165  1  0.60675210  0.62618936  0.62592597  1
  O  O166  1  0.38425786  0.37642594  0.38221870  1
  O  O167  1  0.36479090  0.38842517  0.87316276  1
  O  O168  1  0.36191271  0.88951337  0.39845176  1
  O  O169  1  0.37601018  0.88205300  0.87184846  1
  O  O170  1  0.84281130  0.37354746  0.39553978  1
  O  O171  1  0.88287379  0.38979507  0.87110576  1
  O  O172  1  0.88110801  0.86528586  0.35527975  1
  O  O173  1  0.89069816  0.87354082  0.86592591  1
  O  O174  1  0.25586548  0.00248384  0.36933130  1
  O  O175  1  0.25118857  0.00003690  0.86735891  1
  O  O176  1  0.26072324  0.49982536  0.36737451  1
  O  O177  1  0.25074826  0.50774422  0.86622564  1
  O  O178  1  0.75075693  0.01829213  0.38659744  1
  O  O179  1  0.74921575  -0.00724053  0.86040909  1
  O  O180  1  0.71452007  0.51093923  0.35755854  1
  O  O181  1  0.76559721  0.49846419  0.86296560  1
  O  O182  1  0.24685361  0.49217491  0.13346672  1
  O  O183  1  0.25088457  0.49341817  0.62979495  1
  O  O184  1  0.24559124  0.99240378  0.13140363  1
  O  O185  1  0.23971824  0.99765933  0.63217261  1
  O  O186  1  0.73770745  0.49503476  0.12316751  1
  O  O187  1  0.74779616  0.50271901  0.63699997  1
  O  O188  1  0.80047220  0.98842416  0.13407946  1
  O  O189  1  0.74080969  0.98920597  0.63144151  1
  O  O190  1  0.00277968  0.37347125  0.25085840  1
  O  O191  1  -0.00281918  0.36210016  0.75348558  1
  O  O192  1  0.01451690  0.86594446  0.24159841  1
  O  O193  1  0.01134541  0.88308440  0.75816787  1
  O  O194  1  0.49314171  0.35722405  0.26406499  1
  O  O195  1  0.52066190  0.37939724  0.74557924  1
  O  O196  1  0.52323328  0.86359573  0.24756960  1
  O  O197  1  0.49584138  0.86188830  0.76086271  1
  O  O198  1  0.48980772  0.12698764  0.25782972  1
  O  O199  1  0.49152170  0.14750518  0.81176933  1
  O  O200  1  0.48780663  0.62607939  0.25832119  1
  O  O201  1  0.49670981  0.63794961  0.74069050  1
  O  O202  1  0.99916723  0.13658147  0.24160338  1
  O  O203  1  0.99037652  0.14290266  0.75224674  1
  O  O204  1  0.99290073  0.63880098  0.23813973  1
  O  O205  1  0.99430812  0.62177068  0.74932281  1
  O  O206  1  0.36328325  0.23114726  0.01192007  1
  O  O207  1  0.36745429  0.25647632  0.50944671  1
  O  O208  1  0.35867589  0.74010638  0.01049666  1
  O  O209  1  0.37422243  0.76660234  0.51899146  1
  O  O210  1  0.86850479  0.23800632  0.01267405  1
  O  O211  1  0.88382942  0.26310004  0.50135641  1
  O  O212  1  0.86336716  0.73938359  -0.00023375  1
  O  O213  1  0.86534971  0.75241175  0.51897230  1
  O  O214  1  0.13247348  0.26332873  0.48745452  1
  O  O215  1  0.13645067  0.23661428  1.00732745  1
  O  O216  1  0.12353820  0.74376548  0.48704915  1
  O  O217  1  0.13350862  0.74865095  0.98902583  1
  O  O218  1  0.61945022  0.24312693  0.49841597  1
  O  O219  1  0.64315941  0.23546635  1.01185305  1
  O  O220  1  0.64178041  0.75099138  0.50538326  1
  O  O221  1  0.63424905  0.74042594  0.99289471  1
  O  O222  1  0.48707560  0.25678508  0.13308015  1
  O  O223  1  0.48504628  0.25540779  0.62367612  1
  O  O224  1  0.48204778  0.75085663  0.11553316  1
  O  O225  1  0.48616119  0.74687121  0.63240788  1
  O  O226  1  0.99597339  0.24515525  0.13027483  1
  O  O227  1  1.01243494  0.25326895  0.64046712  1
  O  O228  1  0.99961041  0.74203612  0.13008322  1
  O  O229  1  0.98885400  0.76117964  0.62205309  1
  O  O230  1  0.00819495  0.24721756  0.36352583  1
  O  O231  1  -0.00532568  0.26394534  0.86173435  1
  O  O232  1  0.01315950  0.74430417  0.36203174  1
  O  O233  1  0.01179995  0.75799520  0.88381809  1
  O  O234  1  0.51220667  0.24655664  0.37031390  1
  O  O235  1  0.49304422  0.28331970  0.90297825  1
  O  O236  1  0.44797512  0.75979701  0.36557515  1
  O  O237  1  0.49931330  0.75319828  0.86812742  1
  O  O238  1  0.25462066  0.14087813  0.50166368  1
  O  O239  1  0.24021251  0.12792315  0.99526820  1
  O  O240  1  0.24364043  0.61666777  0.48372434  1
  O  O241  1  0.24199787  0.63344818  0.98976753  1
  O  O242  1  0.75977940  0.12869728  0.49732003  1
  O  O243  1  0.74583974  0.13314058  0.99385680  1
  O  O244  1  0.75815227  0.63474504  0.50139225  1
  O  O245  1  0.73992584  0.63655354  0.99110590  1
  O  O246  1  0.24686044  0.35832936  0.00717703  1
  O  O247  1  0.26275721  0.36659047  0.50801491  1
  O  O248  1  0.23890834  0.86671663  0.01172208  1
  O  O249  1  0.25811115  0.88510621  0.51588779  1
  O  O250  1  0.74526615  0.35757143  0.00640444  1
  O  O251  1  0.74998442  0.37793343  0.51459923  1
  O  O252  1  0.75084433  0.85639115  -0.00584478  1
  O  O253  1  0.75245764  0.86975954  0.51560461  1
  O  O254  1  0.13436389  0.48891418  0.24534859  1
  O  O255  1  0.13602878  0.50500855  0.73098944  1
  O  O256  1  0.13149754  0.99386052  0.24726685  1
  O  O257  1  0.12941492  0.99377757  0.74098528  1
  O  O258  1  0.62165556  0.50777058  0.22296973  1
  O  O259  1  0.63976225  0.49442389  0.75742179  1
  O  O260  1  0.62033832  0.98732674  0.25054157  1
  O  O261  1  0.63585181  1.00488076  0.74239539  1
  O  O262  1  0.36754333  0.00425708  0.26481349  1
  O  O263  1  0.36567482  0.00463445  0.75677982  1
  O  O264  1  0.37242401  0.50223301  0.25622105  1
  O  O265  1  0.35952104  0.49798756  0.75866332  1
  O  O266  1  0.89366097  0.02416030  0.26741148  1
  O  O267  1  0.86126486  0.00272364  0.74834191  1
  O  O268  1  0.87109562  0.51672007  0.23560841  1
  O  O269  1  0.86801651  0.51384551  0.74783127  1
  O  O270  1  0.12534482  0.37480615  0.36996238  1
  O  O271  1  0.10974887  0.38617769  0.87304634  1
  O  O272  1  0.13793372  0.86410590  0.36414356  1
  O  O273  1  0.11897555  0.86791378  0.86673254  1
  O  O274  1  0.61756848  0.35273745  0.38204114  1
  O  O275  1  0.63704763  0.37496619  0.85714572  1
  O  O276  1  0.62741231  0.87783809  0.37126860  1
  O  O277  1  0.60723797  0.86003533  0.88506119  1
  O  O278  1  0.37007000  0.13155533  0.13788936  1
  O  O279  1  0.37356832  0.13855208  0.63238587  1
  O  O280  1  0.36951142  0.63130278  0.13089459  1
  O  O281  1  0.36461526  0.64121015  0.62559384  1
  O  O282  1  0.88650854  0.13474329  0.13736930  1
  O  O283  1  0.88069748  0.11718034  0.64162574  1
  O  O284  1  0.88427768  0.63257255  0.12697894  1
  O  O285  1  0.87827791  0.63851379  0.63683347  1
  O  O286  1  0.25656991  0.25320626  0.12125388  1
  O  O287  1  0.25114156  0.25910293  0.61782183  1
  O  O288  1  0.24967887  0.75555972  0.11798434  1
  O  O289  1  0.25836691  0.76265491  0.63564574  1
  O  O290  1  0.76557810  0.24711381  0.12070551  1
  O  O291  1  0.75375947  0.26210031  0.62431981  1
  O  O292  1  0.75849973  0.74811427  0.10731774  1
  O  O293  1  0.75027254  0.75850378  0.62491779  1
  O  O294  1  0.24344066  0.25205879  0.38226395  1
  O  O295  1  0.25895834  0.23573573  0.88400336  1
  O  O296  1  0.24624094  0.73570356  0.36362228  1
  O  O297  1  0.24237860  0.74504627  0.87929525  1
  O  O298  1  0.73173173  0.23904868  0.37580496  1
  O  O299  1  0.75926677  0.25296194  0.89056450  1
  O  O300  1  0.75588657  0.74873007  0.39271249  1
  O  O301  1  0.74107950  0.74951411  0.87922470  1
  O  O302  1  0.00646350  0.12355386  0.00501597  1
  O  O303  1  -0.00495934  0.10726105  0.50367549  1
  O  O304  1  0.00440612  0.62954884  0.01553670  1
  O  O305  1  0.01805427  0.61482518  0.48402740  1
  O  O306  1  0.51830550  0.13466798  -0.00236803  1
  O  O307  1  0.49495181  0.11403155  0.50785079  1
  O  O308  1  0.51420927  0.63157502  -0.00407006  1
  O  O309  1  0.48081561  0.62571458  0.52294244  1
  O  O310  1  0.49098779  0.36578556  0.49040442  1
  O  O311  1  0.50289733  0.33894256  0.95933709  1
  O  O312  1  0.48642544  0.88349317  0.51267072  1
  O  O313  1  0.48631351  0.86951262  0.99297687  1
  O  O314  1  0.98059848  0.38460389  0.49894213  1
  O  O315  1  1.00036406  0.36449250  0.98478140  1
  O  O316  1  1.00143604  0.88793678  0.49750721  1
  O  O317  1  1.00986847  0.88760774  0.99046584  1
  O  O318  1  0.49491457  0.48374457  0.36682647  1
  O  O319  1  0.47934033  0.50511472  0.86702872  1
  O  O320  1  0.49088089  1.00417780  0.39623812  1
  O  O321  1  0.48634785  0.98434393  0.86951767  1
  O  O322  1  1.01706228  0.49953259  0.36242186  1
  O  O323  1  0.98949956  0.48831629  0.86832131  1
  O  O324  1  1.00531660  1.00244051  0.38672495  1
  O  O325  1  1.00363621  0.99197237  0.88056151  1
  O  O326  1  0.00144645  0.01058792  0.11816292  1
  O  O327  1  0.01043583  -0.00338965  0.62069638  1
  O  O328  1  0.01392519  0.50669892  0.13208286  1
  O  O329  1  0.01416246  0.49488486  0.62594886  1
  O  O330  1  0.47758068  -0.01531472  0.11386160  1
  O  O331  1  0.51108659  -0.00098717  0.62528669  1
  O  O332  1  0.50404417  0.49570049  0.11982930  1
  O  O333  1  0.48622775  0.51620246  0.63545446  1
  O  O334  1  0.25929068  0.38395402  0.24293232  1
  O  O335  1  0.24924025  0.38312531  0.73643824  1
  O  O336  1  0.24327837  0.88436228  0.23824461  1
  O  O337  1  0.24083012  0.88774247  0.74276147  1
  O  O338  1  0.75144555  0.37340486  0.24252721  1
  O  O339  1  0.75098321  0.38835623  0.73674301  1
  O  O340  1  0.72967755  0.86501310  0.23842299  1
  O  O341  1  0.75012267  0.88483626  0.74304275  1
  O  O342  1  0.25679417  0.11097388  0.24936297  1
  O  O343  1  0.24457665  0.11470690  0.75925291  1
  O  O344  1  0.25680987  0.60827844  0.25715812  1
  O  O345  1  0.24389054  0.61776375  0.75885052  1
  O  O346  1  0.76523021  0.12672967  0.24781535  1
  O  O347  1  0.75992753  0.11397629  0.74915529  1
  O  O348  1  0.76316263  0.63107546  0.23927185  1
  O  O349  1  0.75113036  0.61451998  0.75188889  1
  O  O350  1  0.37087910  0.11594061  0.36965367  1
  O  O351  1  0.35589505  0.10448616  0.88312969  1
  O  O352  1  0.36858178  0.61061491  0.36840169  1
  O  O353  1  0.35973988  0.61903727  0.87646681  1
  O  O354  1  0.85801242  0.14172041  0.36558693  1
  O  O355  1  0.87328981  0.11867012  0.85855941  1
  O  O356  1  0.88104055  0.62533901  0.35007834  1
  O  O357  1  0.87771063  0.61555169  0.85959264  1
  O  O358  1  0.14022461  0.38014122  0.12386370  1
  O  O359  1  0.13647152  0.39195571  0.61214361  1
  O  O360  1  0.13048841  0.87949766  0.13296314  1
  O  O361  1  0.13140316  0.88243359  0.63204648  1
  O  O362  1  0.61792907  0.38993652  0.10884195  1
  O  O363  1  0.64065604  0.37740943  0.63627388  1
  O  O364  1  0.62846581  0.89342362  0.10826284  1
  O  O365  1  0.63698428  0.88042664  0.62727803  1
  O  O366  1  0.11710096  0.25194328  0.25591438  1
  O  O367  1  0.12131191  0.24967132  0.75745862  1
  O  O368  1  0.12093305  0.75543669  0.25504065  1
  O  O369  1  0.13141243  0.76162736  0.75878247  1
  O  O370  1  0.61187511  0.23475981  0.24141096  1
  O  O371  1  0.63504472  0.26398644  0.74785638  1
  O  O372  1  0.62552810  0.75580979  0.25163245  1
  O  O373  1  0.61469265  0.74495559  0.76220485  1
  O  O374  1  0.38144567  0.23714269  0.24589060  1
  O  O375  1  0.36837029  0.25120947  0.73528685  1
  O  O376  1  0.36520851  0.73781101  0.22918123  1
  O  O377  1  0.37920927  0.75634102  0.73840818  1
  O  O378  1  0.88738691  0.24266539  0.24145244  1
  O  O379  1  0.86505640  0.23888770  0.74998029  1
  O  O380  1  0.88144261  0.74111622  0.23504766  1
  O  O381  1  0.87367604  0.73413680  0.74316714  1
  O  O382  1  0.37064011  0.48706174  0.48715293  1
  O  O383  1  0.36739714  0.50022850  0.98582426  1
  O  O384  1  0.38450397  0.99569894  0.50320646  1
  O  O385  1  0.36677743  0.98949065  0.99602148  1
  O  O386  1  0.86887540  0.50261245  0.48792195  1
  O  O387  1  0.87055809  0.51032037  0.98266601  1
  O  O388  1  0.88469898  0.99567862  0.49251546  1
  O  O389  1  0.89172158  1.01116393  0.99249539  1
  O  O390  1  0.11713168  0.01130978  0.00719502  1
  O  O391  1  0.12009106  -0.00398992  0.51347806  1
  O  O392  1  0.13615771  0.49936102  0.01420231  1
  O  O393  1  0.12742745  0.50693428  0.51026474  1
  O  O394  1  0.62334902  0.01395469  -0.01685447  1
  O  O395  1  0.61046879  -0.00409669  0.51508456  1
  O  O396  1  0.62779385  0.51359528  0.00025008  1
  O  O397  1  0.62146868  0.57129153  0.47793619  1
  O  O398  1  0.36281179  0.36029867  0.12829252  1
  O  O399  1  0.36877630  0.36679757  0.61948438  1
  O  O400  1  0.36492731  0.86062272  0.11774146  1
  O  O401  1  0.36658380  0.87581647  0.62132819  1
  O  O402  1  0.88140026  0.35713514  0.12171721  1
  O  O403  1  0.85996959  0.38461859  0.61099924  1
  O  O404  1  0.88763515  0.85394239  0.12273681  1
  O  O405  1  0.86093096  0.85924819  0.63814284  1
  O  O406  1  0.12961909  0.14066796  0.37117037  1
  O  O407  1  0.13385117  0.11635249  0.88469853  1
  O  O408  1  0.13458002  0.63429709  0.37860597  1
  O  O409  1  0.12947907  0.63245059  0.87279180  1
  O  O410  1  0.63583807  0.13068530  0.38114013  1
  O  O411  1  0.63377474  0.13376595  0.88433469  1
  O  O412  1  0.59966688  0.61270069  0.42013969  1
  O  O413  1  0.62388703  0.63417134  0.88145936  1
