# generated using pymatgen
data_V79Zn79O256
_symmetry_space_group_name_H-M   'P 1'
_cell_length_a   16.89684665
_cell_length_b   16.96077653
_cell_length_c   16.93413401
_cell_angle_alpha   89.97012941
_cell_angle_beta   89.98492188
_cell_angle_gamma   89.35771309
_symmetry_Int_Tables_number   1
_chemical_formula_structural   V79Zn79O256
_chemical_formula_sum   'V79 Zn79 O256'
_cell_volume   4852.74002050
_cell_formula_units_Z   1
loop_
 _symmetry_equiv_pos_site_id
 _symmetry_equiv_pos_as_xyz
  1  'x, y, z'
loop_
 _atom_site_type_symbol
 _atom_site_label
 _atom_site_symmetry_multiplicity
 _atom_site_fract_x
 _atom_site_fract_y
 _atom_site_fract_z
 _atom_site_occupancy
  V  V0  1  0.36937449  0.02201470  0.36489541  1
  V  V1  1  0.00799322  0.87207737  0.36827518  1
  V  V2  1  0.49807448  0.37216698  0.37178674  1
  V  V3  1  0.50690831  0.49665308  0.49423793  1
  V  V4  1  0.62157137  0.86823319  0.25234153  1
  V  V5  1  0.62962967  0.00190615  0.63272454  1
  V  V6  1  0.12348971  0.62497333  0.50012380  1
  V  V7  1  0.12960174  0.38326883  0.23867449  1
  V  V8  1  0.00077980  0.74543276  0.24771464  1
  V  V9  1  0.63054506  0.24315351  0.37058433  1
  V  V10  1  0.37526593  0.11750348  0.74899800  1
  V  V11  1  0.48713868  0.24631026  0.24447278  1
  V  V12  1  0.75542711  0.62962613  0.35860172  1
  V  V13  1  0.63351676  0.12221277  0.49783693  1
  V  V14  1  0.73992227  0.75095678  -0.00057810  1
  V  V15  1  0.87560901  0.50693808  0.36541661  1
  V  V16  1  0.12775590  0.35742016  0.75510137  1
  V  V17  1  0.49981522  0.49272747  -0.00284822  1
  V  V18  1  0.63245982  0.61658685  0.49492879  1
  V  V19  1  0.75182047  0.36852371  0.62405834  1
  V  V20  1  0.39584422  0.61923795  0.74442430  1
  V  V21  1  -0.00773570  0.12849417  0.62722863  1
  V  V22  1  0.12288942  0.12224865  0.00150894  1
  V  V23  1  0.25029420  0.37358268  0.62207211  1
  V  V24  1  0.36974323  0.74193091  0.13633184  1
  V  V25  1  0.00773852  0.62190862  0.12619707  1
  V  V26  1  0.26874462  0.49939647  0.24429134  1
  V  V27  1  0.75277890  0.25469216  0.01018463  1
  V  V28  1  0.37500321  0.48979540  0.87427779  1
  V  V29  1  0.24863514  0.50609426  0.75504534  1
  V  V30  1  0.12318093  0.50379592  0.62742603  1
  V  V31  1  -0.00825725  -0.00376188  0.00624859  1
  V  V32  1  0.87690839  0.49356727  0.87514021  1
  V  V33  1  0.49855525  0.01083363  0.50017191  1
  V  V34  1  0.62070840  0.12481829  0.00256916  1
  V  V35  1  0.48802368  0.12523384  0.12421474  1
  V  V36  1  0.49979212  0.25227455  0.74670575  1
  V  V37  1  -0.01079213  0.25263579  0.24640033  1
  V  V38  1  0.49652367  0.87708955  0.37790662  1
  V  V39  1  0.12838543  0.74613561  0.37419637  1
  V  V40  1  0.13462023  0.12435004  0.50160164  1
  V  V41  1  0.00074216  -0.00186558  0.49928625  1
  V  V42  1  0.86998205  0.37327768  0.01433754  1
  V  V43  1  0.51425504  0.84664532  0.87279374  1
  V  V44  1  0.87862714  0.62548902  0.74565467  1
  V  V45  1  0.88211082  0.74713534  0.62317714  1
  V  V46  1  0.87620122  0.37036771  0.50563239  1
  V  V47  1  0.74575480  0.87622621  0.12694382  1
  V  V48  1  0.87375337  0.87332574  0.49415242  1
  V  V49  1  0.00073767  0.75215184  0.76859677  1
  V  V50  1  0.74385949  0.62888191  0.87536745  1
  V  V51  1  -0.00542188  0.12407015  0.13171837  1
  V  V52  1  0.61465757  0.62488457  0.00120301  1
  V  V53  1  0.13188885  0.24655050  0.37833385  1
  V  V54  1  0.63912828  0.49393856  0.12909808  1
  V  V55  1  0.75317408  0.11434222  0.87265947  1
  V  V56  1  0.74190153  0.74819408  0.49272791  1
  V  V57  1  0.38229826  0.24774130  0.62450016  1
  V  V58  1  0.12400648  0.87090905  0.76829828  1
  V  V59  1  0.62030565  0.37646740  0.75147752  1
  V  V60  1  0.74222803  0.87648344  0.63465046  1
  V  V61  1  0.75624913  0.24456753  0.49661322  1
  V  V62  1  0.13397173  -0.01313473  0.62996291  1
  V  V63  1  0.23865211  0.25983281  0.00763113  1
  V  V64  1  0.75019766  0.49933653  0.74770146  1
  V  V65  1  0.00426407  0.37555124  0.37907492  1
  V  V66  1  0.62144189  0.25502537  0.87467537  1
  V  V67  1  0.23014121  0.00967935  0.25265190  1
  V  V68  1  0.26288081  0.61706490  0.37630968  1
  V  V69  1  0.61975784  0.00204731  0.13002484  1
  V  V70  1  -0.00079462  0.50367481  0.50822239  1
  V  V71  1  0.37659148  0.36696959  0.01474261  1
  V  V72  1  0.87376589  0.74328208  0.12842390  1
  V  V73  1  0.12915063  0.62722168  -0.01726522  1
  V  V74  1  0.86938598  0.00958008  0.35490489  1
  V  V75  1  0.87162968  0.87765610  0.00171654  1
  V  V76  1  0.00484216  0.49756121  0.00357608  1
  V  V77  1  -0.02278863  0.24484409  0.75240180  1
  V  V78  1  0.37557993  0.38482059  0.49578151  1
  Zn  Zn79  1  0.25379952  0.12753109  0.87394096  1
  Zn  Zn80  1  0.86691918  0.09605133  0.74997274  1
  Zn  Zn81  1  0.24516551  0.74699441  -0.00663863  1
  Zn  Zn82  1  0.24218864  0.86687101  0.15217266  1
  Zn  Zn83  1  0.00657680  0.36225742  0.88306150  1
  Zn  Zn84  1  0.26069952  0.24249883  0.49414581  1
  Zn  Zn85  1  0.64156382  0.36878084  0.23728096  1
  Zn  Zn86  1  -0.06076145  0.94004262  0.83653845  1
  Zn  Zn87  1  0.48934966  0.74405979  0.25776465  1
  Zn  Zn88  1  0.41751286  0.00186270  -0.08977682  1
  Zn  Zn89  1  0.49231759  0.61912841  0.14219635  1
  Zn  Zn90  1  0.30745378  0.80843628  0.56835394  1
  Zn  Zn91  1  0.62431435  0.50112704  0.62472053  1
  Zn  Zn92  1  0.47990796  0.65430788  0.60334871  1
  Zn  Zn93  1  0.37156185  0.87771586  0.01195548  1
  Zn  Zn94  1  0.18513206  0.19160366  0.18639795  1
  Zn  Zn95  1  0.19207663  0.17890146  0.67780864  1
  Zn  Zn96  1  0.19029085  0.68091568  0.18986590  1
  Zn  Zn97  1  0.24892612  0.73131527  0.74955683  1
  Zn  Zn98  1  0.69055843  0.18211006  0.19155181  1
  Zn  Zn99  1  0.69089811  0.18563736  0.68614709  1
  Zn  Zn100  1  0.67737591  0.68628565  0.18308273  1
  Zn  Zn101  1  0.68934786  0.68579142  0.67652969  1
  Zn  Zn102  1  0.31065007  0.31364946  0.30943205  1
  Zn  Zn103  1  0.31073986  0.30925501  0.82187078  1
  Zn  Zn104  1  0.29639703  0.83488571  0.35228705  1
  Zn  Zn105  1  0.28442841  0.85178369  0.86527346  1
  Zn  Zn106  1  0.80996930  0.31801910  0.31401536  1
  Zn  Zn107  1  0.80500042  0.31016860  0.81992443  1
  Zn  Zn108  1  0.81562335  0.81860142  0.30836765  1
  Zn  Zn109  1  0.80781255  0.81315429  0.81574982  1
  Zn  Zn110  1  0.19127235  0.44069550  0.43591339  1
  Zn  Zn111  1  0.19003917  0.43574408  0.93674165  1
  Zn  Zn112  1  0.19794996  0.93603190  0.44617414  1
  Zn  Zn113  1  0.22220561  0.96980226  0.96375310  1
  Zn  Zn114  1  0.69503596  0.42961706  0.41158480  1
  Zn  Zn115  1  0.68820890  0.43929641  0.93709983  1
  Zn  Zn116  1  0.69072694  0.93894908  0.43043631  1
  Zn  Zn117  1  0.63735254  0.95530278  0.91595915  1
  Zn  Zn118  1  0.30409287  0.06660473  0.07702598  1
  Zn  Zn119  1  0.34597211  -0.00851575  0.60531498  1
  Zn  Zn120  1  0.31261770  0.56102672  0.06334933  1
  Zn  Zn121  1  0.28766785  0.64023489  0.58950611  1
  Zn  Zn122  1  0.80757741  0.07088161  0.09462397  1
  Zn  Zn123  1  0.81361040  0.05802313  0.55962365  1
  Zn  Zn124  1  0.81443074  0.56341156  0.06248795  1
  Zn  Zn125  1  0.81178643  0.55930583  0.56107183  1
  Zn  Zn126  1  0.44800462  0.43580077  0.18556855  1
  Zn  Zn127  1  0.43678444  0.44274592  0.67827204  1
  Zn  Zn128  1  0.42648417  0.93695164  0.19053449  1
  Zn  Zn129  1  0.40513474  0.89689010  0.74050789  1
  Zn  Zn130  1  0.94048824  0.43727508  0.18717878  1
  Zn  Zn131  1  0.93941211  0.43176115  0.68955982  1
  Zn  Zn132  1  1.06619888  0.93562456  0.18661011  1
  Zn  Zn133  1  0.93948235  0.93214989  0.67257705  1
  Zn  Zn134  1  0.05415857  0.07011197  0.32009681  1
  Zn  Zn135  1  0.10455209  0.03815184  0.84098976  1
  Zn  Zn136  1  0.06077285  0.56478831  0.31281710  1
  Zn  Zn137  1  0.05963575  0.55841057  0.80897378  1
  Zn  Zn138  1  0.56439541  0.06404136  0.30995720  1
  Zn  Zn139  1  0.55836505  0.07058565  0.80703806  1
  Zn  Zn140  1  0.56667755  0.56160008  0.31344798  1
  Zn  Zn141  1  0.56135723  0.56007632  0.81815302  1
  Zn  Zn142  1  0.44361690  0.19136396  0.44059043  1
  Zn  Zn143  1  0.43528938  0.19173505  0.93223119  1
  Zn  Zn144  1  0.43953739  0.69450779  0.44220245  1
  Zn  Zn145  1  0.38571081  0.70784644  0.90759753  1
  Zn  Zn146  1  0.94216594  0.18526523  0.43499221  1
  Zn  Zn147  1  0.93462777  0.18163175  0.93774200  1
  Zn  Zn148  1  0.93856537  0.68718927  0.43719794  1
  Zn  Zn149  1  0.93122249  0.68280380  0.94258860  1
  Zn  Zn150  1  0.05953745  0.31329620  0.06606036  1
  Zn  Zn151  1  0.06287655  0.30925984  0.56734727  1
  Zn  Zn152  1  0.06908765  0.80867681  0.05639436  1
  Zn  Zn153  1  0.06618881  0.80678259  0.56344965  1
  Zn  Zn154  1  0.56236906  0.31289913  0.06364645  1
  Zn  Zn155  1  0.56729850  0.31263432  0.56020960  1
  Zn  Zn156  1  0.54521548  0.81373576  0.05714200  1
  Zn  Zn157  1  0.47747497  0.83572548  0.57888903  1
  O  O158  1  0.10537156  0.14892879  0.11008908  1
  O  O159  1  0.11420031  0.11120009  0.62282023  1
  O  O160  1  0.11074454  0.62637563  0.11591140  1
  O  O161  1  0.13072617  0.60591983  0.61294285  1
  O  O162  1  0.61558805  0.12057010  0.11900139  1
  O  O163  1  0.63881606  0.11154693  0.61222698  1
  O  O164  1  0.62200030  0.61194822  0.11477396  1
  O  O165  1  0.62927574  0.61805156  0.60419181  1
  O  O166  1  0.38814116  0.36211226  0.38336906  1
  O  O167  1  0.37526511  0.38443343  0.88468113  1
  O  O168  1  0.39511928  0.90064573  0.37120840  1
  O  O169  1  0.38700868  0.90003800  0.85451342  1
  O  O170  1  0.88686889  0.38731828  0.38660455  1
  O  O171  1  0.87372530  0.38551973  0.87902731  1
  O  O172  1  0.88696744  0.87816775  0.38115892  1
  O  O173  1  0.86665251  0.87250788  0.89617373  1
  O  O174  1  0.26420661  0.00691247  0.37395497  1
  O  O175  1  0.21631438  0.02300857  0.86414194  1
  O  O176  1  0.25118593  0.51028673  0.36871721  1
  O  O177  1  0.25816411  0.49244968  0.86418642  1
  O  O178  1  0.77004419  -0.00614110  0.37308637  1
  O  O179  1  0.73093383  0.01772080  0.88343444  1
  O  O180  1  0.77024037  0.51738482  0.38371623  1
  O  O181  1  0.75851746  0.50741958  0.86872756  1
  O  O182  1  0.25152279  0.50667366  0.14613543  1
  O  O183  1  0.23972181  0.48308455  0.63591761  1
  O  O184  1  0.24688838  0.99900790  0.14989572  1
  O  O185  1  0.23250546  0.99978760  0.62346343  1
  O  O186  1  0.73917626  0.50264795  0.12000110  1
  O  O187  1  0.74978248  0.48812855  0.63008000  1
  O  O188  1  0.73760567  0.97951034  0.11414247  1
  O  O189  1  0.74527028  0.98594711  0.61879788  1
  O  O190  1  0.00842611  0.36941861  0.25894062  1
  O  O191  1  0.01163063  0.35864163  0.74541245  1
  O  O192  1  0.00571025  0.86379050  0.26193942  1
  O  O193  1  -0.00296555  0.86197883  0.75313683  1
  O  O194  1  0.50828973  0.36101149  0.25517997  1
  O  O195  1  0.51420138  0.37243485  0.74274580  1
  O  O196  1  0.50891580  0.88129344  0.25917218  1
  O  O197  1  0.51240298  0.87383038  0.77233616  1
  O  O198  1  0.50443804  0.13793438  0.23890702  1
  O  O199  1  0.49120119  0.14335795  0.74663512  1
  O  O200  1  0.50717269  0.63267423  0.25425119  1
  O  O201  1  0.49869575  0.60820197  0.73679906  1
  O  O202  1  1.00770538  0.14296605  0.24216126  1
  O  O203  1  0.98972188  0.13823486  0.74500377  1
  O  O204  1  1.00075291  0.63256437  0.24011758  1
  O  O205  1  0.98672394  0.63542015  0.75473608  1
  O  O206  1  0.37806865  0.26471490  0.00211493  1
  O  O207  1  0.37858199  0.25967942  0.50833068  1
  O  O208  1  0.36385344  0.75145498  0.01458678  1
  O  O209  1  0.41564982  0.74097172  0.54353198  1
  O  O210  1  0.86124839  0.25809278  -0.00534321  1
  O  O211  1  0.87147449  0.26144672  0.49057045  1
  O  O212  1  0.86567819  0.75523663  0.00858310  1
  O  O213  1  0.87207364  0.75512809  0.50506921  1
  O  O214  1  0.12398829  0.24222055  0.49521072  1
  O  O215  1  0.13488212  0.26123558  0.99762541  1
  O  O216  1  0.11221928  0.73335089  0.48974744  1
  O  O217  1  0.12329955  0.73106298  0.99249214  1
  O  O218  1  0.63380974  0.23889372  0.49551199  1
  O  O219  1  0.63150521  0.24922744  0.99227528  1
  O  O220  1  0.64102964  0.73646316  0.49329200  1
  O  O221  1  0.63289831  0.73773663  1.01447777  1
  O  O222  1  0.50742654  0.24326080  0.13844120  1
  O  O223  1  0.49416452  0.26034866  0.63356427  1
  O  O224  1  0.48335075  0.74865672  0.12938692  1
  O  O225  1  0.53654602  0.75251887  0.64903473  1
  O  O226  1  0.99666086  0.25464307  0.14308047  1
  O  O227  1  1.00439302  0.23863831  0.63695425  1
  O  O228  1  0.99342918  0.74265291  0.12972540  1
  O  O229  1  0.98470936  0.75374746  0.63011610  1
  O  O230  1  0.00865243  0.25971470  0.36882358  1
  O  O231  1  -0.01224376  0.24967586  0.85808402  1
  O  O232  1  0.00323175  0.75307776  0.36699944  1
  O  O233  1  -0.01184301  0.74942222  0.86695288  1
  O  O234  1  0.50758933  0.24935287  0.36015101  1
  O  O235  1  0.51275754  0.25058753  0.86403571  1
  O  O236  1  0.49142937  0.77403129  0.37650798  1
  O  O237  1  0.48944039  0.74869101  0.87710563  1
  O  O238  1  0.23398936  0.12678499  0.51105961  1
  O  O239  1  0.23115330  0.13420513  1.00784662  1
  O  O240  1  0.23573370  0.61713844  0.48692039  1
  O  O241  1  0.22964694  0.61396816  1.00213512  1
  O  O242  1  0.74944328  0.13551953  0.50367281  1
  O  O243  1  0.74071880  0.13899343  0.99588380  1
  O  O244  1  0.75064875  0.63157119  0.49401724  1
  O  O245  1  0.74392069  0.63125835  0.99289666  1
  O  O246  1  0.26108759  0.36740953  -0.00153710  1
  O  O247  1  0.25805299  0.37581479  0.50667212  1
  O  O248  1  0.25305813  0.86376051  -0.02108829  1
  O  O249  1  0.27278487  0.85547251  0.46968799  1
  O  O250  1  0.75623045  0.36335645  -0.00810267  1
  O  O251  1  0.75829900  0.36792847  0.50425701  1
  O  O252  1  0.75148529  0.86056447  0.00931844  1
  O  O253  1  0.75929489  0.86511611  0.49544572  1
  O  O254  1  0.11882377  0.48398737  0.25644236  1
  O  O255  1  0.12787743  0.49110288  0.74320163  1
  O  O256  1  0.12454704  0.99985596  0.26281769  1
  O  O257  1  0.11031121  0.98224443  0.73663185  1
  O  O258  1  0.62006537  0.49829487  0.23032816  1
  O  O259  1  0.63257220  0.49128015  0.75062220  1
  O  O260  1  0.62219264  0.99282380  0.23682857  1
  O  O261  1  0.62413352  1.01086865  0.73015182  1
  O  O262  1  0.37398356  0.01458155  0.26296040  1
  O  O263  1  0.38218622  0.02149491  0.72148721  1
  O  O264  1  0.36800208  0.48821505  0.25207945  1
  O  O265  1  0.36695021  0.49204873  0.75583650  1
  O  O266  1  0.88762046  -0.00664873  0.26102936  1
  O  O267  1  0.88196224  -0.01441964  0.75229017  1
  O  O268  1  0.88212036  0.49511873  0.26729661  1
  O  O269  1  0.87289437  0.50577795  0.75473405  1
  O  O270  1  0.11430391  0.36967360  0.37868021  1
  O  O271  1  0.12299413  0.37664135  0.85768689  1
  O  O272  1  0.11450529  0.85939183  0.38949553  1
  O  O273  1  0.11192334  0.88241798  0.86350900  1
  O  O274  1  0.60754545  0.35226962  0.38838608  1
  O  O275  1  0.63519189  0.36663721  0.86206220  1
  O  O276  1  0.61729740  0.88479904  0.35846752  1
  O  O277  1  0.61729272  0.84903313  0.89040355  1
  O  O278  1  0.38944310  0.12952487  0.11924285  1
  O  O279  1  0.37480331  0.14612496  0.63345389  1
  O  O280  1  0.37477001  0.63566180  0.12428454  1
  O  O281  1  0.38196933  0.59743027  0.63744455  1
  O  O282  1  0.89704995  0.13917538  0.11766838  1
  O  O283  1  0.88812569  0.11423180  0.62686647  1
  O  O284  1  0.88471154  0.63702199  0.11546724  1
  O  O285  1  0.86455802  0.63319318  0.63659014  1
  O  O286  1  0.25089565  0.24646230  0.10783257  1
  O  O287  1  0.25805596  0.26233284  0.62157804  1
  O  O288  1  0.25551386  0.74750927  0.12540688  1
  O  O289  1  0.24821995  0.73671010  0.63286017  1
  O  O290  1  0.74035762  0.25367437  0.10786927  1
  O  O291  1  0.74714268  0.26014388  0.61335173  1
  O  O292  1  0.75405550  0.75107992  0.11874078  1
  O  O293  1  0.75782330  0.76059565  0.61293165  1
  O  O294  1  0.23638884  0.25753866  0.37814025  1
  O  O295  1  0.26489929  0.23847572  0.89888275  1
  O  O296  1  0.23480550  0.73118533  0.36424395  1
  O  O297  1  0.27622082  0.73665509  0.86790201  1
  O  O298  1  0.74352421  0.25193726  0.38895883  1
  O  O299  1  0.73816894  0.24081546  0.88253080  1
  O  O300  1  0.76759295  0.73645264  0.38048958  1
  O  O301  1  0.75543362  0.73758328  0.88569454  1
  O  O302  1  0.00110973  0.11947141  0.01206373  1
  O  O303  1  0.00694845  0.11567381  0.50822125  1
  O  O304  1  0.00656135  0.61598044  0.00370229  1
  O  O305  1  0.00593642  0.61108251  0.49725834  1
  O  O306  1  0.50884015  0.14176316  0.01332017  1
  O  O307  1  0.51743050  0.11838177  0.49814485  1
  O  O308  1  0.51270259  0.61418401  -0.00156209  1
  O  O309  1  0.51522351  0.61222208  0.48889670  1
  O  O310  1  0.49494493  0.37541976  0.49173800  1
  O  O311  1  0.48878989  0.38085614  1.00386666  1
  O  O312  1  0.51408439  0.89510682  0.48399847  1
  O  O313  1  0.48572759  0.87525715  0.98185684  1
  O  O314  1  0.99547923  0.37977360  0.49712379  1
  O  O315  1  0.98978501  0.37967769  0.99923931  1
  O  O316  1  0.99199919  0.87812230  0.49434452  1
  O  O317  1  0.98994537  0.88912821  1.01466074  1
  O  O318  1  0.51192806  0.48184466  0.38025679  1
  O  O319  1  0.49612445  0.49618531  0.88963407  1
  O  O320  1  0.49611457  1.00386847  0.38294561  1
  O  O321  1  0.52783744  0.99701564  0.88329718  1
  O  O322  1  0.99384369  0.49383795  0.38590769  1
  O  O323  1  0.98860767  0.49627564  0.88175162  1
  O  O324  1  0.99782580  0.98958384  0.38555991  1
  O  O325  1  1.00448229  1.00568348  0.90199944  1
  O  O326  1  0.00589555  0.01794566  0.12335496  1
  O  O327  1  0.00895899  0.00293159  0.61190239  1
  O  O328  1  -0.00984718  0.50944272  0.11346503  1
  O  O329  1  0.00853088  0.49078217  0.61753634  1
  O  O330  1  0.50284717  0.01761967  0.13138255  1
  O  O331  1  0.52292830  -0.00511484  0.60324493  1
  O  O332  1  0.50626665  0.50305503  0.11120909  1
  O  O333  1  0.50878007  0.49067781  0.60145113  1
  O  O334  1  0.23774620  0.38852132  0.25923554  1
  O  O335  1  0.23954133  0.37535450  0.74512125  1
  O  O336  1  0.25175999  0.89932252  0.26718036  1
  O  O337  1  0.22634894  0.85702026  0.75932795  1
  O  O338  1  0.73029700  0.39256851  0.30179218  1
  O  O339  1  0.74429300  0.37729947  0.74160191  1
  O  O340  1  0.73438785  0.86618846  0.23988373  1
  O  O341  1  0.74880111  0.86513106  0.73324492  1
  O  O342  1  0.23411297  0.11299106  0.25397412  1
  O  O343  1  0.27259678  0.14028935  0.75074124  1
  O  O344  1  0.24553414  0.60878337  0.26485764  1
  O  O345  1  0.25637528  0.60587635  0.74305894  1
  O  O346  1  0.76810094  0.10502902  0.19765987  1
  O  O347  1  0.75255867  0.13066411  0.76576521  1
  O  O348  1  0.74969118  0.63424127  0.26001055  1
  O  O349  1  0.75447516  0.62335001  0.75591651  1
  O  O350  1  0.37879331  0.12016305  0.38190763  1
  O  O351  1  0.38529321  0.11442058  0.85902453  1
  O  O352  1  0.36003496  0.63324286  0.38590641  1
  O  O353  1  0.38326588  0.60009096  0.85586947  1
  O  O354  1  0.88886379  0.10834757  0.37473737  1
  O  O355  1  0.85711320  0.11924185  0.87980600  1
  O  O356  1  0.87362910  0.61483552  0.37431929  1
  O  O357  1  0.86514842  0.61477115  0.86758515  1
  O  O358  1  0.12242429  0.37539712  0.14051231  1
  O  O359  1  0.13118632  0.37856444  0.63351257  1
  O  O360  1  0.13083571  0.87053943  0.12387107  1
  O  O361  1  0.12169526  0.88444846  0.62356636  1
  O  O362  1  0.62601712  0.38829771  0.12150298  1
  O  O363  1  0.63680428  0.37587619  0.63210374  1
  O  O364  1  0.62268113  0.88181754  0.13166859  1
  O  O365  1  0.64016380  0.88860010  0.61724664  1
  O  O366  1  0.12052195  0.26527282  0.26051614  1
  O  O367  1  0.13045465  0.25746687  0.74667846  1
  O  O368  1  0.11219684  0.74014165  0.26115488  1
  O  O369  1  0.10424475  0.75793666  0.75281801  1
  O  O370  1  0.62795491  0.24975527  0.25843752  1
  O  O371  1  0.62015259  0.25615878  0.75317877  1
  O  O372  1  0.61560924  0.76633786  0.24295059  1
  O  O373  1  0.59562914  0.75734606  0.70152933  1
  O  O374  1  0.38813214  0.25405043  0.24869908  1
  O  O375  1  0.38559447  0.25609884  0.74452006  1
  O  O376  1  0.36947374  0.75535209  0.23901751  1
  O  O377  1  0.38068223  0.71687093  0.74436973  1
  O  O378  1  0.89068514  0.25996051  0.26234999  1
  O  O379  1  0.87818646  0.25749067  0.74410391  1
  O  O380  1  0.88726904  0.75678110  0.23870250  1
  O  O381  1  0.87952672  0.74439869  0.74440378  1
  O  O382  1  0.38922042  0.48514617  0.49538149  1
  O  O383  1  0.37958738  0.49173645  0.99462524  1
  O  O384  1  0.39533489  1.01142560  0.50110244  1
  O  O385  1  0.34180156  0.99701143  0.99470726  1
  O  O386  1  0.88447110  0.49164004  0.49754523  1
  O  O387  1  0.88001437  0.49326499  0.99201138  1
  O  O388  1  0.88578082  0.98760463  0.49875824  1
  O  O389  1  0.88521017  0.99534482  1.01694100  1
  O  O390  1  0.11635754  0.01761289  0.00978363  1
  O  O391  1  0.11934263  0.00254785  0.50627546  1
  O  O392  1  0.10974462  0.50061166  -0.00670752  1
  O  O393  1  0.11643546  0.50122341  0.50585381  1
  O  O394  1  0.62516049  0.01750117  0.01528333  1
  O  O395  1  0.62751452  0.01202246  0.49508102  1
  O  O396  1  0.62006493  0.50348422  0.00534258  1
  O  O397  1  0.62639461  0.50135356  0.49044555  1
  O  O398  1  0.37532837  0.37927749  0.11324777  1
  O  O399  1  0.36771884  0.37019640  0.61610683  1
  O  O400  1  0.36317910  0.86632271  0.12888542  1
  O  O401  1  0.38186404  0.88291161  0.62980926  1
  O  O402  1  0.87320641  0.38091549  0.11359065  1
  O  O403  1  0.86708904  0.37887814  0.61476289  1
  O  O404  1  0.85990973  0.86031714  0.11506207  1
  O  O405  1  0.86460991  0.86646726  0.61109985  1
  O  O406  1  0.11511410  0.13771087  0.38898679  1
  O  O407  1  0.10813283  0.13999616  0.90161555  1
  O  O408  1  0.12561204  0.62815321  0.38378575  1
  O  O409  1  0.12094271  0.61718233  0.88351103  1
  O  O410  1  0.62592747  0.13471455  0.38133583  1
  O  O411  1  0.62990763  0.13798530  0.88345080  1
  O  O412  1  0.64891098  0.61667307  0.38062059  1
  O  O413  1  0.63726545  0.61734477  0.88405247  1
