# generated using pymatgen
data_V79Zn79O256
_symmetry_space_group_name_H-M   'P 1'
_cell_length_a   16.95813234
_cell_length_b   16.94503142
_cell_length_c   17.01821186
_cell_angle_alpha   90.24433615
_cell_angle_beta   89.75203186
_cell_angle_gamma   90.39735922
_symmetry_Int_Tables_number   1
_chemical_formula_structural   V79Zn79O256
_chemical_formula_sum   'V79 Zn79 O256'
_cell_volume   4890.07949281
_cell_formula_units_Z   1
loop_
 _symmetry_equiv_pos_site_id
 _symmetry_equiv_pos_as_xyz
  1  'x, y, z'
loop_
 _atom_site_type_symbol
 _atom_site_label
 _atom_site_symmetry_multiplicity
 _atom_site_fract_x
 _atom_site_fract_y
 _atom_site_fract_z
 _atom_site_occupancy
  V  V0  1  0.62551973  0.37892497  0.24326349  1
  V  V1  1  0.25240108  0.24862630  0.49999293  1
  V  V2  1  0.50146948  0.75031450  0.75253383  1
  V  V3  1  0.50799417  0.10854851  0.11774749  1
  V  V4  1  0.13013706  0.87779516  0.23613451  1
  V  V5  1  -0.00084246  0.13066979  0.14335796  1
  V  V6  1  0.37477905  0.12346115  0.25194145  1
  V  V7  1  0.61576534  0.12290452  0.49693275  1
  V  V8  1  0.86358817  0.24753293  0.13014229  1
  V  V9  1  0.75225869  0.87949890  0.62690249  1
  V  V10  1  0.62526703  0.25134329  0.37286416  1
  V  V11  1  0.36613577  0.24895677  0.12245953  1
  V  V12  1  0.62931793  0.88125552  0.75025720  1
  V  V13  1  0.60906971  0.37254552  0.75316839  1
  V  V14  1  0.50446210  0.87285221  0.88927176  1
  V  V15  1  0.24128390  0.37767196  0.63141515  1
  V  V16  1  0.86002653  0.62576315  0.74868500  1
  V  V17  1  0.62412525  0.21311518  0.90764650  1
  V  V18  1  0.64471002  0.49907737  0.62033201  1
  V  V19  1  0.62615882  0.75058232  0.37388211  1
  V  V20  1  0.63071986  0.62724592  0.49782810  1
  V  V21  1  0.62140957  0.50346442  0.12345741  1
  V  V22  1  0.50342925  0.50244464  0.50426105  1
  V  V23  1  0.75768631  0.50623962  0.24700090  1
  V  V24  1  0.00304323  0.00849734  0.50885899  1
  V  V25  1  0.62384463  0.00125883  0.62039916  1
  V  V26  1  0.35221794  0.87365029  0.00595360  1
  V  V27  1  0.84578810  0.36802968  -0.00417865  1
  V  V28  1  0.01854583  0.48281476  -0.00419813  1
  V  V29  1  0.36558380  0.62656659  0.75417316  1
  V  V30  1  0.49690985  0.74257574  0.24754550  1
  V  V31  1  0.87568145  0.88088249  0.50656631  1
  V  V32  1  0.24916645  0.12372384  0.37587184  1
  V  V33  1  0.86172600  0.00115726  0.87228399  1
  V  V34  1  0.24797039  -0.00244109  0.24048508  1
  V  V35  1  0.76689608  0.62708774  0.36912000  1
  V  V36  1  0.74875955  0.73232482  -0.00579510  1
  V  V37  1  -0.00341033  0.74806581  0.24475820  1
  V  V38  1  0.38514052  0.24790295  0.63387585  1
  V  V39  1  0.74925292  0.25688923  0.50633570  1
  V  V40  1  0.00170861  0.87250054  0.87626406  1
  V  V41  1  0.38687499  0.00168675  0.87821133  1
  V  V42  1  0.25234948  0.12708751  0.88223850  1
  V  V43  1  0.10633736  0.24746388  0.86578046  1
  V  V44  1  0.35894766  0.74900712  0.12604947  1
  V  V45  1  0.49912707  0.25172843  0.24547823  1
  V  V46  1  0.75839386  0.75348593  0.50080262  1
  V  V47  1  0.75063577  0.87461655  0.12804984  1
  V  V48  1  0.37068598  0.50350521  0.87636733  1
  V  V49  1  0.49996934  0.49526568  -0.00566409  1
  V  V50  1  0.88355370  0.25206559  0.63098759  1
  V  V51  1  0.87552889  0.00657958  0.36846704  1
  V  V52  1  0.11587125  0.51881428  0.62300572  1
  V  V53  1  0.49947631  0.37580034  0.37415257  1
  V  V54  1  0.00557355  0.00626113  0.00504575  1
  V  V55  1  0.75342915  0.12664826  0.36815998  1
  V  V56  1  0.37158635  0.75107899  0.62389641  1
  V  V57  1  0.13868135  0.74469600  0.87995019  1
  V  V58  1  0.25699299  0.00309937  0.75149102  1
  V  V59  1  0.74718922  0.49803523  0.76821466  1
  V  V60  1  0.50162421  0.87819953  0.37838569  1
  V  V61  1  0.37823064  0.37482612  0.50077565  1
  V  V62  1  0.37340101  0.51301275  0.37428455  1
  V  V63  1  0.62886351  0.73560847  0.87427647  1
  V  V64  1  0.11332716  0.26146288  0.37224722  1
  V  V65  1  0.23722534  0.63324461  0.38674385  1
  V  V66  1  0.12397586  0.12259321  0.51301954  1
  V  V67  1  0.50107167  0.12723968  0.64441825  1
  V  V68  1  0.62737871  0.87989219  0.24564369  1
  V  V69  1  0.87802322  0.38130990  0.48738597  1
  V  V70  1  0.12594026  0.88138592  0.74743564  1
  V  V71  1  0.37498653  0.87244470  0.50049744  1
  V  V72  1  -0.00423562  0.73988942  0.74791899  1
  V  V73  1  0.37415377  0.36226818  -0.00743793  1
  V  V74  1  0.87594621  0.86398859  0.00295060  1
  V  V75  1  0.49911724  0.62858358  0.10725711  1
  V  V76  1  0.37805093  -0.00165144  0.38048040  1
  V  V77  1  0.00583606  0.88133372  0.37531194  1
  V  V78  1  0.24970886  0.88113214  0.62250986  1
  Zn  Zn79  1  0.13864154  0.61116092  0.99382142  1
  Zn  Zn80  1  0.13840266  0.12511374  0.01318045  1
  Zn  Zn81  1  0.00046697  0.61349588  0.12431217  1
  Zn  Zn82  1  0.24150482  0.50056105  0.76019799  1
  Zn  Zn83  1  0.12305002  0.75056122  0.40124613  1
  Zn  Zn84  1  -0.03140404  0.36253040  0.85703800  1
  Zn  Zn85  1  0.86750528  0.12680190  0.74996743  1
  Zn  Zn86  1  0.75154499  0.00698868  0.24640985  1
  Zn  Zn87  1  0.03985651  0.17267083  0.68701571  1
  Zn  Zn88  1  0.00712244  0.49953251  0.49409654  1
  Zn  Zn89  1  0.24576016  0.50401291  0.24666002  1
  Zn  Zn90  1  0.00884073  0.65600271  0.58736369  1
  Zn  Zn91  1  0.50139731  0.62815395  0.62465898  1
  Zn  Zn92  1  0.22704001  0.39068936  0.12991341  1
  Zn  Zn93  1  0.86651724  0.73232230  0.13364121  1
  Zn  Zn94  1  0.15089359  0.23581855  0.16640024  1
  Zn  Zn95  1  0.20757307  0.18875054  0.69416963  1
  Zn  Zn96  1  0.18910636  0.68482314  0.21097084  1
  Zn  Zn97  1  0.18428118  0.69339217  0.68970232  1
  Zn  Zn98  1  0.68361559  0.18742204  0.18190639  1
  Zn  Zn99  1  0.68875466  0.19150397  0.69178645  1
  Zn  Zn100  1  0.68437321  0.68642572  0.18538076  1
  Zn  Zn101  1  0.68681476  0.69114172  0.68202396  1
  Zn  Zn102  1  0.30378323  0.31853800  0.30698661  1
  Zn  Zn103  1  0.31611779  0.31267437  0.81244413  1
  Zn  Zn104  1  0.30912237  0.80838571  0.31261092  1
  Zn  Zn105  1  0.31721132  0.82169290  0.80900502  1
  Zn  Zn106  1  0.81074961  0.31458297  0.30804726  1
  Zn  Zn107  1  0.78919456  0.30710425  0.81093227  1
  Zn  Zn108  1  0.81691294  0.81581688  0.31673104  1
  Zn  Zn109  1  0.81493289  0.81089831  0.81308147  1
  Zn  Zn110  1  0.19095389  0.44009693  0.44347383  1
  Zn  Zn111  1  0.19392610  0.41608265  0.93654057  1
  Zn  Zn112  1  0.18910871  0.94056604  0.44150146  1
  Zn  Zn113  1  0.18580322  0.94152023  0.93427197  1
  Zn  Zn114  1  0.69339496  0.44039968  0.42943100  1
  Zn  Zn115  1  0.67856275  0.43239510  0.93602030  1
  Zn  Zn116  1  0.68819302  0.94072855  0.43656071  1
  Zn  Zn117  1  0.68947492  0.92336514  0.94159686  1
  Zn  Zn118  1  0.32522971  0.06196678  0.06083144  1
  Zn  Zn119  1  0.32009740  0.06237856  0.56338236  1
  Zn  Zn120  1  0.30968337  0.56122103  0.06466798  1
  Zn  Zn121  1  0.31097896  0.56465521  0.56371419  1
  Zn  Zn122  1  0.82622468  0.05390886  0.06796178  1
  Zn  Zn123  1  0.80982123  0.06837676  0.56035223  1
  Zn  Zn124  1  0.82094487  0.55343133  0.06205531  1
  Zn  Zn125  1  0.84432545  0.58144721  0.55118543  1
  Zn  Zn126  1  0.40857865  0.45424748  0.17161460  1
  Zn  Zn127  1  0.43141073  0.44199760  0.68601654  1
  Zn  Zn128  1  0.43291322  0.92934700  0.19218862  1
  Zn  Zn129  1  0.44329850  0.93965779  0.69086030  1
  Zn  Zn130  1  0.93339845  0.43258299  0.17183867  1
  Zn  Zn131  1  0.92453448  0.43279717  0.68059879  1
  Zn  Zn132  1  0.93840495  0.93352657  0.18464142  1
  Zn  Zn133  1  0.95983968  0.97481553  0.70822473  1
  Zn  Zn134  1  0.06885991  0.06559397  0.31646458  1
  Zn  Zn135  1  0.06360320  0.06081207  0.81906549  1
  Zn  Zn136  1  0.07363100  0.56693056  0.29939067  1
  Zn  Zn137  1  0.03871551  0.51885573  0.79404187  1
  Zn  Zn138  1  0.56396207  0.06363601  0.30770876  1
  Zn  Zn139  1  0.69008703  0.06697080  0.81448640  1
  Zn  Zn140  1  0.56383978  0.56503451  0.31371920  1
  Zn  Zn141  1  0.55475277  0.55829491  0.80813114  1
  Zn  Zn142  1  0.43730696  0.18966487  0.43699311  1
  Zn  Zn143  1  0.45412108  0.18034187  0.93242956  1
  Zn  Zn144  1  0.44182992  0.69047679  0.44000803  1
  Zn  Zn145  1  0.31034838  0.68859821  0.93784630  1
  Zn  Zn146  1  0.93675374  0.18907780  0.43955444  1
  Zn  Zn147  1  0.92821242  0.18885194  0.93790460  1
  Zn  Zn148  1  0.95477600  0.69635310  0.43852768  1
  Zn  Zn149  1  0.96400021  0.63929292  0.92039896  1
  Zn  Zn150  1  0.05262795  0.30236494  0.04532438  1
  Zn  Zn151  1  0.05884271  0.31779933  0.55230125  1
  Zn  Zn152  1  0.06677005  0.81126425  0.06058987  1
  Zn  Zn153  1  0.06089004  0.82309726  0.56354950  1
  Zn  Zn154  1  0.56004957  0.31129957  0.05946932  1
  Zn  Zn155  1  0.56743181  0.31374606  0.56799833  1
  Zn  Zn156  1  0.57004062  0.80590969  0.06363225  1
  Zn  Zn157  1  0.56322946  0.81296035  0.56114692  1
  O  O158  1  0.10531786  0.13421130  0.12261913  1
  O  O159  1  0.13151856  0.13653603  0.61498439  1
  O  O160  1  0.12486743  0.60288233  0.15334760  1
  O  O161  1  0.12168521  0.62270490  0.62067458  1
  O  O162  1  0.60604709  0.11833008  0.14121905  1
  O  O163  1  0.61565351  0.12071915  0.61743850  1
  O  O164  1  0.61023916  0.61406576  0.13027504  1
  O  O165  1  0.62374088  0.61607158  0.61610265  1
  O  O166  1  0.37916145  0.37916744  0.38885652  1
  O  O167  1  0.37584645  0.37534007  0.88870914  1
  O  O168  1  0.38027610  0.87761614  0.38188527  1
  O  O169  1  0.38243876  0.87414255  0.89188217  1
  O  O170  1  0.86922800  0.36803424  0.38830163  1
  O  O171  1  0.85836351  0.35545668  0.88910626  1
  O  O172  1  0.88275991  0.88712941  0.38639216  1
  O  O173  1  0.88311447  0.87653976  0.88426769  1
  O  O174  1  0.25929450  0.00756675  0.37528845  1
  O  O175  1  0.26120126  0.00372354  0.86916214  1
  O  O176  1  0.26619462  0.50443368  0.38140508  1
  O  O177  1  0.26572225  0.48568723  0.87320909  1
  O  O178  1  0.75858441  0.00884548  0.37527994  1
  O  O179  1  0.75845651  -0.00767279  0.88063526  1
  O  O180  1  0.74477587  0.51343791  0.35830135  1
  O  O181  1  0.73818455  0.50713657  0.86563344  1
  O  O182  1  0.29743065  0.48553590  0.14232376  1
  O  O183  1  0.24356066  0.48624913  0.62035577  1
  O  O184  1  0.26134816  1.00823022  0.14288145  1
  O  O185  1  0.26492230  0.99049339  0.63642598  1
  O  O186  1  0.73235852  0.51030387  0.13752365  1
  O  O187  1  0.74211657  0.50780369  0.62162806  1
  O  O188  1  0.76824337  0.97871924  0.13509009  1
  O  O189  1  0.73934605  0.98932481  0.61709834  1
  O  O190  1  0.00103863  0.41534469  0.27549889  1
  O  O191  1  -0.00676483  0.41728330  0.76581506  1
  O  O192  1  0.01514064  0.87988791  0.25646059  1
  O  O193  1  0.00979044  0.87836664  0.75919683  1
  O  O194  1  0.50498189  0.36434896  0.25636262  1
  O  O195  1  0.51011598  0.38708447  0.74037338  1
  O  O196  1  0.50838969  0.86626002  0.25810555  1
  O  O197  1  0.51045681  0.86746914  0.75551523  1
  O  O198  1  0.49169770  0.13549829  0.25342796  1
  O  O199  1  0.50501680  0.13214588  0.73848683  1
  O  O200  1  0.50114462  0.63985061  0.24926311  1
  O  O201  1  0.48905471  0.63591601  0.74667789  1
  O  O202  1  1.00031298  0.11808877  0.24179993  1
  O  O203  1  0.98372312  0.09244456  0.74346601  1
  O  O204  1  1.00269735  0.64740513  0.25609659  1
  O  O205  1  1.00528186  0.63980099  0.75488331  1
  O  O206  1  0.38562784  0.25490300  0.00795552  1
  O  O207  1  0.37124073  0.25676257  0.50673818  1
  O  O208  1  0.36498427  0.76337678  0.01188711  1
  O  O209  1  0.38248606  0.76113867  0.51161947  1
  O  O210  1  0.87744532  0.25934262  0.00856598  1
  O  O211  1  0.86257563  0.25685475  0.50278088  1
  O  O212  1  0.86155168  0.75775842  -0.00520876  1
  O  O213  1  0.86597853  0.76604142  0.49264248  1
  O  O214  1  0.13709784  0.24297306  0.49398983  1
  O  O215  1  0.11173028  0.23131409  0.97150297  1
  O  O216  1  0.06150229  0.73219529  0.49663284  1
  O  O217  1  0.12618567  0.76045366  0.97991968  1
  O  O218  1  0.63303088  0.24545705  0.49407209  1
  O  O219  1  0.62741973  0.24014746  1.00734801  1
  O  O220  1  0.63433200  0.74776048  0.49332678  1
  O  O221  1  0.63999859  0.74944100  0.98990241  1
  O  O222  1  0.49579029  0.23935880  0.13715259  1
  O  O223  1  0.49729128  0.23658605  0.61610999  1
  O  O224  1  0.50100512  0.74275916  0.13063963  1
  O  O225  1  0.49275176  0.75365852  0.63541491  1
  O  O226  1  0.98988263  0.23415172  0.12286823  1
  O  O227  1  0.98994414  0.25351126  0.62271998  1
  O  O228  1  1.00744763  0.75302916  0.13999910  1
  O  O229  1  1.00804259  0.75831024  0.64724694  1
  O  O230  1  0.01406454  0.24877418  0.38217102  1
  O  O231  1  0.00160346  0.24710472  0.86294425  1
  O  O232  1  -0.00431908  0.77037039  0.35899394  1
  O  O233  1  0.01005933  0.76134755  0.86435623  1
  O  O234  1  0.50397390  0.25536616  0.36596991  1
  O  O235  1  0.52928868  0.24260827  0.87781749  1
  O  O236  1  0.50344215  0.75909615  0.36731229  1
  O  O237  1  0.51111175  0.75978903  0.86204730  1
  O  O238  1  0.24829460  0.12999532  0.49727426  1
  O  O239  1  0.25320763  0.11405778  0.98717470  1
  O  O240  1  0.25518271  0.62217495  0.48607898  1
  O  O241  1  0.24656330  0.62523571  1.00481320  1
  O  O242  1  0.73869835  0.13633925  0.48961357  1
  O  O243  1  0.71233979  0.07584920  1.01970160  1
  O  O244  1  0.75242809  0.63633513  0.49156433  1
  O  O245  1  0.75642799  0.63491106  1.00100506  1
  O  O246  1  0.27290313  0.37524154  0.01150120  1
  O  O247  1  0.26098641  0.36561548  0.50980220  1
  O  O248  1  0.25411101  0.87952429  0.00343211  1
  O  O249  1  0.26163590  0.87969127  0.51012556  1
  O  O250  1  0.74645135  0.37144349  0.00298827  1
  O  O251  1  0.74862464  0.35939567  0.49093222  1
  O  O252  1  0.75790482  0.86641409  0.01163912  1
  O  O253  1  0.75593275  0.87195900  0.50350641  1
  O  O254  1  0.12819754  0.53112060  0.20300582  1
  O  O255  1  0.13297261  0.50693558  0.72828457  1
  O  O256  1  0.13476325  0.98744976  0.25964621  1
  O  O257  1  0.13874797  0.98861958  0.75717776  1
  O  O258  1  0.62044148  0.49448061  0.24209727  1
  O  O259  1  0.63271793  0.50455827  0.73531013  1
  O  O260  1  0.63082637  0.98360699  0.25811397  1
  O  O261  1  0.63105137  0.98584839  0.73997184  1
  O  O262  1  0.36603154  -0.00060375  0.26446402  1
  O  O263  1  0.36864223  -0.01721128  0.76923747  1
  O  O264  1  0.39212210  0.49517817  0.27796642  1
  O  O265  1  0.37438520  0.51080411  0.75757313  1
  O  O266  1  0.87504463  -0.00999222  0.26615748  1
  O  O267  1  0.86765252  -0.01725979  0.77236744  1
  O  O268  1  0.85432749  0.49256364  0.23683298  1
  O  O269  1  0.85198801  0.51117567  0.74313724  1
  O  O270  1  0.13271288  0.35994909  0.38797588  1
  O  O271  1  0.13839118  0.34406252  0.86598007  1
  O  O272  1  0.11395018  0.87373861  0.38334432  1
  O  O273  1  0.11991063  0.87195990  0.86613616  1
  O  O274  1  0.61719403  0.37223669  0.36684857  1
  O  O275  1  0.61737985  0.38509325  0.85326575  1
  O  O276  1  0.61877809  0.87060293  0.37081424  1
  O  O277  1  0.62160426  0.86926998  0.86652180  1
  O  O278  1  0.38552232  0.13376957  0.13243096  1
  O  O279  1  0.39314952  0.13082585  0.61992822  1
  O  O280  1  0.38484015  0.64524543  0.11915331  1
  O  O281  1  0.37745500  0.63625705  0.63032687  1
  O  O282  1  0.88713860  0.13272831  0.11958527  1
  O  O283  1  0.87077886  0.14701660  0.61749754  1
  O  O284  1  0.88622434  0.62379691  0.12032033  1
  O  O285  1  0.89125330  0.62726485  0.64640303  1
  O  O286  1  0.26842260  0.23770815  0.12784985  1
  O  O287  1  0.26289370  0.25650590  0.61691064  1
  O  O288  1  0.26160183  0.74489846  0.14038888  1
  O  O289  1  0.26464452  0.76483069  0.63435212  1
  O  O290  1  0.76405175  0.23235997  0.12002436  1
  O  O291  1  0.75038214  0.25000374  0.60695018  1
  O  O292  1  0.74875087  0.75277740  0.11198366  1
  O  O293  1  0.74329518  0.76360449  0.60888048  1
  O  O294  1  0.25884847  0.24044356  0.38862088  1
  O  O295  1  0.26181035  0.22701706  0.86799246  1
  O  O296  1  0.24232888  0.73982468  0.37758256  1
  O  O297  1  0.24423865  0.75636448  0.86881255  1
  O  O298  1  0.74393623  0.24336033  0.37917762  1
  O  O299  1  0.70969015  0.24617645  0.86101792  1
  O  O300  1  0.74580614  0.74753466  0.38173293  1
  O  O301  1  0.74321616  0.75441588  0.88606099  1
  O  O302  1  -0.00461897  0.10699873  -0.00694581  1
  O  O303  1  0.01190624  0.11982744  0.49661048  1
  O  O304  1  0.02660444  0.62064366  0.01070076  1
  O  O305  1  -0.04363661  0.60006826  0.50014733  1
  O  O306  1  0.49578137  0.11838654  0.01940631  1
  O  O307  1  0.51428122  0.12765307  0.49389855  1
  O  O308  1  0.49959095  0.61434721  0.00779162  1
  O  O309  1  0.51107675  0.61915609  0.49993826  1
  O  O310  1  0.49630973  0.38126767  0.49604709  1
  O  O311  1  0.48603003  0.38570110  1.00769490  1
  O  O312  1  0.49357653  0.87143821  0.48673367  1
  O  O313  1  0.50949925  0.87006683  0.98961284  1
  O  O314  1  0.98525836  0.38541318  0.49601715  1
  O  O315  1  1.00151807  0.38040656  0.97597969  1
  O  O316  1  0.99248282  0.88794409  0.49244491  1
  O  O317  1  0.99456037  0.87939835  0.99545113  1
  O  O318  1  0.49676196  0.49781139  0.38959432  1
  O  O319  1  0.48757660  0.50492341  0.88503455  1
  O  O320  1  0.48976660  0.98829010  0.36491048  1
  O  O321  1  0.48639059  0.98602267  0.87159141  1
  O  O322  1  1.00266640  0.47358514  0.32635900  1
  O  O323  1  0.99458800  0.52177327  0.90022845  1
  O  O324  1  0.99474984  0.99743453  0.38231639  1
  O  O325  1  0.99344019  0.98660482  0.88568501  1
  O  O326  1  -0.01107194  0.01061822  0.11148522  1
  O  O327  1  -0.00067916  -0.00623704  0.60663558  1
  O  O328  1  -0.00216914  0.49243355  0.09937901  1
  O  O329  1  0.01459232  0.50090335  0.62574883  1
  O  O330  1  0.48751211  0.01124322  0.13746472  1
  O  O331  1  0.51165880  0.01252888  0.63157291  1
  O  O332  1  0.49725490  0.51081717  0.11692518  1
  O  O333  1  0.50147890  0.50453619  0.61040336  1
  O  O334  1  0.24300039  0.38749812  0.24808304  1
  O  O335  1  0.25973636  0.37619678  0.73278063  1
  O  O336  1  0.23713616  0.88189367  0.25878881  1
  O  O337  1  0.24511973  0.88308557  0.74267670  1
  O  O338  1  0.73304040  0.39124130  0.25748874  1
  O  O339  1  0.73799251  0.39615180  0.75040597  1
  O  O340  1  0.74186874  0.86614860  0.24378127  1
  O  O341  1  0.74101823  0.86151620  0.73667335  1
  O  O342  1  0.25739496  0.11477368  0.26714888  1
  O  O343  1  0.25845112  0.10951251  0.76073039  1
  O  O344  1  0.25272952  0.61649235  0.27812971  1
  O  O345  1  0.26297046  0.62436641  0.73978834  1
  O  O346  1  0.74196271  0.12488204  0.26497855  1
  O  O347  1  0.75387848  0.11640896  0.73800677  1
  O  O348  1  0.74459147  0.61649457  0.25549337  1
  O  O349  1  0.75504080  0.62410394  0.74491144  1
  O  O350  1  0.36989013  0.11679651  0.37468183  1
  O  O351  1  0.37348359  0.10658087  0.88439441  1
  O  O352  1  0.37506880  0.61563782  0.38306095  1
  O  O353  1  0.36912633  0.61733961  0.86545976  1
  O  O354  1  0.86485980  0.11825547  0.38273694  1
  O  O355  1  0.87508359  0.10408455  0.87602179  1
  O  O356  1  0.86436743  0.63862922  0.37126883  1
  O  O357  1  0.87925973  0.62906747  0.84896667  1
  O  O358  1  0.12982547  0.33630626  0.11898084  1
  O  O359  1  0.14171204  0.36528291  0.62170458  1
  O  O360  1  0.12655084  0.87650728  0.13816966  1
  O  O361  1  0.13940406  0.87133301  0.63262587  1
  O  O362  1  0.61149827  0.38688415  0.13690143  1
  O  O363  1  0.62398653  0.39676613  0.62588927  1
  O  O364  1  0.63651898  0.86882923  0.13478047  1
  O  O365  1  0.62949621  0.88263840  0.62879345  1
  O  O366  1  0.13716843  0.24118879  0.27732789  1
  O  O367  1  0.12061674  0.22127405  0.76049419  1
  O  O368  1  0.11719468  0.76816879  0.25810441  1
  O  O369  1  0.11982420  0.76340517  0.75909439  1
  O  O370  1  0.61855614  0.25951835  0.25276657  1
  O  O371  1  0.62414148  0.27626562  0.72638276  1
  O  O372  1  0.61678980  0.75814144  0.25551133  1
  O  O373  1  0.61926250  0.75749173  0.75265089  1
  O  O374  1  0.38024822  0.24626326  0.24248005  1
  O  O375  1  0.37557365  0.25536163  0.73208224  1
  O  O376  1  0.38564393  0.76630236  0.23408472  1
  O  O377  1  0.38345115  0.74804134  0.74480096  1
  O  O378  1  0.87232943  0.26135839  0.23078994  1
  O  O379  1  0.86395732  0.25507483  0.73270615  1
  O  O380  1  0.89236442  0.76669974  0.24542498  1
  O  O381  1  0.88848000  0.74536620  0.75214234  1
  O  O382  1  0.38443676  0.49320951  0.49542943  1
  O  O383  1  0.38271810  0.49075316  0.99156875  1
  O  O384  1  0.37512413  0.98930629  0.48862563  1
  O  O385  1  0.37393244  0.98274767  0.98969095  1
  O  O386  1  0.85314910  0.47735692  0.50277066  1
  O  O387  1  0.87276007  0.47092928  1.00259178  1
  O  O388  1  0.88186533  0.99942166  0.49123576  1
  O  O389  1  0.88257024  0.98481851  0.99069251  1
  O  O390  1  0.10891809  0.00042538  -0.00238479  1
  O  O391  1  0.11799676  0.01256867  0.49635417  1
  O  O392  1  0.12252068  0.48620566  -0.00714582  1
  O  O393  1  0.12338876  0.49349139  0.51739276  1
  O  O394  1  0.66173420  0.01934426  0.01880555  1
  O  O395  1  0.62869563  0.00928110  0.50942073  1
  O  O396  1  0.61133516  0.48929982  0.01285102  1
  O  O397  1  0.62402487  0.50460198  0.50594733  1
  O  O398  1  0.38357392  0.35246152  0.11914124  1
  O  O399  1  0.37280083  0.36994574  0.61338784  1
  O  O400  1  0.37817609  0.86561614  0.11132203  1
  O  O401  1  0.37402870  0.87177862  0.61844590  1
  O  O402  1  0.87497442  0.35721494  0.10968263  1
  O  O403  1  0.87312190  0.35875048  0.60861855  1
  O  O404  1  0.87165009  0.86313838  0.11633989  1
  O  O405  1  0.86459835  0.88701663  0.61054565  1
  O  O406  1  0.13785703  0.13156582  0.38858554  1
  O  O407  1  0.14381277  0.12224598  0.87609048  1
  O  O408  1  0.13247582  0.62055919  0.38182260  1
  O  O409  1  0.12662337  0.64599727  0.87148899  1
  O  O410  1  0.63082691  0.12969889  0.37982941  1
  O  O411  1  0.62297492  0.11088785  0.89195122  1
  O  O412  1  0.63282630  0.63302516  0.38095483  1
  O  O413  1  0.61965966  0.63757836  0.86389377  1
