# generated using pymatgen
data_V79Zn79O256
_symmetry_space_group_name_H-M   'P 1'
_cell_length_a   16.96764928
_cell_length_b   16.92046159
_cell_length_c   16.90969450
_cell_angle_alpha   89.94433975
_cell_angle_beta   90.22334360
_cell_angle_gamma   90.06198844
_symmetry_Int_Tables_number   1
_chemical_formula_structural   V79Zn79O256
_chemical_formula_sum   'V79 Zn79 O256'
_cell_volume   4854.73903945
_cell_formula_units_Z   1
loop_
 _symmetry_equiv_pos_site_id
 _symmetry_equiv_pos_as_xyz
  1  'x, y, z'
loop_
 _atom_site_type_symbol
 _atom_site_label
 _atom_site_symmetry_multiplicity
 _atom_site_fract_x
 _atom_site_fract_y
 _atom_site_fract_z
 _atom_site_occupancy
  V  V0  1  0.37784215  0.11748959  0.75180482  1
  V  V1  1  0.87696796  -0.00504715  0.87285973  1
  V  V2  1  0.12245627  0.87817389  0.75174225  1
  V  V3  1  0.75644973  0.37770796  0.62125481  1
  V  V4  1  -0.00351585  0.49045706  0.00384287  1
  V  V5  1  0.36212590  0.24525152  0.12072009  1
  V  V6  1  0.87148359  0.49058672  0.88370852  1
  V  V7  1  0.50418782  0.11692471  0.62437997  1
  V  V8  1  0.62811295  0.37808831  0.75347248  1
  V  V9  1  0.01119356  0.25614479  0.25079042  1
  V  V10  1  0.37458081  0.88080294  0.49688747  1
  V  V11  1  0.49972673  0.26033653  0.24836565  1
  V  V12  1  0.37990292  0.11983870  0.25674270  1
  V  V13  1  0.85581518  0.87316755  0.00130648  1
  V  V14  1  0.61428251  0.25532890  0.37675337  1
  V  V15  1  0.74252982  0.27649588  -0.00660766  1
  V  V16  1  0.75362285  0.74624381  0.50667751  1
  V  V17  1  0.00504459  0.62166129  0.61771033  1
  V  V18  1  0.00027135  -0.00972136  -0.00323578  1
  V  V19  1  0.74269278  -0.00005285  0.73426666  1
  V  V20  1  0.50618768  0.25153476  0.75076974  1
  V  V21  1  0.01887541  0.00064771  0.50930036  1
  V  V22  1  0.63346957  0.00086520  0.11182864  1
  V  V23  1  0.11973601  0.75185066  0.87813011  1
  V  V24  1  0.37144359  0.49746950  0.87310613  1
  V  V25  1  0.75811090  0.62777159  0.36958556  1
  V  V26  1  0.02041795  0.12474667  0.62391899  1
  V  V27  1  0.64217931  0.88607849  0.24867901  1
  V  V28  1  0.50353237  0.37652389  0.87707599  1
  V  V29  1  0.13660420  0.39110269  0.76231756  1
  V  V30  1  0.36571420  0.36534007  0.00117386  1
  V  V31  1  0.86142797  0.74967252  0.12502212  1
  V  V32  1  0.62627065  0.11976215  0.50256450  1
  V  V33  1  0.25371061  0.26969339  0.50862368  1
  V  V34  1  0.13108990  0.25930485  0.37954181  1
  V  V35  1  0.24638996  0.74532125  0.49989781  1
  V  V36  1  0.50154404  0.75469633  0.25223131  1
  V  V37  1  0.25263362  -0.00081342  0.75743911  1
  V  V38  1  0.49595244  0.88346659  0.37564208  1
  V  V39  1  0.24621936  0.74461395  0.00034641  1
  V  V40  1  0.24003564  0.61308652  0.87278565  1
  V  V41  1  0.50467824  0.48708860  0.49396420  1
  V  V42  1  0.00582528  0.62659031  0.11321416  1
  V  V43  1  0.24490681  0.87866437  0.62519847  1
  V  V44  1  0.12374962  -0.00046355  0.12525227  1
  V  V45  1  0.49763525  0.62738235  0.61821534  1
  V  V46  1  0.37505019  0.74315059  0.62735959  1
  V  V47  1  0.59669605  0.84826258  0.75018144  1
  V  V48  1  0.24613346  0.11650533  0.39055144  1
  V  V49  1  0.87537683  0.87849715  0.51376683  1
  V  V50  1  0.38606646  0.88521418  -0.01166956  1
  V  V51  1  -0.00369032  0.75270476  0.74935232  1
  V  V52  1  0.12280131  0.74134158  0.37790707  1
  V  V53  1  0.75266700  0.50907606  0.74912464  1
  V  V54  1  0.37513734  0.26599339  0.62363395  1
  V  V55  1  0.25197438  0.62500031  0.37135172  1
  V  V56  1  0.00112345  0.26260375  0.76021606  1
  V  V57  1  0.87591370  0.63034797  0.75299714  1
  V  V58  1  0.37294018  0.75213702  0.12635516  1
  V  V59  1  0.62686194  0.74815151  0.38035306  1
  V  V60  1  0.74800137  0.25174015  0.49587595  1
  V  V61  1  0.25589923  -0.00109822  0.25576854  1
  V  V62  1  0.87755183  0.12447003  0.74347592  1
  V  V63  1  -0.01123125  0.12781030  0.12543574  1
  V  V64  1  0.38098999  0.48499652  0.37685927  1
  V  V65  1  0.87798049  0.25557699  0.61759108  1
  V  V66  1  0.12322956  0.86928089  0.25089013  1
  V  V67  1  0.62411132  0.49086777  0.12406919  1
  V  V68  1  0.13089007  0.12774091  -0.00591978  1
  V  V69  1  0.62884195  0.50868937  0.61712504  1
  V  V70  1  0.50904566  0.62418233  0.12194052  1
  V  V71  1  -0.00454620  0.74268274  0.24798481  1
  V  V72  1  0.75377138  0.49708413  0.24776853  1
  V  V73  1  0.25099461  0.87192385  0.12539424  1
  V  V74  1  -0.00273860  0.87783752  0.37769024  1
  V  V75  1  0.69097911  0.68909772  0.94134417  1
  V  V76  1  0.87577680  0.47960253  0.38291956  1
  V  V77  1  0.74606759  0.13066719  0.87692296  1
  V  V78  1  0.37411460  0.62156345  0.25318566  1
  Zn  Zn79  1  0.61317587  0.38399407  0.25828293  1
  Zn  Zn80  1  0.14401565  0.39593613  0.19158778  1
  Zn  Zn81  1  0.26431536  0.50246578  0.72180275  1
  Zn  Zn82  1  0.87408060  0.29486228  0.08947283  1
  Zn  Zn83  1  0.73715398  0.88458991  0.62152688  1
  Zn  Zn84  1  0.49964263  0.11712294  0.11167337  1
  Zn  Zn85  1  0.76198736  0.12944018  0.34616525  1
  Zn  Zn86  1  0.25986824  0.12746259  0.88283817  1
  Zn  Zn87  1  0.12399332  0.49866531  0.61672000  1
  Zn  Zn88  1  0.50280740  -0.00081478  0.50143081  1
  Zn  Zn89  1  0.86423438  0.00761268  0.35828633  1
  Zn  Zn90  1  0.62001139  0.13384097  -0.00917598  1
  Zn  Zn91  1  0.13141432  0.25921482  0.88083606  1
  Zn  Zn92  1  0.40816833  0.65880491  0.78436259  1
  Zn  Zn93  1  0.49866236  0.50017859  0.00080460  1
  Zn  Zn94  1  0.18390129  0.17988730  0.19336675  1
  Zn  Zn95  1  0.19889251  0.20157366  0.71157791  1
  Zn  Zn96  1  0.18674468  0.57248438  0.18252671  1
  Zn  Zn97  1  0.18626654  0.68468855  0.69025355  1
  Zn  Zn98  1  0.69410071  0.18660787  0.17253926  1
  Zn  Zn99  1  0.68952838  0.18770904  0.68511683  1
  Zn  Zn100  1  0.68656207  0.68952074  0.19277018  1
  Zn  Zn101  1  0.69022860  0.68874465  0.68035503  1
  Zn  Zn102  1  0.31033726  0.30222401  0.31205962  1
  Zn  Zn103  1  0.31126606  0.30932350  0.81335780  1
  Zn  Zn104  1  0.31290931  0.81079523  0.31303615  1
  Zn  Zn105  1  0.31050872  0.81198755  0.81588710  1
  Zn  Zn106  1  0.81194178  0.30408149  0.26248894  1
  Zn  Zn107  1  0.81426389  0.31354396  0.81143673  1
  Zn  Zn108  1  0.81703116  0.81214157  0.31620727  1
  Zn  Zn109  1  0.80678591  0.81465438  0.81284871  1
  Zn  Zn110  1  0.19772990  0.44312448  0.33513607  1
  Zn  Zn111  1  0.16934784  0.42076180  0.97610845  1
  Zn  Zn112  1  0.18615347  0.93306006  0.43773982  1
  Zn  Zn113  1  0.19336300  0.93524640  0.93728564  1
  Zn  Zn114  1  0.69162486  0.43618636  0.43423683  1
  Zn  Zn115  1  0.66073224  0.49956867  0.91437512  1
  Zn  Zn116  1  0.69251624  0.94440005  0.42870604  1
  Zn  Zn117  1  0.68258422  0.93666147  0.92206736  1
  Zn  Zn118  1  0.31209321  0.06180352  0.06661390  1
  Zn  Zn119  1  0.31615771  0.06301703  0.57442920  1
  Zn  Zn120  1  0.32048818  0.56433411  0.05427313  1
  Zn  Zn121  1  0.31385581  0.55675556  0.55186951  1
  Zn  Zn122  1  0.80728578  0.05824712  0.06471895  1
  Zn  Zn123  1  0.83187746  0.07939231  0.52855501  1
  Zn  Zn124  1  0.81189472  0.56603085  0.06773279  1
  Zn  Zn125  1  0.82545554  0.56528699  0.56224429  1
  Zn  Zn126  1  0.32396394  0.43703052  0.18747729  1
  Zn  Zn127  1  0.44587718  0.44715326  0.68999358  1
  Zn  Zn128  1  0.44505675  0.93997779  0.17900381  1
  Zn  Zn129  1  0.43290964  0.93353399  0.68551796  1
  Zn  Zn130  1  0.94391931  0.43758639  0.19523165  1
  Zn  Zn131  1  0.93934153  0.44363611  0.68765170  1
  Zn  Zn132  1  0.92440051  0.93447707  0.18636070  1
  Zn  Zn133  1  0.94147299  0.93995783  0.68774306  1
  Zn  Zn134  1  0.02880461  0.04596314  0.29466876  1
  Zn  Zn135  1  0.06099382  0.05921414  0.80899438  1
  Zn  Zn136  1  0.05372240  0.55788981  0.31152462  1
  Zn  Zn137  1  0.05400945  0.56528976  0.82330224  1
  Zn  Zn138  1  0.56832968  0.06692267  0.31477633  1
  Zn  Zn139  1  0.56188206  0.05567843  0.81405186  1
  Zn  Zn140  1  0.56365590  0.56653010  0.31344978  1
  Zn  Zn141  1  0.56657409  0.66105562  0.81220098  1
  Zn  Zn142  1  0.43476726  0.18756687  0.43870813  1
  Zn  Zn143  1  0.44377163  0.18571596  0.93266399  1
  Zn  Zn144  1  0.44013891  0.68753881  0.44378261  1
  Zn  Zn145  1  0.44374300  0.70146897  0.94854008  1
  Zn  Zn146  1  0.94415204  0.18943423  0.43265621  1
  Zn  Zn147  1  0.93261925  0.18614770  0.93775777  1
  Zn  Zn148  1  0.93331679  0.68902137  0.43811329  1
  Zn  Zn149  1  0.92661611  0.68867592  0.93481607  1
  Zn  Zn150  1  0.05849776  0.31050489  0.06121182  1
  Zn  Zn151  1  0.08325981  0.30511137  0.58080662  1
  Zn  Zn152  1  0.06136714  0.80908010  0.06288179  1
  Zn  Zn153  1  0.06180262  0.80615805  0.56648647  1
  Zn  Zn154  1  0.56180776  0.30576486  0.06145915  1
  Zn  Zn155  1  0.56539183  0.31316827  0.56694414  1
  Zn  Zn156  1  0.57119670  0.81813696  0.06077858  1
  Zn  Zn157  1  0.56332316  0.81509778  0.56570829  1
  O  O158  1  0.12382021  0.11420019  0.11340027  1
  O  O159  1  0.11661846  0.13776962  0.63854148  1
  O  O160  1  0.10498889  0.62726121  0.12392846  1
  O  O161  1  0.11021265  0.62454726  0.62885812  1
  O  O162  1  0.62550282  0.11538185  0.11552935  1
  O  O163  1  0.61228478  0.13682262  0.61616930  1
  O  O164  1  0.61119031  0.62883464  0.13028923  1
  O  O165  1  0.62003314  0.61375222  0.62339408  1
  O  O166  1  0.37355689  0.38749013  0.36897741  1
  O  O167  1  0.38280652  0.37370711  0.88173872  1
  O  O168  1  0.38384984  0.86623415  0.38455814  1
  O  O169  1  0.36934105  0.87422912  0.88904040  1
  O  O170  1  0.86094101  0.38319924  0.36647554  1
  O  O171  1  0.87226724  0.39171409  0.87099056  1
  O  O172  1  0.88902409  0.87733590  0.38155186  1
  O  O173  1  0.87026081  0.88503605  0.88763792  1
  O  O174  1  0.24318750  0.00578202  0.36720577  1
  O  O175  1  0.24829110  0.00612208  0.86192787  1
  O  O176  1  0.27194765  0.51395770  0.38532522  1
  O  O177  1  0.25105006  0.51091900  0.89146083  1
  O  O178  1  0.75165226  0.01522574  0.36655077  1
  O  O179  1  0.76162123  0.00960510  0.86030320  1
  O  O180  1  0.75144745  0.50953854  0.36744849  1
  O  O181  1  0.76031914  0.50207541  0.85882876  1
  O  O182  1  0.25980560  0.50792164  0.12730534  1
  O  O183  1  0.23593700  0.51135266  0.61482538  1
  O  O184  1  0.23897564  0.99416462  0.13598747  1
  O  O185  1  0.25340895  0.98319027  0.63211611  1
  O  O186  1  0.73404146  0.51159217  0.13739818  1
  O  O187  1  0.74840928  0.49568939  0.62609483  1
  O  O188  1  0.73454710  1.00658799  0.13370529  1
  O  O189  1  0.76081705  1.00720592  0.63376889  1
  O  O190  1  0.02873403  0.35771733  0.22840673  1
  O  O191  1  -0.00861124  0.36350737  0.75589368  1
  O  O192  1  0.00866448  0.86754157  0.25767238  1
  O  O193  1  0.01130732  0.86737669  0.74448473  1
  O  O194  1  0.49334512  0.35868491  0.24763919  1
  O  O195  1  0.50901718  0.37119531  0.75426232  1
  O  O196  1  0.49833252  0.86536991  0.25793756  1
  O  O197  1  0.49814124  0.86570481  0.74778738  1
  O  O198  1  0.48662502  0.12504558  0.25339706  1
  O  O199  1  0.49878335  0.13304092  0.74329706  1
  O  O200  1  0.49417431  0.63828463  0.24686914  1
  O  O201  1  0.49706712  0.61280582  0.72461863  1
  O  O202  1  1.02335122  0.13931077  0.22914464  1
  O  O203  1  0.99455821  0.13104596  0.74040802  1
  O  O204  1  0.99900649  0.63881965  0.24135497  1
  O  O205  1  0.99443719  0.63447039  0.74764860  1
  O  O206  1  0.38100120  0.25176373  0.01135183  1
  O  O207  1  0.36852099  0.24671564  0.51508047  1
  O  O208  1  0.36664505  0.75972561  0.01054476  1
  O  O209  1  0.36427173  0.75844498  0.50540563  1
  O  O210  1  0.85920458  0.25335194  -0.01131549  1
  O  O211  1  0.86858130  0.24878827  0.51272625  1
  O  O212  1  0.87711990  0.76602134  0.00799835  1
  O  O213  1  0.86171080  0.76667891  0.49169723  1
  O  O214  1  0.14464169  0.25124956  0.49893361  1
  O  O215  1  0.11573522  0.23002656  0.99551622  1
  O  O216  1  0.13390253  0.75622613  0.48824902  1
  O  O217  1  0.13622622  0.75991614  0.99181774  1
  O  O218  1  0.62682052  0.24541217  0.49603230  1
  O  O219  1  0.63594633  0.25116562  0.99219338  1
  O  O220  1  0.64324999  0.76754841  0.49022710  1
  O  O221  1  0.62771344  0.74888254  0.99415299  1
  O  O222  1  0.49395175  0.24098371  0.13676609  1
  O  O223  1  0.49131347  0.24597019  0.63156605  1
  O  O224  1  0.49367065  0.74527746  0.13482211  1
  O  O225  1  0.48681036  0.74104899  0.61262118  1
  O  O226  1  0.99754205  0.23819606  0.12916702  1
  O  O227  1  0.99517837  0.24207115  0.63140215  1
  O  O228  1  0.99449556  0.74364901  0.12951829  1
  O  O229  1  1.00426329  0.74012200  0.64144922  1
  O  O230  1  0.02634961  0.24204254  0.37368782  1
  O  O231  1  0.00237719  0.23971847  0.86060450  1
  O  O232  1  0.00437463  0.75510289  0.36957866  1
  O  O233  1  0.01295624  0.74229999  0.86929657  1
  O  O234  1  0.50162352  0.24436294  0.36249612  1
  O  O235  1  0.49713900  0.26190212  0.85911240  1
  O  O236  1  0.50794765  0.75704884  0.37121228  1
  O  O237  1  0.48034368  0.72378693  0.84988680  1
  O  O238  1  0.25880466  0.11665613  0.49133956  1
  O  O239  1  0.23597554  0.11800742  0.99902302  1
  O  O240  1  0.25704490  0.63862465  0.48497381  1
  O  O241  1  0.25678210  0.63849057  0.99193514  1
  O  O242  1  0.73532181  0.14173339  0.51669388  1
  O  O243  1  0.75225992  0.11829205  0.98018829  1
  O  O244  1  0.75649986  0.64285291  0.49556450  1
  O  O245  1  0.74955490  0.63461668  1.00214859  1
  O  O246  1  0.26948723  0.36293419  -0.01753498  1
  O  O247  1  0.25750198  0.36451553  0.50361717  1
  O  O248  1  0.25809430  0.86585026  0.00745393  1
  O  O249  1  0.25505717  0.86598745  0.50483119  1
  O  O250  1  0.74114324  0.37286319  -0.01628753  1
  O  O251  1  0.74110040  0.36689367  0.51513526  1
  O  O252  1  0.75820722  0.88002326  -0.00297914  1
  O  O253  1  0.76384711  0.87840639  0.50154195  1
  O  O254  1  0.13182949  0.49793545  0.25484929  1
  O  O255  1  0.12095351  0.49340675  0.76198568  1
  O  O256  1  0.12797802  0.98903246  0.24327190  1
  O  O257  1  0.13265070  0.98704265  0.75395727  1
  O  O258  1  0.62585999  0.50353838  0.24143370  1
  O  O259  1  0.63982823  0.49372668  0.73480056  1
  O  O260  1  0.62643978  0.98728268  0.25415780  1
  O  O261  1  0.64291755  1.01030283  0.74343510  1
  O  O262  1  0.36263993  0.00365064  0.24191595  1
  O  O263  1  0.36816719  0.00645110  0.74582849  1
  O  O264  1  0.38344810  0.51194201  0.26602348  1
  O  O265  1  0.37116501  0.49090109  0.76578330  1
  O  O266  1  0.92169715  0.01195613  0.26236857  1
  O  O267  1  0.87529346  0.00866058  0.75460047  1
  O  O268  1  0.85526059  0.50207378  0.25523047  1
  O  O269  1  0.86892839  0.50710319  0.75757087  1
  O  O270  1  0.13654844  0.35885504  0.38198856  1
  O  O271  1  0.12589729  0.37427713  0.86898846  1
  O  O272  1  0.11822866  0.86409774  0.36904458  1
  O  O273  1  0.13469358  0.86373647  0.86418181  1
  O  O274  1  0.62322918  0.36064296  0.37622784  1
  O  O275  1  0.61527306  0.39807852  0.86056453  1
  O  O276  1  0.61766344  0.86888980  0.36528069  1
  O  O277  1  0.62871925  0.88204088  0.84060494  1
  O  O278  1  0.37743924  0.13168656  0.13313695  1
  O  O279  1  0.38743889  0.13314081  0.63401567  1
  O  O280  1  0.38447092  0.63472996  0.13603407  1
  O  O281  1  0.38037633  0.63321173  0.61514260  1
  O  O282  1  0.89065699  0.11829331  0.12138441  1
  O  O283  1  0.88139921  0.13597898  0.63109977  1
  O  O284  1  0.88092825  0.64626159  0.12209859  1
  O  O285  1  0.88852550  0.62165686  0.64115062  1
  O  O286  1  0.26411279  0.23923243  0.12966595  1
  O  O287  1  0.26461955  0.24919136  0.62090571  1
  O  O288  1  0.26175987  0.75311497  0.11849697  1
  O  O289  1  0.25255022  0.75232980  0.61480823  1
  O  O290  1  0.75088400  0.25630619  0.09644758  1
  O  O291  1  0.75925773  0.26027692  0.62338826  1
  O  O292  1  0.76306394  0.75066723  0.13364000  1
  O  O293  1  0.74859347  0.75729290  0.60876408  1
  O  O294  1  0.25151358  0.24098373  0.39309940  1
  O  O295  1  0.23321933  0.22932445  0.83438626  1
  O  O296  1  0.24150549  0.74582674  0.37922954  1
  O  O297  1  0.24285528  0.73884886  0.88123835  1
  O  O298  1  0.73863441  0.25396712  0.39446064  1
  O  O299  1  0.75531218  0.23730591  0.87526938  1
  O  O300  1  0.74551535  0.74655129  0.38014263  1
  O  O301  1  0.74671789  0.74457906  0.87705384  1
  O  O302  1  0.00681307  0.11522704  0.01080786  1
  O  O303  1  0.00585663  0.11823848  0.51683431  1
  O  O304  1  -0.00898973  0.62530700  0.01048430  1
  O  O305  1  -0.00776300  0.63650049  0.51843982  1
  O  O306  1  0.50686470  0.11832240  -0.00695708  1
  O  O307  1  0.50611003  0.12386218  0.50657480  1
  O  O308  1  0.48900931  0.62362280  0.01988033  1
  O  O309  1  0.50065338  0.61358748  0.50872755  1
  O  O310  1  0.50223851  0.38771300  0.50277122  1
  O  O311  1  0.49321390  0.36947752  0.98886508  1
  O  O312  1  0.49322820  0.87523848  0.49320685  1
  O  O313  1  0.48359374  0.86571741  1.00559512  1
  O  O314  1  1.02725582  0.39708080  0.50026816  1
  O  O315  1  0.98457493  0.39102397  1.01765071  1
  O  O316  1  0.99378332  0.87410438  0.49815158  1
  O  O317  1  0.99857225  0.88816945  1.00381619  1
  O  O318  1  0.49522534  0.50355303  0.38409699  1
  O  O319  1  0.48511029  0.48744885  0.87980005  1
  O  O320  1  0.50396724  0.98617006  0.37574890  1
  O  O321  1  0.50363414  1.02131361  0.90099017  1
  O  O322  1  0.97376305  0.50004362  0.36170271  1
  O  O323  1  0.98099908  0.50545727  0.89036783  1
  O  O324  1  1.01482649  0.98548738  0.39198011  1
  O  O325  1  0.98629719  1.00785575  0.88348167  1
  O  O326  1  0.00981481  0.00789865  0.11830474  1
  O  O327  1  0.00244621  0.01709044  0.62538181  1
  O  O328  1  -0.01878554  0.51830404  0.11762456  1
  O  O329  1  0.00366647  0.51551391  0.62869795  1
  O  O330  1  0.52262275  0.00399131  0.13261198  1
  O  O331  1  0.49590420  0.01292224  0.62478201  1
  O  O332  1  0.51017821  0.51767701  0.13168847  1
  O  O333  1  0.50838583  0.50329277  0.61099945  1
  O  O334  1  0.24928422  0.37721697  0.25139824  1
  O  O335  1  0.23990619  0.38640837  0.75656282  1
  O  O336  1  0.24194953  0.87931106  0.24856162  1
  O  O337  1  0.24485057  0.88051685  0.74410550  1
  O  O338  1  0.73378788  0.39620605  0.25700379  1
  O  O339  1  0.74582934  0.38266603  0.74089319  1
  O  O340  1  0.74012617  0.87400614  0.25723296  1
  O  O341  1  0.75956601  0.89352746  0.74231803  1
  O  O342  1  0.25785769  0.11370393  0.25765817  1
  O  O343  1  0.26296663  0.10806980  0.73442683  1
  O  O344  1  0.26233344  0.62878757  0.26096974  1
  O  O345  1  0.24782038  0.61776852  0.76725126  1
  O  O346  1  0.76602363  0.19655011  0.25560578  1
  O  O347  1  0.76104993  0.12110676  0.75240679  1
  O  O348  1  0.74131838  0.61601699  0.26153839  1
  O  O349  1  0.76025704  0.61634995  0.73618923  1
  O  O350  1  0.36147980  0.13077818  0.36509247  1
  O  O351  1  0.37425008  0.13615110  0.85492144  1
  O  O352  1  0.37060825  0.63059001  0.36697071  1
  O  O353  1  0.36104129  0.60985390  0.88015709  1
  O  O354  1  0.86361536  0.11508766  0.41390162  1
  O  O355  1  0.86900109  0.11722903  0.86211308  1
  O  O356  1  0.86079466  0.62542906  0.37529649  1
  O  O357  1  0.87562168  0.61668814  0.86007665  1
  O  O358  1  0.14556849  0.37460672  0.08301083  1
  O  O359  1  0.11484236  0.38531742  0.65271130  1
  O  O360  1  0.12847614  0.87984732  0.13275014  1
  O  O361  1  0.13700083  0.86198000  0.63745782  1
  O  O362  1  0.61323695  0.38960035  0.13114219  1
  O  O363  1  0.63365206  0.38551650  0.63322330  1
  O  O364  1  0.62401634  0.88358155  0.14118388  1
  O  O365  1  0.62389058  0.87115087  0.64676705  1
  O  O366  1  0.13198572  0.24860010  0.26842990  1
  O  O367  1  0.10763769  0.26647920  0.74678348  1
  O  O368  1  0.11538727  0.76035636  0.25929456  1
  O  O369  1  0.11940928  0.75631180  0.75998402  1
  O  O370  1  0.60688425  0.24910214  0.25598849  1
  O  O371  1  0.61750239  0.26501523  0.74043835  1
  O  O372  1  0.61733261  0.76240015  0.25720695  1
  O  O373  1  0.61947533  0.74523700  0.74875013  1
  O  O374  1  0.38134650  0.24095830  0.24045133  1
  O  O375  1  0.38490212  0.24486932  0.73746771  1
  O  O376  1  0.38201359  0.74460692  0.24510328  1
  O  O377  1  0.35735264  0.74849100  0.73105835  1
  O  O378  1  0.91791251  0.24864791  0.27796253  1
  O  O379  1  0.88426623  0.24337499  0.74226009  1
  O  O380  1  0.88581647  0.76640433  0.23477938  1
  O  O381  1  0.88722047  0.74645873  0.76146524  1
  O  O382  1  0.39110831  0.50076593  0.48630614  1
  O  O383  1  0.37866558  0.48082924  0.99443068  1
  O  O384  1  0.37586979  0.98329737  0.50797935  1
  O  O385  1  0.36935630  0.98240428  1.01265951  1
  O  O386  1  0.86447608  0.49521415  0.48388516  1
  O  O387  1  0.87066142  0.50567331  0.98856014  1
  O  O388  1  0.89374691  0.98399092  0.50227959  1
  O  O389  1  0.87950287  0.99035382  0.99523374  1
  O  O390  1  0.12012107  0.00144380  0.00736939  1
  O  O391  1  0.11785457  -0.01421716  0.51218225  1
  O  O392  1  0.09461509  0.50523928  -0.00628219  1
  O  O393  1  0.07273806  0.45568605  0.49339681  1
  O  O394  1  0.63392819  -0.00872932  0.01037696  1
  O  O395  1  0.62525082  0.01534770  0.49558293  1
  O  O396  1  0.61746703  0.50059321  0.01985121  1
  O  O397  1  0.61695873  0.49557816  0.50492291  1
  O  O398  1  0.37320292  0.35903686  0.11209023  1
  O  O399  1  0.38272922  0.36435278  0.63145149  1
  O  O400  1  0.37050160  0.86460371  0.12773801  1
  O  O401  1  0.36475898  0.86318060  0.61670295  1
  O  O402  1  0.86609060  0.36067720  0.17346296  1
  O  O403  1  0.86663830  0.36859193  0.63279208  1
  O  O404  1  0.87606856  0.86922886  0.11010338  1
  O  O405  1  0.87875109  0.87351708  0.61443742  1
  O  O406  1  0.14775151  0.13517022  0.37774725  1
  O  O407  1  0.12087290  0.11560103  0.89082352  1
  O  O408  1  0.13363011  0.63454857  0.36653102  1
  O  O409  1  0.13483588  0.63320937  0.87765996  1
  O  O410  1  0.62627769  0.13938529  0.38584663  1
  O  O411  1  0.64490853  0.12286374  0.86750852  1
  O  O412  1  0.63195396  0.64258687  0.37369427  1
  O  O413  1  0.63556496  0.61354055  0.88735594  1
