# generated using pymatgen
data_V79Zn79O256
_symmetry_space_group_name_H-M   'P 1'
_cell_length_a   16.87207095
_cell_length_b   16.88000200
_cell_length_c   16.88756637
_cell_angle_alpha   90.01247169
_cell_angle_beta   90.22006015
_cell_angle_gamma   89.87624168
_symmetry_Int_Tables_number   1
_chemical_formula_structural   V79Zn79O256
_chemical_formula_sum   'V79 Zn79 O256'
_cell_volume   4809.54209031
_cell_formula_units_Z   1
loop_
 _symmetry_equiv_pos_site_id
 _symmetry_equiv_pos_as_xyz
  1  'x, y, z'
loop_
 _atom_site_type_symbol
 _atom_site_label
 _atom_site_symmetry_multiplicity
 _atom_site_fract_x
 _atom_site_fract_y
 _atom_site_fract_z
 _atom_site_occupancy
  V  V0  1  0.13048724  0.74384492  0.38397020  1
  V  V1  1  0.11754674  0.01535979  0.11871793  1
  V  V2  1  0.11730358  0.49559684  0.11755329  1
  V  V3  1  0.00667337  0.00017845  0.50183410  1
  V  V4  1  0.36642675  0.87691438  0.00422753  1
  V  V5  1  0.50056806  0.61279207  0.11639037  1
  V  V6  1  0.24125536  0.89369533  0.62907314  1
  V  V7  1  0.37184861  0.00609981  0.88084337  1
  V  V8  1  0.51046992  0.24671773  0.75433269  1
  V  V9  1  0.49564401  0.74875577  0.24501526  1
  V  V10  1  -0.02018438  0.00272281  -0.00245336  1
  V  V11  1  0.00309034  0.36670780  0.38403273  1
  V  V12  1  0.62806034  0.88131370  0.74662629  1
  V  V13  1  0.76326589  0.38442749  0.62534279  1
  V  V14  1  0.87861125  0.11775208  0.24642198  1
  V  V15  1  0.36628283  0.12245064  0.75846478  1
  V  V16  1  0.36443299  0.74679727  0.63736771  1
  V  V17  1  0.74852642  0.62173878  0.36739401  1
  V  V18  1  -0.00206804  0.87975207  0.37152461  1
  V  V19  1  -0.00226455  0.38111559  0.87980222  1
  V  V20  1  -0.00348173  0.74687184  0.24698134  1
  V  V21  1  0.61175602  0.12125022  0.02173555  1
  V  V22  1  0.12958458  0.50364001  0.61814955  1
  V  V23  1  0.86747141  0.75336468  0.11566732  1
  V  V24  1  0.12446667  0.36754449  0.25039633  1
  V  V25  1  0.25431440  0.50239190  0.75557146  1
  V  V26  1  0.75046283  0.88542106  0.62447094  1
  V  V27  1  0.74790438  0.87842471  0.11509618  1
  V  V28  1  0.62126820  0.62276153  0.50552066  1
  V  V29  1  0.12831855  0.36874879  0.75500665  1
  V  V30  1  0.00564399  0.12660187  0.62373576  1
  V  V31  1  0.24902671  0.01474877  0.25090343  1
  V  V32  1  0.13128068  0.12563560  0.48627036  1
  V  V33  1  -0.00504528  0.62049149  0.11464987  1
  V  V34  1  0.37887924  0.37200164  0.00430590  1
  V  V35  1  0.76440025  0.25143850  0.51016456  1
  V  V36  1  0.00798431  0.75556797  0.76273218  1
  V  V37  1  0.87406107  0.61505200  0.74471725  1
  V  V38  1  0.62741227  0.38952610  0.73705218  1
  V  V39  1  0.37896222  0.37199866  0.49706296  1
  V  V40  1  0.88087296  0.75296891  0.62270274  1
  V  V41  1  0.36708175  0.62157807  0.25286823  1
  V  V42  1  0.86782466  -0.01150008  0.86620548  1
  V  V43  1  0.62373035  0.88022989  0.24760229  1
  V  V44  1  0.87252360  0.49248444  0.37604577  1
  V  V45  1  0.86449043  0.12745233  0.74333333  1
  V  V46  1  0.61298525  0.12706970  0.49404417  1
  V  V47  1  0.75087304  -0.00110087  0.25754568  1
  V  V48  1  0.50198505  0.49904746  0.51006568  1
  V  V49  1  0.87594126  0.88335523  0.49296751  1
  V  V50  1  0.49613449  0.87909880  0.38285083  1
  V  V51  1  0.75005470  0.75112129  0.49779250  1
  V  V52  1  0.51156682  0.37795517  0.88222633  1
  V  V53  1  0.37769072  0.24707670  0.62661380  1
  V  V54  1  0.24779095  0.23845818  -0.00721259  1
  V  V55  1  0.52066325  0.37466236  0.37236569  1
  V  V56  1  0.25223149  0.37190888  0.62762530  1
  V  V57  1  -0.00278778  0.24908787  0.74745230  1
  V  V58  1  0.74114529  0.38982918  0.15311172  1
  V  V59  1  0.47653512  0.10993885  0.13648616  1
  V  V60  1  0.36888747  0.87288028  0.50542335  1
  V  V61  1  0.50571159  0.75156997  0.75709656  1
  V  V62  1  0.12024949  0.62886475  -0.00529714  1
  V  V63  1  0.01014031  0.62823210  0.61351101  1
  V  V64  1  0.13255706  0.87194762  0.23851718  1
  V  V65  1  0.63517078  0.63146171  -0.00632646  1
  V  V66  1  0.50123576  0.24548177  0.24281335  1
  V  V67  1  0.61833245  0.74965947  0.37517983  1
  V  V68  1  0.12383895  0.88929377  0.76268047  1
  V  V69  1  0.36606833  0.00596202  0.37833270  1
  V  V70  1  0.25114919  0.63513675  0.87971907  1
  V  V71  1  0.25527254  0.36941904  0.12450052  1
  V  V72  1  0.74427253  0.13711842  0.88561273  1
  V  V73  1  0.24952560  0.24507381  0.48834295  1
  V  V74  1  -0.00449751  0.24854685  0.23918711  1
  V  V75  1  0.37632124  0.49998803  0.88047800  1
  V  V76  1  0.75042229  0.13444724  0.37555739  1
  V  V77  1  0.50037084  0.62602910  0.63549271  1
  V  V78  1  0.50949887  0.88187073  0.88185957  1
  Zn  Zn79  1  0.86135001  0.24666816  0.11330234  1
  Zn  Zn80  1  0.36992570  0.50271982  0.38081681  1
  Zn  Zn81  1  0.24655078  0.49786188  0.25317046  1
  Zn  Zn82  1  0.87525515  0.50626927  0.89175694  1
  Zn  Zn83  1  0.58020747  0.44656308  0.07024567  1
  Zn  Zn84  1  0.74195078  0.62780054  0.86158129  1
  Zn  Zn85  1  0.00583326  0.50143020  0.49662329  1
  Zn  Zn86  1  0.49564848  0.11269335  0.61874308  1
  Zn  Zn87  1  0.22374415  0.60825622  0.40776183  1
  Zn  Zn88  1  0.60754767  -0.00635257  0.61153541  1
  Zn  Zn89  1  0.23001625  0.77252529  0.00500544  1
  Zn  Zn90  1  0.36360568  0.75301019  0.12261672  1
  Zn  Zn91  1  0.12577996  0.21423293  0.87973533  1
  Zn  Zn92  1  0.86537014  0.61979349  0.24415209  1
  Zn  Zn93  1  0.86217591  0.37409188  0.00489095  1
  Zn  Zn94  1  0.19048659  0.19044520  0.18584070  1
  Zn  Zn95  1  0.18578913  0.18119138  0.68450455  1
  Zn  Zn96  1  0.18539776  0.68836921  0.18085372  1
  Zn  Zn97  1  0.18394132  0.68849349  0.69766960  1
  Zn  Zn98  1  0.68158541  0.19950583  0.19397405  1
  Zn  Zn99  1  0.68188776  0.18732237  0.67699118  1
  Zn  Zn100  1  0.68156387  0.68733538  0.18056716  1
  Zn  Zn101  1  0.68869930  0.69570593  0.68590802  1
  Zn  Zn102  1  0.32010976  0.30500989  0.30532963  1
  Zn  Zn103  1  0.31683231  0.30996032  0.81789327  1
  Zn  Zn104  1  0.31049853  0.81097601  0.31378101  1
  Zn  Zn105  1  0.31116352  0.82275737  0.81398185  1
  Zn  Zn106  1  0.81305480  0.30918307  0.31438947  1
  Zn  Zn107  1  0.81081207  0.31449428  0.81074275  1
  Zn  Zn108  1  0.81086626  0.80905806  0.30950719  1
  Zn  Zn109  1  0.80133065  0.80545261  0.80691879  1
  Zn  Zn110  1  0.19087805  0.42780008  0.43469435  1
  Zn  Zn111  1  0.18830473  0.43569349  0.94054910  1
  Zn  Zn112  1  0.18650001  0.93145629  0.43776506  1
  Zn  Zn113  1  0.16787304  1.00678756  0.91154191  1
  Zn  Zn114  1  0.69348307  0.43885539  0.44581194  1
  Zn  Zn115  1  0.69674360  0.45813980  0.93551327  1
  Zn  Zn116  1  0.68704152  0.94243509  0.43572058  1
  Zn  Zn117  1  0.68563860  0.95054811  0.93415505  1
  Zn  Zn118  1  0.30661216  0.05066473  0.06485260  1
  Zn  Zn119  1  0.31607315  0.06177582  0.56248694  1
  Zn  Zn120  1  0.30963402  0.56061061  0.06542952  1
  Zn  Zn121  1  0.31442766  0.56095757  0.57147744  1
  Zn  Zn122  1  0.80398667  0.06327519  0.06400548  1
  Zn  Zn123  1  0.81644600  0.06560842  0.55946416  1
  Zn  Zn124  1  0.80884957  0.55003037  0.06176860  1
  Zn  Zn125  1  0.81749050  0.56267570  0.55715465  1
  Zn  Zn126  1  0.44067444  0.43634887  0.19474135  1
  Zn  Zn127  1  0.43867080  0.43664890  0.69145228  1
  Zn  Zn128  1  0.43302932  0.93868431  0.19265987  1
  Zn  Zn129  1  0.43679170  0.93747066  0.69040991  1
  Zn  Zn130  1  0.92849352  0.43661829  0.18794351  1
  Zn  Zn131  1  0.94651427  0.43485814  0.68158892  1
  Zn  Zn132  1  0.93880592  0.93713816  0.18152077  1
  Zn  Zn133  1  0.94106925  0.93995437  0.68750043  1
  Zn  Zn134  1  0.06301858  0.06209085  0.31095208  1
  Zn  Zn135  1  0.04702099  0.05654947  0.80939783  1
  Zn  Zn136  1  0.05789775  0.55691922  0.30628506  1
  Zn  Zn137  1  0.06211281  0.56436915  0.80823364  1
  Zn  Zn138  1  0.56106971  0.06280279  0.31506612  1
  Zn  Zn139  1  0.56404971  0.05878004  0.80972464  1
  Zn  Zn140  1  0.55576007  0.56029959  0.31594661  1
  Zn  Zn141  1  0.56599143  0.56170076  0.81931175  1
  Zn  Zn142  1  0.43301887  0.19893140  0.41335660  1
  Zn  Zn143  1  0.44723129  0.19267004  0.94621749  1
  Zn  Zn144  1  0.39843374  0.67137820  0.46052729  1
  Zn  Zn145  1  0.43498966  0.69286412  0.93641800  1
  Zn  Zn146  1  0.93652496  0.18476981  0.43248987  1
  Zn  Zn147  1  0.93743581  0.18614973  0.93727780  1
  Zn  Zn148  1  0.93812119  0.68883746  0.43302049  1
  Zn  Zn149  1  0.89334837  0.71347848  0.91484949  1
  Zn  Zn150  1  0.06440873  0.30261755  0.05849078  1
  Zn  Zn151  1  0.06698112  0.30749506  0.56618498  1
  Zn  Zn152  1  0.05240689  0.81677052  0.05279383  1
  Zn  Zn153  1  0.06637365  0.81406672  0.56221589  1
  Zn  Zn154  1  0.68811328  0.28532989  0.02550512  1
  Zn  Zn155  1  0.56948480  0.30432881  0.55894770  1
  Zn  Zn156  1  0.56184419  0.81093142  0.06232673  1
  Zn  Zn157  1  0.55781646  0.80982005  0.56497558  1
  O  O158  1  0.12053017  0.11416220  0.13563442  1
  O  O159  1  0.11178066  0.12366389  0.61640789  1
  O  O160  1  0.11591805  0.61512959  0.11759795  1
  O  O161  1  0.12256488  0.61574775  0.63116260  1
  O  O162  1  0.62678454  0.12295022  0.12263203  1
  O  O163  1  0.61698721  0.11959267  0.61076465  1
  O  O164  1  0.60600004  0.62591256  0.12067651  1
  O  O165  1  0.61568656  0.63799754  0.61336795  1
  O  O166  1  0.38021605  0.37460115  0.39211402  1
  O  O167  1  0.38394038  0.38187219  0.88254294  1
  O  O168  1  0.37786188  0.87261313  0.38646080  1
  O  O169  1  0.38592600  0.88760460  0.87941234  1
  O  O170  1  0.88613126  0.38495632  0.37199022  1
  O  O171  1  0.89221683  0.37403382  0.86768463  1
  O  O172  1  0.88529108  0.86433735  0.38278782  1
  O  O173  1  0.86320831  0.88970712  0.85978645  1
  O  O174  1  0.25556630  -0.00841102  0.36597744  1
  O  O175  1  0.27419225  0.00023160  0.86959184  1
  O  O176  1  0.25205218  0.50047941  0.37115009  1
  O  O177  1  0.25738253  0.50173531  0.87075950  1
  O  O178  1  0.75299709  0.00750290  0.36326136  1
  O  O179  1  0.76382960  0.01386429  0.87713757  1
  O  O180  1  0.76379079  0.50697406  0.38327809  1
  O  O181  1  0.76280294  0.51576005  0.86677743  1
  O  O182  1  0.23806974  0.48794668  0.12900903  1
  O  O183  1  0.24876996  0.49423807  0.63623832  1
  O  O184  1  0.23629345  1.00103426  0.14368276  1
  O  O185  1  0.25019374  0.99268530  0.62855409  1
  O  O186  1  0.74887008  0.49131005  0.14026430  1
  O  O187  1  0.75242690  0.48398014  0.61028707  1
  O  O188  1  0.75487354  0.98445390  0.13976951  1
  O  O189  1  0.75457352  0.98625740  0.61800443  1
  O  O190  1  0.00421277  0.36350653  0.25483556  1
  O  O191  1  0.00992995  0.36606393  0.75116859  1
  O  O192  1  0.00470274  0.86894754  0.25478582  1
  O  O193  1  0.00935987  0.86299745  0.74294614  1
  O  O194  1  0.49039606  0.36345887  0.26790270  1
  O  O195  1  0.50943897  0.36674910  0.75303550  1
  O  O196  1  0.50439739  0.86689867  0.25701761  1
  O  O197  1  0.50740350  0.86882218  0.75719797  1
  O  O198  1  0.50256050  0.12927557  0.24338746  1
  O  O199  1  0.49653293  0.13997741  0.75226855  1
  O  O200  1  0.49223744  0.63259639  0.23973610  1
  O  O201  1  0.51056907  0.63488754  0.74376603  1
  O  O202  1  0.98867896  0.13511721  0.25797178  1
  O  O203  1  0.99363199  0.13223609  0.74040057  1
  O  O204  1  1.00158854  0.63558772  0.23695435  1
  O  O205  1  0.99928202  0.63853503  0.73491817  1
  O  O206  1  0.36829856  0.26568394  -0.00553104  1
  O  O207  1  0.37137473  0.25277730  0.50828295  1
  O  O208  1  0.37456940  0.76946270  -0.00221383  1
  O  O209  1  0.38415805  0.76556844  0.52499562  1
  O  O210  1  0.88611683  0.26042950  0.00329935  1
  O  O211  1  0.86470173  0.24515035  0.50088322  1
  O  O212  1  0.88259840  0.75617372  0.01858975  1
  O  O213  1  0.87362184  0.75971130  0.50571950  1
  O  O214  1  0.13521994  0.23591359  0.50547051  1
  O  O215  1  0.14170919  0.24606104  0.99672494  1
  O  O216  1  0.12068336  0.75199718  0.48296869  1
  O  O217  1  0.11867465  0.73584149  1.00228282  1
  O  O218  1  0.64119099  0.23258240  0.50439017  1
  O  O219  1  0.61372853  0.21625125  0.97915555  1
  O  O220  1  0.62599673  0.74451764  0.49109740  1
  O  O221  1  0.61645255  0.73144596  1.00559134  1
  O  O222  1  0.48354687  0.24010694  0.14498968  1
  O  O223  1  0.49039165  0.25007974  0.63534967  1
  O  O224  1  0.49358617  0.74660474  0.13633380  1
  O  O225  1  0.49265968  0.74542388  0.63749688  1
  O  O226  1  0.99582785  0.25320016  0.13781283  1
  O  O227  1  1.00296593  0.24222665  0.63562968  1
  O  O228  1  0.98913380  0.74648990  0.13045799  1
  O  O229  1  0.99647294  0.74620622  0.62470223  1
  O  O230  1  -0.00678173  0.26306692  0.36561691  1
  O  O231  1  0.00968952  0.25562124  0.86124130  1
  O  O232  1  0.00732075  0.75652107  0.36441273  1
  O  O233  1  -0.00845917  0.74988082  0.86014417  1
  O  O234  1  0.51804153  0.27701159  0.39763189  1
  O  O235  1  0.49401122  0.26575493  0.86208445  1
  O  O236  1  0.50776883  0.75756486  0.36654497  1
  O  O237  1  0.49189796  0.76469529  0.86470140  1
  O  O238  1  0.23826666  0.12802972  0.50470867  1
  O  O239  1  0.26439143  0.14055487  1.00566455  1
  O  O240  1  0.29260100  0.63240545  0.49000549  1
  O  O241  1  0.23993577  0.62229157  0.98933954  1
  O  O242  1  0.75142731  0.13371987  0.49333652  1
  O  O243  1  0.73849674  0.12649391  0.99222900  1
  O  O244  1  0.74018250  0.63107146  0.49244714  1
  O  O245  1  0.73559315  0.62541364  1.01167129  1
  O  O246  1  0.25766619  0.36757059  0.00701158  1
  O  O247  1  0.25907516  0.36476749  0.50765900  1
  O  O248  1  0.26624327  0.88272529  -0.00856544  1
  O  O249  1  0.25533562  0.87536718  0.51622143  1
  O  O250  1  0.74463845  0.37834036  -0.00106697  1
  O  O251  1  0.74508257  0.36086482  0.51203500  1
  O  O252  1  0.73873764  0.88433034  0.01704289  1
  O  O253  1  0.75800365  0.87115975  0.50113655  1
  O  O254  1  0.12470439  0.48496500  0.23955676  1
  O  O255  1  0.13561642  0.49096451  0.74093972  1
  O  O256  1  0.12954257  0.98950888  0.24806498  1
  O  O257  1  0.10413285  0.98409462  0.73605356  1
  O  O258  1  0.60406751  0.48986928  0.24594252  1
  O  O259  1  0.62017904  0.48853415  0.74574656  1
  O  O260  1  0.63219662  0.98673967  0.25770382  1
  O  O261  1  0.61941493  0.98428871  0.73814783  1
  O  O262  1  0.35570171  -0.00918056  0.26253623  1
  O  O263  1  0.38209894  0.01731396  0.75872551  1
  O  O264  1  0.37278864  0.51198634  0.25275536  1
  O  O265  1  0.36219636  0.49258969  0.76018006  1
  O  O266  1  0.87161178  0.01096846  0.24767866  1
  O  O267  1  0.88258690  0.01357460  0.75742427  1
  O  O268  1  0.88440167  0.50778403  0.26976154  1
  O  O269  1  0.88209198  0.51627082  0.73129584  1
  O  O270  1  0.11246846  0.37724748  0.36377051  1
  O  O271  1  0.11989132  0.37974921  0.86137069  1
  O  O272  1  0.11557805  0.86465164  0.36541390  1
  O  O273  1  0.13394379  0.89863224  0.86150581  1
  O  O274  1  0.61838044  0.39395456  0.37210368  1
  O  O275  1  0.61265979  0.38256561  0.86388012  1
  O  O276  1  0.61727533  0.86872098  0.37053426  1
  O  O277  1  0.61590166  0.88252284  0.86645596  1
  O  O278  1  0.37678748  0.11141152  0.13520116  1
  O  O279  1  0.37729055  0.13159384  0.63661604  1
  O  O280  1  0.38358999  0.62479773  0.13500434  1
  O  O281  1  0.38585841  0.63940616  0.63035646  1
  O  O282  1  0.86378915  0.12772475  0.14286866  1
  O  O283  1  0.88732033  0.11862863  0.63535041  1
  O  O284  1  0.87718210  0.63648424  0.12627967  1
  O  O285  1  0.88662603  0.63542227  0.62450959  1
  O  O286  1  0.24736490  0.26175063  0.11539926  1
  O  O287  1  0.26159009  0.25198523  0.62010519  1
  O  O288  1  0.25119455  0.74792639  0.11440789  1
  O  O289  1  0.26297551  0.74718754  0.63722847  1
  O  O290  1  0.74681575  0.26329141  0.12755507  1
  O  O291  1  0.75257813  0.25601131  0.61548424  1
  O  O292  1  0.75996442  0.75940714  0.13145206  1
  O  O293  1  0.76256651  0.75917282  0.61592907  1
  O  O294  1  0.25493102  0.25354669  0.38969107  1
  O  O295  1  0.24805375  0.25162373  0.88757231  1
  O  O296  1  0.23167308  0.74941528  0.36975736  1
  O  O297  1  0.25508122  0.73719992  0.87692711  1
  O  O298  1  0.75267283  0.24253661  0.38742695  1
  O  O299  1  0.75484057  0.23712803  0.87292517  1
  O  O300  1  0.73788114  0.74455704  0.37836459  1
  O  O301  1  0.78332500  0.73073619  0.88438684  1
  O  O302  1  -0.00015862  0.10509482  -0.00625302  1
  O  O303  1  0.00818813  0.12083380  0.50167346  1
  O  O304  1  0.00462893  0.62668678  0.01194283  1
  O  O305  1  0.00191636  0.62776062  0.50980053  1
  O  O306  1  0.49863899  0.12840921  0.02691768  1
  O  O307  1  0.51117409  0.13640733  0.48907962  1
  O  O308  1  0.49239696  0.62905153  0.01505139  1
  O  O309  1  0.50100741  0.61920621  0.51108175  1
  O  O310  1  0.49917587  0.38327095  0.50256011  1
  O  O311  1  0.49868719  0.37736466  0.98586984  1
  O  O312  1  0.49262936  0.87173389  0.48922596  1
  O  O313  1  0.50006849  0.87317472  0.98470751  1
  O  O314  1  1.00944148  0.37057344  0.48662953  1
  O  O315  1  1.01289149  0.37047831  0.97906964  1
  O  O316  1  0.99625594  0.88144422  0.49276650  1
  O  O317  1  1.00570878  0.90113770  0.99849882  1
  O  O318  1  0.49167486  0.49201468  0.39267621  1
  O  O319  1  0.48773023  0.48700422  0.86281865  1
  O  O320  1  0.48068167  0.98662492  0.36230505  1
  O  O321  1  0.49345319  0.98697323  0.86810436  1
  O  O322  1  0.99627099  0.48760687  0.37697315  1
  O  O323  1  0.99921928  0.48455625  0.86290174  1
  O  O324  1  1.00442739  0.98756465  0.38188139  1
  O  O325  1  0.97737859  1.00082389  0.88342438  1
  O  O326  1  0.00760636  0.00201932  0.11681501  1
  O  O327  1  -0.00354251  0.00691532  0.60835884  1
  O  O328  1  0.00655272  0.50806214  0.13398315  1
  O  O329  1  0.01314119  0.50815244  0.62042142  1
  O  O330  1  0.50083606  0.01158164  0.13882083  1
  O  O331  1  0.49211717  -0.00115856  0.61632250  1
  O  O332  1  0.49599838  0.50792088  0.12349894  1
  O  O333  1  0.49263040  0.51226038  0.62150679  1
  O  O334  1  0.24394296  0.36640433  0.24345017  1
  O  O335  1  0.24617267  0.37854324  0.74785488  1
  O  O336  1  0.23417718  0.87608062  0.25104170  1
  O  O337  1  0.23638054  0.87404429  0.74032710  1
  O  O338  1  0.74414171  0.37491184  0.25339930  1
  O  O339  1  0.73655826  0.36904876  0.73766980  1
  O  O340  1  0.74143122  0.88077705  0.25100259  1
  O  O341  1  0.74046627  0.86736599  0.73535119  1
  O  O342  1  0.24252711  0.11396806  0.25783321  1
  O  O343  1  0.26756562  0.13356141  0.75206253  1
  O  O344  1  0.26291154  0.62616730  0.24726461  1
  O  O345  1  0.24198878  0.61427975  0.76879937  1
  O  O346  1  0.75525052  0.11972396  0.25723715  1
  O  O347  1  0.76402380  0.13098334  0.73971746  1
  O  O348  1  0.74270683  0.63096176  0.26408704  1
  O  O349  1  0.77101937  0.63535126  0.73897003  1
  O  O350  1  0.37254335  0.10316846  0.38846090  1
  O  O351  1  0.38879295  0.11847990  0.86892289  1
  O  O352  1  0.38710755  0.62624343  0.35551569  1
  O  O353  1  0.36077814  0.61509785  0.88511408  1
  O  O354  1  0.86384921  0.12807809  0.36025000  1
  O  O355  1  0.86298809  0.12155532  0.86062887  1
  O  O356  1  0.86380611  0.62245206  0.37297602  1
  O  O357  1  0.89630294  0.61689588  0.84788830  1
  O  O358  1  0.12959141  0.37786431  0.12980940  1
  O  O359  1  0.13219888  0.38075686  0.63451076  1
  O  O360  1  0.11693078  0.88088712  0.13775004  1
  O  O361  1  0.13912568  0.87187818  0.62669115  1
  O  O362  1  0.64001270  0.36786207  0.11980547  1
  O  O363  1  0.62755490  0.37447890  0.63394889  1
  O  O364  1  0.63693965  0.86354517  0.13796646  1
  O  O365  1  0.63463445  0.87338838  0.62520851  1
  O  O366  1  0.11171488  0.25756480  0.24508258  1
  O  O367  1  0.12180081  0.25648463  0.74959293  1
  O  O368  1  0.11539759  0.75998522  0.24968533  1
  O  O369  1  0.11367117  0.75943775  0.75454913  1
  O  O370  1  0.60246327  0.24588817  0.26061320  1
  O  O371  1  0.61240196  0.25643237  0.74481829  1
  O  O372  1  0.61695357  0.75676816  0.25794081  1
  O  O373  1  0.61563427  0.76303152  0.74607316  1
  O  O374  1  0.40547331  0.23354631  0.29846682  1
  O  O375  1  0.38390452  0.24336426  0.74515635  1
  O  O376  1  0.38046635  0.74336012  0.24853603  1
  O  O377  1  0.38570323  0.76129195  0.74200441  1
  O  O378  1  0.88519636  0.24192518  0.24815945  1
  O  O379  1  0.88544094  0.23716284  0.75315889  1
  O  O380  1  0.88394739  0.74663524  0.24387228  1
  O  O381  1  0.88910210  0.74792808  0.73433586  1
  O  O382  1  0.38423429  0.48589915  0.50791300  1
  O  O383  1  0.36847490  0.48777438  0.99014432  1
  O  O384  1  0.36650447  0.98587675  0.48842188  1
  O  O385  1  0.37780114  0.99464189  0.98862075  1
  O  O386  1  0.88624263  0.50708600  0.48242111  1
  O  O387  1  0.88216279  0.48861594  1.00394123  1
  O  O388  1  0.88421831  0.98894203  0.49741391  1
  O  O389  1  0.87400626  1.00095570  0.99234379  1
  O  O390  1  0.13477606  0.00286896  0.02030191  1
  O  O391  1  0.11853888  0.01150890  0.49432982  1
  O  O392  1  0.12675263  0.50648320  0.01133261  1
  O  O393  1  0.13237087  0.49339156  0.51416694  1
  O  O394  1  0.61734868  0.02536850  -0.01477517  1
  O  O395  1  0.63035227  0.01793806  0.49800766  1
  O  O396  1  0.61575783  0.52000771  -0.00677454  1
  O  O397  1  0.61542639  0.51352820  0.49846909  1
  O  O398  1  0.36633480  0.38446748  0.11789266  1
  O  O399  1  0.37325160  0.36534449  0.61974793  1
  O  O400  1  0.38255695  0.88051109  0.10741161  1
  O  O401  1  0.35993816  0.86945076  0.62692177  1
  O  O402  1  0.85491499  0.37151183  0.13133873  1
  O  O403  1  0.86253868  0.37292651  0.63429734  1
  O  O404  1  0.86150232  0.86438953  0.13296413  1
  O  O405  1  0.87271743  0.87034352  0.61533204  1
  O  O406  1  0.12124491  0.12769999  0.38711405  1
  O  O407  1  0.13153580  0.10326362  0.86440426  1
  O  O408  1  0.11989904  0.63709608  0.36659163  1
  O  O409  1  0.13579131  0.61539308  0.88425212  1
  O  O410  1  0.63679652  0.12052739  0.38391939  1
  O  O411  1  0.65000699  0.11926474  0.85168249  1
  O  O412  1  0.62514928  0.63226271  0.38375593  1
  O  O413  1  0.62547719  0.63079351  0.88540057  1
