# generated using pymatgen
data_V79Zn79O256
_symmetry_space_group_name_H-M   'P 1'
_cell_length_a   16.91361307
_cell_length_b   16.94576192
_cell_length_c   16.96905834
_cell_angle_alpha   90.22120247
_cell_angle_beta   89.63580197
_cell_angle_gamma   90.24918298
_symmetry_Int_Tables_number   1
_chemical_formula_structural   V79Zn79O256
_chemical_formula_sum   'V79 Zn79 O256'
_cell_volume   4863.39073138
_cell_formula_units_Z   1
loop_
 _symmetry_equiv_pos_site_id
 _symmetry_equiv_pos_as_xyz
  1  'x, y, z'
loop_
 _atom_site_type_symbol
 _atom_site_label
 _atom_site_symmetry_multiplicity
 _atom_site_fract_x
 _atom_site_fract_y
 _atom_site_fract_z
 _atom_site_occupancy
  V  V0  1  0.75181031  0.76196501  -0.00270222  1
  V  V1  1  0.75473754  0.12343960  0.86648653  1
  V  V2  1  0.50123804  0.12008963  0.12348462  1
  V  V3  1  0.00415494  -0.00153176  0.50260409  1
  V  V4  1  0.74572417  0.61992525  0.38391983  1
  V  V5  1  0.37344177  0.12172945  0.25293823  1
  V  V6  1  0.10678576  0.62422989  0.50554069  1
  V  V7  1  0.25579786  0.50459838  0.74506617  1
  V  V8  1  0.25808593  0.37624325  0.62125419  1
  V  V9  1  0.51112095  0.76195921  0.24834112  1
  V  V10  1  0.62546326  0.37856798  0.24551540  1
  V  V11  1  0.25040940  0.74707108  -0.00016209  1
  V  V12  1  0.38019100  0.87213133  -0.00411579  1
  V  V13  1  0.74818404  0.60961082  0.87312591  1
  V  V14  1  0.51114973  0.62280751  0.61056687  1
  V  V15  1  0.62005246  0.87479027  0.75218271  1
  V  V16  1  0.75149996  0.24987691  0.49293604  1
  V  V17  1  0.50192609  -0.00559633  -0.01317545  1
  V  V18  1  0.62190970  0.49051163  0.62386702  1
  V  V19  1  0.89494242  0.49514571  0.87533353  1
  V  V20  1  0.62501803  0.12282661  -0.00663593  1
  V  V21  1  0.37418896  0.74150374  0.63092038  1
  V  V22  1  0.62740970  0.24374371  0.37473321  1
  V  V23  1  0.87393583  -0.00263906  0.87355036  1
  V  V24  1  0.12619670  0.87934854  0.75143376  1
  V  V25  1  0.12663858  0.00598235  0.62634752  1
  V  V26  1  0.87097175  0.24170486  0.62957526  1
  V  V27  1  0.35153226  0.00254249  0.87539612  1
  V  V28  1  0.25499913  0.62475808  0.87148734  1
  V  V29  1  0.25677731  0.24211779  0.50255710  1
  V  V30  1  0.74194577  0.37080014  0.11950473  1
  V  V31  1  0.87429120  0.75754291  0.12123994  1
  V  V32  1  0.24908706  0.75018101  0.50195629  1
  V  V33  1  -0.00756764  0.73933583  0.74511145  1
  V  V34  1  0.37945343  0.74977360  0.12547009  1
  V  V35  1  0.36767260  0.25257949  0.11964393  1
  V  V36  1  -0.00370550  0.75355868  0.24517971  1
  V  V37  1  0.12280208  0.74847027  0.87452417  1
  V  V38  1  -0.00013541  0.87478914  0.37320393  1
  V  V39  1  -0.00418739  0.00077988  0.00370228  1
  V  V40  1  0.88316962  0.37598035  -0.00148422  1
  V  V41  1  0.24878727  0.88052731  0.63028199  1
  V  V42  1  0.38480652  0.49346978  0.88597016  1
  V  V43  1  0.12458627  0.75322477  0.36273201  1
  V  V44  1  0.74706341  0.37699775  0.63594353  1
  V  V45  1  0.62134311  0.75274834  0.87596147  1
  V  V46  1  0.24382097  0.86919976  0.12993631  1
  V  V47  1  0.75095756  0.87013842  0.62418085  1
  V  V48  1  0.62587145  -0.00544913  0.13422156  1
  V  V49  1  0.75341806  0.00156286  0.74125007  1
  V  V50  1  0.62207238  0.61773288  0.00766768  1
  V  V51  1  0.12038972  0.36764103  0.75226643  1
  V  V52  1  0.25263682  0.62636002  0.37366319  1
  V  V53  1  0.37847657  0.62829664  0.25468821  1
  V  V54  1  -0.00682265  0.12405039  0.62996884  1
  V  V55  1  0.13548734  0.11994760  -0.00755525  1
  V  V56  1  0.61637726  0.25838660  0.86359644  1
  V  V57  1  0.74803479  0.87967381  0.14263111  1
  V  V58  1  0.23904112  0.12279328  0.37974717  1
  V  V59  1  0.74812497  0.50961695  0.23779623  1
  V  V60  1  0.38523514  0.87901632  0.50355922  1
  V  V61  1  0.49889587  0.74127577  0.75225406  1
  V  V62  1  -0.00739418  0.87311704  0.87826306  1
  V  V63  1  0.60962043  0.12007027  0.50805139  1
  V  V64  1  0.88096049  0.49534220  0.37418875  1
  V  V65  1  0.84996941  0.12900901  0.21483265  1
  V  V66  1  0.38012733  -0.00211730  0.38358786  1
  V  V67  1  0.49930105  0.24936641  0.25067879  1
  V  V68  1  0.63057902  0.75820711  0.38013030  1
  V  V69  1  0.50017006  0.38528955  0.38039655  1
  V  V70  1  0.87484046  0.87206963  0.49809842  1
  V  V71  1  0.74936886  0.24908511  -0.00079163  1
  V  V72  1  0.24461509  -0.00813652  0.25298614  1
  V  V73  1  0.50216017  0.60805187  0.12702392  1
  V  V74  1  0.11657561  0.61905092  -0.00150366  1
  V  V75  1  -0.00846551  0.61767296  0.12161536  1
  V  V76  1  0.12001884  0.00307629  0.12909583  1
  V  V77  1  0.12411336  0.28049092  0.37205865  1
  V  V78  1  0.48973071  0.25539447  0.73361177  1
  Zn  Zn79  1  0.10980844  0.49989841  0.62118857  1
  Zn  Zn80  1  0.25074972  0.25946859  0.00233588  1
  Zn  Zn81  1  0.22381722  0.46974411  0.25107498  1
  Zn  Zn82  1  0.38232699  0.50916351  0.38486399  1
  Zn  Zn83  1  0.88082614  0.73752169  0.61769451  1
  Zn  Zn84  1  0.74644617  0.74238349  0.50885362  1
  Zn  Zn85  1  0.60053841  -0.00244173  0.62171404  1
  Zn  Zn86  1  0.37885331  0.12684093  0.76348101  1
  Zn  Zn87  1  0.12978764  0.49089312  0.12223736  1
  Zn  Zn88  1  0.88837809  0.37991206  0.49656943  1
  Zn  Zn89  1  0.51599718  0.88550601  0.37533286  1
  Zn  Zn90  1  0.38991714  0.38429661  0.51388150  1
  Zn  Zn91  1  0.12882660  0.24559086  0.87338680  1
  Zn  Zn92  1  0.86943589  0.60297949  0.73706430  1
  Zn  Zn93  1  -0.01609015  0.24648249  0.77147778  1
  Zn  Zn94  1  0.18276769  0.18835826  0.19353667  1
  Zn  Zn95  1  0.19858442  0.18608562  0.68027056  1
  Zn  Zn96  1  0.19900168  0.65304093  0.17380502  1
  Zn  Zn97  1  0.18031766  0.68752506  0.68658144  1
  Zn  Zn98  1  0.68413200  0.18619555  0.18348203  1
  Zn  Zn99  1  0.68275463  0.18646107  0.68418340  1
  Zn  Zn100  1  0.68632275  0.69251837  0.18753393  1
  Zn  Zn101  1  0.68891023  0.67870045  0.69100105  1
  Zn  Zn102  1  0.30847798  0.31344867  0.31696761  1
  Zn  Zn103  1  0.31157539  0.31365296  0.81901761  1
  Zn  Zn104  1  0.31799858  0.81092816  0.31474701  1
  Zn  Zn105  1  0.31289420  0.81269503  0.81347247  1
  Zn  Zn106  1  0.82107295  0.30946602  0.30640552  1
  Zn  Zn107  1  0.80778667  0.31653991  0.81708396  1
  Zn  Zn108  1  0.81598919  0.81018152  0.31241125  1
  Zn  Zn109  1  0.80860698  0.81050409  0.81171886  1
  Zn  Zn110  1  0.19032824  0.44816915  0.44131734  1
  Zn  Zn111  1  0.18634301  0.43736457  0.93313757  1
  Zn  Zn112  1  0.18840840  0.93468792  0.44109622  1
  Zn  Zn113  1  0.18213108  0.93025208  0.94438370  1
  Zn  Zn114  1  0.68472201  0.43741671  0.44264214  1
  Zn  Zn115  1  0.63540376  0.41394133  0.96150922  1
  Zn  Zn116  1  0.69764643  0.94564999  0.43314535  1
  Zn  Zn117  1  0.68683879  0.93811221  0.93521399  1
  Zn  Zn118  1  0.31353857  0.05819332  0.06518470  1
  Zn  Zn119  1  0.42555548  0.07044832  0.57423649  1
  Zn  Zn120  1  0.31108098  0.55552851  0.06455431  1
  Zn  Zn121  1  0.31600766  0.56241315  0.55938160  1
  Zn  Zn122  1  0.81015170  0.05553829  0.05553907  1
  Zn  Zn123  1  0.80644795  0.05823870  0.53756031  1
  Zn  Zn124  1  0.81148595  0.56391975  0.05503122  1
  Zn  Zn125  1  0.81316532  0.55713231  0.55927670  1
  Zn  Zn126  1  0.40291091  0.42753280  0.20443634  1
  Zn  Zn127  1  0.44236568  0.44040419  0.70030926  1
  Zn  Zn128  1  0.43678640  0.93743027  0.18525075  1
  Zn  Zn129  1  0.43212160  0.92980328  0.69762304  1
  Zn  Zn130  1  0.92303849  0.43848462  0.18203802  1
  Zn  Zn131  1  0.93304954  0.42301540  0.68691505  1
  Zn  Zn132  1  0.92961781  0.94477681  0.19356898  1
  Zn  Zn133  1  0.93649678  0.93188280  0.68721505  1
  Zn  Zn134  1  0.05999379  0.05519550  0.31468890  1
  Zn  Zn135  1  0.05935931  0.06486844  0.81179618  1
  Zn  Zn136  1  0.06416010  0.56782693  0.30550743  1
  Zn  Zn137  1  0.06748591  0.55859133  0.80899890  1
  Zn  Zn138  1  0.56439396  0.06476016  0.31580524  1
  Zn  Zn139  1  0.56119185  0.06773825  0.80071668  1
  Zn  Zn140  1  0.56714015  0.56883725  0.30963439  1
  Zn  Zn141  1  0.56748245  0.55975989  0.80443761  1
  Zn  Zn142  1  0.43343624  0.19614148  0.43788367  1
  Zn  Zn143  1  0.43731927  0.18433491  0.93384735  1
  Zn  Zn144  1  0.44243753  0.69776761  0.43815113  1
  Zn  Zn145  1  0.43978884  0.67884959  0.93940452  1
  Zn  Zn146  1  0.96325607  0.20446486  0.46395519  1
  Zn  Zn147  1  0.94014629  0.18436949  0.94295097  1
  Zn  Zn148  1  0.92831954  0.68486704  0.42843922  1
  Zn  Zn149  1  0.93204201  0.68619510  0.93708588  1
  Zn  Zn150  1  0.06499681  0.30929705  0.05961491  1
  Zn  Zn151  1  0.07212498  0.31256740  0.56401112  1
  Zn  Zn152  1  0.06293254  0.81286381  0.05992103  1
  Zn  Zn153  1  0.06365324  0.81068561  0.56247673  1
  Zn  Zn154  1  0.52043291  0.34008904  0.07881937  1
  Zn  Zn155  1  0.56451035  0.31077425  0.56416393  1
  Zn  Zn156  1  0.56538466  0.81154263  0.06278436  1
  Zn  Zn157  1  0.56473063  0.81077186  0.56561269  1
  O  O158  1  0.12695640  0.10756168  0.12444483  1
  O  O159  1  0.12083294  0.11116584  0.63265824  1
  O  O160  1  0.10415669  0.63534030  0.11188530  1
  O  O161  1  0.12081665  0.62591502  0.61006647  1
  O  O162  1  0.62108840  0.11571242  0.11055127  1
  O  O163  1  0.62126911  0.12100438  0.61134400  1
  O  O164  1  0.61921469  0.63185512  0.11434741  1
  O  O165  1  0.61428707  0.62875263  0.61680558  1
  O  O166  1  0.39666765  0.37793048  0.37096896  1
  O  O167  1  0.37048017  0.39515053  0.87569330  1
  O  O168  1  0.37309131  0.88236092  0.38830219  1
  O  O169  1  0.36678999  0.88203777  0.89060158  1
  O  O170  1  0.87101304  0.38774036  0.37454194  1
  O  O171  1  0.87136154  0.38570242  0.88493129  1
  O  O172  1  0.88607172  0.86691004  0.38572668  1
  O  O173  1  0.88310115  0.88201599  0.86965462  1
  O  O174  1  0.25749415  0.00144389  0.37093595  1
  O  O175  1  0.25230561  -0.00498470  0.88061164  1
  O  O176  1  0.25119312  0.52089417  0.36908041  1
  O  O177  1  0.25331531  0.50735388  0.86503436  1
  O  O178  1  0.77854057  0.02014346  0.43030219  1
  O  O179  1  0.75586039  0.00311558  0.86589780  1
  O  O180  1  0.74632419  0.51006087  0.36619126  1
  O  O181  1  0.74332402  0.51251732  0.87642406  1
  O  O182  1  0.23725806  0.54191908  0.14501355  1
  O  O183  1  0.24940894  0.49954672  0.63629954  1
  O  O184  1  0.24407888  0.98959283  0.13495620  1
  O  O185  1  0.24018803  0.98136366  0.62261610  1
  O  O186  1  0.75181250  0.49411456  0.13344264  1
  O  O187  1  0.74556688  0.48120283  0.62002546  1
  O  O188  1  0.74192303  0.98400722  0.11669149  1
  O  O189  1  0.75403890  0.98933063  0.63217607  1
  O  O190  1  0.00550423  0.35655455  0.20997563  1
  O  O191  1  0.01671933  0.35890102  0.73620395  1
  O  O192  1  -0.00759909  0.86759155  0.26150338  1
  O  O193  1  0.00725790  0.86669817  0.76028046  1
  O  O194  1  0.50660317  0.36548700  0.25588429  1
  O  O195  1  0.49930280  0.35674730  0.74931649  1
  O  O196  1  0.49349297  0.86607049  0.25429175  1
  O  O197  1  0.51415522  0.85974634  0.74480937  1
  O  O198  1  0.49235065  0.13065979  0.24737479  1
  O  O199  1  0.49319594  0.14011893  0.75285180  1
  O  O200  1  0.49946881  0.63884674  0.24373696  1
  O  O201  1  0.50540677  0.63854695  0.73628104  1
  O  O202  1  0.99357436  0.15135901  0.31511609  1
  O  O203  1  1.00135838  0.12989270  0.73478607  1
  O  O204  1  1.00173870  0.64207136  0.23048253  1
  O  O205  1  0.99760308  0.63674734  0.75612748  1
  O  O206  1  0.37398379  0.23276479  0.01819210  1
  O  O207  1  0.35912615  0.26932308  0.48717213  1
  O  O208  1  0.37272614  0.75436407  0.00408177  1
  O  O209  1  0.36708853  0.75882809  0.50938223  1
  O  O210  1  0.85840823  0.26408696  -0.01515343  1
  O  O211  1  0.86106939  0.25216198  0.50312971  1
  O  O212  1  0.86450647  0.74982249  0.00921691  1
  O  O213  1  0.86977408  0.75769461  0.50009102  1
  O  O214  1  0.14989895  0.26428301  0.48805278  1
  O  O215  1  0.12106587  0.22346519  1.01158114  1
  O  O216  1  0.13253807  0.74167930  0.49547950  1
  O  O217  1  0.13019994  0.74458110  0.99182323  1
  O  O218  1  0.62789792  0.24335544  0.49222310  1
  O  O219  1  0.63416983  0.23410885  0.98341579  1
  O  O220  1  0.62748358  0.75232473  0.48431928  1
  O  O221  1  0.63101865  0.74490629  0.99175300  1
  O  O222  1  0.49688874  0.23875080  0.13631608  1
  O  O223  1  0.49616865  0.25173810  0.63264753  1
  O  O224  1  0.49738182  0.74841332  0.13297846  1
  O  O225  1  0.49437847  0.74120150  0.62980496  1
  O  O226  1  1.00674701  0.29266051  0.16590811  1
  O  O227  1  0.98805886  0.23698705  0.60631997  1
  O  O228  1  0.98975823  0.75755151  0.12818224  1
  O  O229  1  0.99992963  0.75465219  0.64245046  1
  O  O230  1  0.02675120  0.28032620  0.40675207  1
  O  O231  1  0.01425700  0.23774398  0.87740479  1
  O  O232  1  0.00388749  0.75300934  0.36380288  1
  O  O233  1  0.00120977  0.75582846  0.86922005  1
  O  O234  1  0.50605325  0.25630112  0.36412614  1
  O  O235  1  0.51538077  0.24810374  0.87975960  1
  O  O236  1  0.51669853  0.75462576  0.36813274  1
  O  O237  1  0.51178502  0.73855333  0.86784370  1
  O  O238  1  0.25815250  0.14120560  0.49315481  1
  O  O239  1  0.23684885  0.11967403  1.00786243  1
  O  O240  1  0.25022887  0.63893804  0.49244315  1
  O  O241  1  0.23944791  0.63149362  0.99008019  1
  O  O242  1  0.73225684  0.14661130  0.50668220  1
  O  O243  1  0.74243716  0.12755052  0.98779705  1
  O  O244  1  0.74648365  0.62503769  0.48578856  1
  O  O245  1  0.74087509  0.63739753  0.99404738  1
  O  O246  1  0.21587244  0.37492531  0.02605460  1
  O  O247  1  0.25151603  0.38464179  0.51720914  1
  O  O248  1  0.25706136  0.86659900  0.01024347  1
  O  O249  1  0.25542742  0.86445470  0.50983328  1
  O  O250  1  0.73772853  0.36564124  0.00590742  1
  O  O251  1  0.74124855  0.35872108  0.50966171  1
  O  O252  1  0.74578476  0.86447092  0.00165004  1
  O  O253  1  0.75824642  0.87158521  0.51061465  1
  O  O254  1  0.11654300  0.49727578  0.23732447  1
  O  O255  1  0.12919336  0.48973788  0.74136361  1
  O  O256  1  0.13515519  1.00109418  0.24573300  1
  O  O257  1  0.11844610  0.98679870  0.74318119  1
  O  O258  1  0.63835976  0.48915017  0.25481550  1
  O  O259  1  0.63444130  0.51871105  0.72379421  1
  O  O260  1  0.61551126  1.00515135  0.23285853  1
  O  O261  1  0.63338342  0.98967941  0.74844173  1
  O  O262  1  0.36588790  0.00572518  0.25607279  1
  O  O263  1  0.37447774  -0.00965793  0.77578634  1
  O  O264  1  0.38654946  0.52586620  0.26456365  1
  O  O265  1  0.35832703  0.50319168  0.75657805  1
  O  O266  1  0.90292478  0.04220469  0.24192706  1
  O  O267  1  0.86482353  -0.00638488  0.75949360  1
  O  O268  1  0.85359928  0.49112572  0.25834381  1
  O  O269  1  0.88546146  0.49197453  0.76810434  1
  O  O270  1  0.15162223  0.37730991  0.36191598  1
  O  O271  1  0.12463296  0.38094741  0.85387077  1
  O  O272  1  0.11498921  0.86164377  0.38401455  1
  O  O273  1  0.11711212  0.86890483  0.86836414  1
  O  O274  1  0.61885569  0.36496615  0.36543497  1
  O  O275  1  0.63973553  0.35520057  0.86330765  1
  O  O276  1  0.63451076  0.86608411  0.37794245  1
  O  O277  1  0.63060099  0.86358930  0.86494874  1
  O  O278  1  0.38010471  0.12567880  0.13693855  1
  O  O279  1  0.35087461  0.14566119  0.62144982  1
  O  O280  1  0.38566620  0.63311223  0.13419065  1
  O  O281  1  0.38092290  0.63791482  0.62352598  1
  O  O282  1  0.86276528  0.13598665  0.11320514  1
  O  O283  1  0.87798395  0.13127982  0.61421036  1
  O  O284  1  0.88484372  0.63735666  0.11513659  1
  O  O285  1  0.85631227  0.62878662  0.63025570  1
  O  O286  1  0.26484158  0.24508830  0.12973989  1
  O  O287  1  0.24966515  0.26590693  0.61083989  1
  O  O288  1  0.25728208  0.75197886  0.12087455  1
  O  O289  1  0.25451328  0.75361914  0.62023070  1
  O  O290  1  0.73733766  0.25857310  0.10946525  1
  O  O291  1  0.75165736  0.25577332  0.61809135  1
  O  O292  1  0.75361576  0.76215474  0.12037863  1
  O  O293  1  0.74431509  0.76155834  0.62805948  1
  O  O294  1  0.24495635  0.24200818  0.38117406  1
  O  O295  1  0.23981049  0.26448274  0.89069349  1
  O  O296  1  0.24311423  0.75069143  0.38476147  1
  O  O297  1  0.24377275  0.74331292  0.87794144  1
  O  O298  1  0.74078899  0.25811191  0.38576170  1
  O  O299  1  0.74224385  0.23791573  0.87519206  1
  O  O300  1  0.74277674  0.73966148  0.37019011  1
  O  O301  1  0.74201266  0.74566294  0.88251145  1
  O  O302  1  0.00842067  0.10559099  0.00006157  1
  O  O303  1  0.00249552  0.10734081  0.51403960  1
  O  O304  1  0.00423369  0.63418890  0.00986055  1
  O  O305  1  0.00866540  0.63369928  0.49333383  1
  O  O306  1  0.50838309  0.11400960  0.00271760  1
  O  O307  1  0.50273813  0.13187954  0.50253229  1
  O  O308  1  0.51394054  0.62843898  0.01072028  1
  O  O309  1  0.49619683  0.63038792  0.51253003  1
  O  O310  1  0.50570077  0.36802232  0.48318863  1
  O  O311  1  0.52922831  0.39172484  0.98625131  1
  O  O312  1  0.48816084  0.86726402  0.49781788  1
  O  O313  1  0.48961300  0.88066374  1.00625449  1
  O  O314  1  1.00104718  0.40219400  0.53453166  1
  O  O315  1  0.98124328  0.36853168  1.00876018  1
  O  O316  1  0.99423713  0.87271406  0.49427011  1
  O  O317  1  1.00846208  0.88348061  0.98444685  1
  O  O318  1  0.51095647  0.48688168  0.36956768  1
  O  O319  1  0.48174096  0.51511719  0.86182987  1
  O  O320  1  0.48506900  0.99842088  0.36705465  1
  O  O321  1  0.50291947  1.00072857  0.88654856  1
  O  O322  1  0.97792182  0.51424280  0.36070669  1
  O  O323  1  0.99306181  0.50398076  0.88262414  1
  O  O324  1  1.01125118  0.98340863  0.38953961  1
  O  O325  1  0.99183614  0.99303091  0.87856140  1
  O  O326  1  0.01123102  -0.01999191  0.11418789  1
  O  O327  1  0.00743131  0.00277247  0.62433319  1
  O  O328  1  -0.00888682  0.51684277  0.12674384  1
  O  O329  1  -0.00344781  0.46444388  0.59566129  1
  O  O330  1  0.50538435  0.00167992  0.11410072  1
  O  O331  1  0.48829099  -0.00185500  0.63025548  1
  O  O332  1  0.49205576  0.51111672  0.13819291  1
  O  O333  1  0.50818615  0.51282117  0.63082731  1
  O  O334  1  0.29787021  0.39016921  0.23929977  1
  O  O335  1  0.24432006  0.38872131  0.74142344  1
  O  O336  1  0.25893819  0.88179319  0.24268199  1
  O  O337  1  0.23614054  0.86310036  0.74279310  1
  O  O338  1  0.74197200  0.37545791  0.23770793  1
  O  O339  1  0.75060500  0.36922254  0.73445281  1
  O  O340  1  0.75005746  0.87551199  0.24138850  1
  O  O341  1  0.74171366  0.88043452  0.74334287  1
  O  O342  1  0.25711115  0.11349929  0.25893498  1
  O  O343  1  0.29685614  0.11708807  0.68100356  1
  O  O344  1  0.26551249  0.64724378  0.26628505  1
  O  O345  1  0.23609929  0.61318831  0.75768774  1
  O  O346  1  0.75055340  0.11278590  0.23444854  1
  O  O347  1  0.74202721  0.11277367  0.75548057  1
  O  O348  1  0.74443644  0.61154550  0.24727392  1
  O  O349  1  0.75579967  0.63335988  0.77163300  1
  O  O350  1  0.36831039  0.11825657  0.36862061  1
  O  O351  1  0.36882516  0.10655765  0.88175541  1
  O  O352  1  0.37001621  0.63678029  0.37178755  1
  O  O353  1  0.35872960  0.62383576  0.87584034  1
  O  O354  1  0.93406262  0.14173970  0.36420027  1
  O  O355  1  0.86274147  0.11496944  0.87852288  1
  O  O356  1  0.85462005  0.61678122  0.36925862  1
  O  O357  1  0.86424308  0.60672876  0.88345331  1
  O  O358  1  0.15374325  0.37848085  0.08791909  1
  O  O359  1  0.14152067  0.37941396  0.63395529  1
  O  O360  1  0.13915848  0.88003911  0.11985558  1
  O  O361  1  0.12937743  0.87721324  0.63452263  1
  O  O362  1  0.62597926  0.37122722  0.13802713  1
  O  O363  1  0.63088798  0.38202759  0.62813261  1
  O  O364  1  0.63749210  0.87970042  0.12295460  1
  O  O365  1  0.63249568  0.87901323  0.63157978  1
  O  O366  1  0.12720076  0.24170451  0.27685124  1
  O  O367  1  0.14127414  0.26144946  0.74751319  1
  O  O368  1  0.11668189  0.74651170  0.25961355  1
  O  O369  1  0.11256536  0.75600723  0.75605666  1
  O  O370  1  0.61773578  0.25331233  0.25554374  1
  O  O371  1  0.61223750  0.23935878  0.75877586  1
  O  O372  1  0.61927363  0.75208377  0.25925844  1
  O  O373  1  0.62085732  0.75448329  0.75799256  1
  O  O374  1  0.38180228  0.23771754  0.24475576  1
  O  O375  1  0.38500581  0.24813847  0.76085163  1
  O  O376  1  0.38862346  0.74603841  0.24693070  1
  O  O377  1  0.38588278  0.75997291  0.74154384  1
  O  O378  1  0.86693792  0.22514926  0.25050788  1
  O  O379  1  0.87365968  0.25630647  0.73406188  1
  O  O380  1  0.88276754  0.75247273  0.23483078  1
  O  O381  1  0.88826965  0.74953689  0.75371633  1
  O  O382  1  0.37591776  0.49568925  0.49473512  1
  O  O383  1  0.37348888  0.51057165  0.98593130  1
  O  O384  1  0.37351994  0.99219357  0.49281709  1
  O  O385  1  0.38086664  0.99203307  0.99294958  1
  O  O386  1  0.86561495  0.49744717  0.47867005  1
  O  O387  1  0.86753051  0.48551120  0.98886773  1
  O  O388  1  0.89573775  0.98073739  0.51472507  1
  O  O389  1  0.88204257  0.99799484  0.98496867  1
  O  O390  1  0.11906535  0.00462492  0.00903932  1
  O  O391  1  0.11605131  -0.01417041  0.51644029  1
  O  O392  1  0.12555844  0.51663612  -0.00017659  1
  O  O393  1  0.12764595  0.52200713  0.49911626  1
  O  O394  1  0.61973959  0.00418981  0.00432658  1
  O  O395  1  0.62033264  0.01816830  0.49537101  1
  O  O396  1  0.63588323  0.52101638  0.00123496  1
  O  O397  1  0.62943805  0.50030749  0.52106536  1
  O  O398  1  0.40011621  0.35100426  0.11778127  1
  O  O399  1  0.36178321  0.38468689  0.63152229  1
  O  O400  1  0.36509687  0.87087154  0.11591542  1
  O  O401  1  0.36604693  0.86521187  0.62077365  1
  O  O402  1  0.85541470  0.37866199  0.10636910  1
  O  O403  1  0.85918494  0.36337447  0.61627882  1
  O  O404  1  0.85931814  0.87157444  0.12807347  1
  O  O405  1  0.86731660  0.86466616  0.61984983  1
  O  O406  1  0.13973556  0.11347647  0.38179034  1
  O  O407  1  0.12911213  0.11475611  0.88972955  1
  O  O408  1  0.13238076  0.63628366  0.38266797  1
  O  O409  1  0.13002195  0.62994189  0.88042721  1
  O  O410  1  0.61745851  0.13771065  0.38527322  1
  O  O411  1  0.63534138  0.12107407  0.88002316  1
  O  O412  1  0.63792273  0.63822239  0.36807051  1
  O  O413  1  0.63317494  0.63178647  0.88444971  1
