# generated using pymatgen
data_V79Zn79O256
_symmetry_space_group_name_H-M   'P 1'
_cell_length_a   16.89412399
_cell_length_b   16.91473856
_cell_length_c   16.89563942
_cell_angle_alpha   89.86533196
_cell_angle_beta   89.95594400
_cell_angle_gamma   89.93404082
_symmetry_Int_Tables_number   1
_chemical_formula_structural   V79Zn79O256
_chemical_formula_sum   'V79 Zn79 O256'
_cell_volume   4828.07473751
_cell_formula_units_Z   1
loop_
 _symmetry_equiv_pos_site_id
 _symmetry_equiv_pos_as_xyz
  1  'x, y, z'
loop_
 _atom_site_type_symbol
 _atom_site_label
 _atom_site_symmetry_multiplicity
 _atom_site_fract_x
 _atom_site_fract_y
 _atom_site_fract_z
 _atom_site_occupancy
  V  V0  1  0.37382854  0.62737711  0.75140946  1
  V  V1  1  0.49687861  0.87530107  0.38176806  1
  V  V2  1  0.76048944  0.25834152  0.01149443  1
  V  V3  1  0.61052367  0.11784731  0.00230873  1
  V  V4  1  0.75355283  0.12092067  0.87795497  1
  V  V5  1  0.63099466  0.87452279  0.24705269  1
  V  V6  1  0.23887808  0.49946011  0.74571656  1
  V  V7  1  0.76406044  0.24966155  0.50111695  1
  V  V8  1  0.50170555  0.26777691  0.25360639  1
  V  V9  1  0.75475025  0.74916518  0.00857174  1
  V  V10  1  0.27156110  0.86235107  0.13135541  1
  V  V11  1  0.73718955  0.13031986  0.37968562  1
  V  V12  1  0.87781755  0.62434906  0.73746634  1
  V  V13  1  0.12499899  0.87112298  0.24333425  1
  V  V14  1  0.00472536  0.73869204  0.25127000  1
  V  V15  1  0.62520552  0.24985083  0.87294093  1
  V  V16  1  0.49610780  -0.00010335  0.50130706  1
  V  V17  1  0.12388681  0.09264044  -0.00492479  1
  V  V18  1  0.50171650  0.75182673  0.75733925  1
  V  V19  1  0.22511968  0.25073761  -0.00769863  1
  V  V20  1  0.61051090  0.00295236  0.12211415  1
  V  V21  1  0.12145524  0.87297623  0.75995669  1
  V  V22  1  0.75296673  -0.00508479  0.75094402  1
  V  V23  1  0.37152793  0.37283449  0.00030717  1
  V  V24  1  0.49965555  0.75126204  0.24759724  1
  V  V25  1  0.12315921  0.62064240  0.51795522  1
  V  V26  1  0.01916231  0.25012032  0.25760524  1
  V  V27  1  0.00093684  0.49742656  0.51558818  1
  V  V28  1  0.62461671  0.87156373  0.75243190  1
  V  V29  1  0.74970773  0.49213443  0.74692048  1
  V  V30  1  0.00349463  -0.00134851  0.50749269  1
  V  V31  1  0.37107290  0.11722721  0.75822107  1
  V  V32  1  0.25173317  0.62941560  0.38394576  1
  V  V33  1  0.63803324  0.74813968  0.37825951  1
  V  V34  1  0.88411027  -0.01258209  0.89073716  1
  V  V35  1  0.24221865  -0.00015927  0.24937721  1
  V  V36  1  0.49967452  0.63033918  0.12048174  1
  V  V37  1  -0.00347542  0.87076246  0.37842841  1
  V  V38  1  0.51074277  0.12538609  0.61931514  1
  V  V39  1  -0.00000640  0.36073169  0.88096376  1
  V  V40  1  0.37181258  0.75817819  0.61158417  1
  V  V41  1  0.38133094  0.37710101  0.49693136  1
  V  V42  1  0.87816222  0.49016537  0.37849179  1
  V  V43  1  0.86378893  0.76809278  0.61992227  1
  V  V44  1  0.74416124  0.48733093  0.24085742  1
  V  V45  1  0.50509909  0.37617693  0.86855180  1
  V  V46  1  0.12789064  0.74583451  0.38511460  1
  V  V47  1  0.61902834  0.63092119  -0.00308226  1
  V  V48  1  0.55582003  0.44999378  0.05555413  1
  V  V49  1  0.25944398  0.74682677  -0.00674842  1
  V  V50  1  0.24381561  0.87786840  0.60886073  1
  V  V51  1  0.38087887  0.49994023  0.37743744  1
  V  V52  1  0.24203085  0.37827855  0.12810011  1
  V  V53  1  0.12238041  0.50827079  0.11339899  1
  V  V54  1  0.37399584  0.63009346  0.24805836  1
  V  V55  1  0.24305461  0.25138495  0.49514994  1
  V  V56  1  0.63063118  -0.00179614  0.62296334  1
  V  V57  1  0.61450487  0.26789238  0.38579309  1
  V  V58  1  -0.00185579  0.14434123  0.63124370  1
  V  V59  1  0.88192665  0.49653703  0.88388104  1
  V  V60  1  0.63698825  0.63159230  0.49824020  1
  V  V61  1  0.37301182  0.24796325  0.12669528  1
  V  V62  1  0.38094111  0.12491777  0.25480904  1
  V  V63  1  0.76354169  0.37446880  0.61573077  1
  V  V64  1  0.86943310  0.62849550  0.25764928  1
  V  V65  1  -0.00081312  0.75133830  0.74721215  1
  V  V66  1  0.48842872  0.88861117  0.88220133  1
  V  V67  1  0.24426533  -0.00104927  0.75140205  1
  V  V68  1  -0.00110757  0.62378322  0.11144423  1
  V  V69  1  0.61991756  0.49431656  0.62597238  1
  V  V70  1  0.86974210  0.14199050  0.24883467  1
  V  V71  1  0.74646111  0.00755060  0.24735127  1
  V  V72  1  0.37194796  0.24925241  0.62379376  1
  V  V73  1  0.37798702  0.50086977  0.87664290  1
  V  V74  1  0.85211003  -0.01974110  0.39067829  1
  V  V75  1  0.74450457  0.62886218  0.87223831  1
  V  V76  1  0.50412114  0.24986108  0.75165933  1
  V  V77  1  0.23708611  0.12801992  0.37521756  1
  V  V78  1  0.11926799  0.35341318  0.75100529  1
  Zn  Zn79  1  0.24304959  0.38014922  0.62155611  1
  Zn  Zn80  1  0.75688246  0.88678994  0.10561032  1
  Zn  Zn81  1  0.24647884  0.50441885  0.25255690  1
  Zn  Zn82  1  0.88754903  0.13482898  0.75353313  1
  Zn  Zn83  1  0.93514495  0.79855563  0.06977700  1
  Zn  Zn84  1  0.12511207  0.12425278  0.50411245  1
  Zn  Zn85  1  0.50663645  0.49920928  0.49271401  1
  Zn  Zn86  1  0.23391646  0.61997426  0.88455605  1
  Zn  Zn87  1  0.12695190  0.38241863  0.25931655  1
  Zn  Zn88  1  0.01107404  0.36433024  0.38774460  1
  Zn  Zn89  1  0.37060817  -0.00241931  0.38279587  1
  Zn  Zn90  1  0.00966344  0.12077998  0.12148298  1
  Zn  Zn91  1  0.81673641  0.80891385  0.44417660  1
  Zn  Zn92  1  0.10425212  0.74437368  0.89817511  1
  Zn  Zn93  1  0.50002262  0.63043321  0.62168653  1
  Zn  Zn94  1  0.18488822  0.18247619  0.17952599  1
  Zn  Zn95  1  0.18420280  0.18134607  0.68289963  1
  Zn  Zn96  1  0.18583234  0.68723944  0.18490072  1
  Zn  Zn97  1  0.19307141  0.69381759  0.69246111  1
  Zn  Zn98  1  0.67914142  0.19255071  0.18764799  1
  Zn  Zn99  1  0.71804172  0.20190359  0.70379160  1
  Zn  Zn100  1  0.68377959  0.67936995  0.18635885  1
  Zn  Zn101  1  0.68934096  0.68701016  0.68396134  1
  Zn  Zn102  1  0.31079530  0.31391511  0.31503249  1
  Zn  Zn103  1  0.31185016  0.30982512  0.81357855  1
  Zn  Zn104  1  0.31269732  0.81105695  0.31954685  1
  Zn  Zn105  1  0.31222900  0.81604920  0.81074011  1
  Zn  Zn106  1  0.80887832  0.31966608  0.31919311  1
  Zn  Zn107  1  0.81889672  0.31012576  0.81564559  1
  Zn  Zn108  1  0.85950260  0.85195123  0.24509257  1
  Zn  Zn109  1  0.81473450  0.81175381  0.81439341  1
  Zn  Zn110  1  0.18937841  0.44100727  0.43998624  1
  Zn  Zn111  1  0.18402174  0.43446079  0.93188586  1
  Zn  Zn112  1  0.18257079  0.93998181  0.42970342  1
  Zn  Zn113  1  0.27131344  0.95725243  0.95442975  1
  Zn  Zn114  1  0.69392122  0.44371057  0.43450669  1
  Zn  Zn115  1  0.69537413  0.43665924  0.93463572  1
  Zn  Zn116  1  0.67597088  0.94024307  0.43768753  1
  Zn  Zn117  1  0.68161099  0.93393157  0.93235937  1
  Zn  Zn118  1  0.29473229  0.07304142  0.07472700  1
  Zn  Zn119  1  0.31273793  0.06315480  0.56599631  1
  Zn  Zn120  1  0.31322396  0.56334740  0.06295560  1
  Zn  Zn121  1  0.31338963  0.56586368  0.56427602  1
  Zn  Zn122  1  0.80555495  0.07238358  0.06351014  1
  Zn  Zn123  1  0.81541746  0.06440756  0.56393921  1
  Zn  Zn124  1  0.81434454  0.56442808  0.06633511  1
  Zn  Zn125  1  0.81403036  0.56268968  0.55885233  1
  Zn  Zn126  1  0.42844781  0.44106017  0.19175729  1
  Zn  Zn127  1  0.43308054  0.43618610  0.68791379  1
  Zn  Zn128  1  0.43693080  0.94260734  0.19573701  1
  Zn  Zn129  1  0.43779898  0.93499911  0.68520620  1
  Zn  Zn130  1  0.93525165  0.43773382  0.18859726  1
  Zn  Zn131  1  0.93956037  0.43237225  0.69450544  1
  Zn  Zn132  1  0.94624058  0.95516118  0.08038861  1
  Zn  Zn133  1  0.93512578  0.94108913  0.69305115  1
  Zn  Zn134  1  0.02041841  0.02360054  0.26851928  1
  Zn  Zn135  1  0.06498355  0.06469506  0.81460717  1
  Zn  Zn136  1  0.06568459  0.55424071  0.31564236  1
  Zn  Zn137  1  0.05874191  0.56857562  0.81378169  1
  Zn  Zn138  1  0.56162788  0.06663647  0.31483120  1
  Zn  Zn139  1  0.56597081  0.06305687  0.80759432  1
  Zn  Zn140  1  0.56612553  0.56428151  0.31254143  1
  Zn  Zn141  1  0.56171781  0.56391754  0.80877151  1
  Zn  Zn142  1  0.43515641  0.18570695  0.43720446  1
  Zn  Zn143  1  0.42891135  0.06085730  0.94202114  1
  Zn  Zn144  1  0.44889968  0.68395043  0.43717948  1
  Zn  Zn145  1  0.43132345  0.69636837  0.93888118  1
  Zn  Zn146  1  0.93792373  0.17444612  0.43053012  1
  Zn  Zn147  1  0.94219394  0.17826630  0.94490505  1
  Zn  Zn148  1  0.94073524  0.67794077  0.44230556  1
  Zn  Zn149  1  0.93111947  0.68515010  0.92563304  1
  Zn  Zn150  1  0.03191165  0.32241185  0.07805598  1
  Zn  Zn151  1  0.06179812  0.31714577  0.56873067  1
  Zn  Zn152  1  0.11007145  0.87978985  0.02109980  1
  Zn  Zn153  1  0.05759186  0.81103529  0.56788940  1
  Zn  Zn154  1  0.55902039  0.28616878  0.06260679  1
  Zn  Zn155  1  0.56393407  0.31429393  0.56616454  1
  Zn  Zn156  1  0.56430129  0.81438962  0.05989917  1
  Zn  Zn157  1  0.56270312  0.81316536  0.56736953  1
  O  O158  1  0.13100920  0.11647182  0.10608399  1
  O  O159  1  0.10672620  0.12720869  0.62040539  1
  O  O160  1  0.11645307  0.61731418  0.12504052  1
  O  O161  1  0.13202968  0.63153178  0.61580669  1
  O  O162  1  0.62374791  0.11961929  0.11078929  1
  O  O163  1  0.61344301  0.11568027  0.63620639  1
  O  O164  1  0.60977891  0.62199520  0.11511889  1
  O  O165  1  0.62616477  0.61603792  0.61439095  1
  O  O166  1  0.36666672  0.38817753  0.38468199  1
  O  O167  1  0.38539841  0.37850411  0.88128930  1
  O  O168  1  0.39257871  0.87774949  0.36747387  1
  O  O169  1  0.38732315  0.88046527  0.86917018  1
  O  O170  1  0.88384448  0.38696434  0.37635155  1
  O  O171  1  0.88503563  0.38733691  0.86588679  1
  O  O172  1  0.88406779  0.86761819  0.35938244  1
  O  O173  1  0.87141676  0.88841374  0.87639801  1
  O  O174  1  0.25310669  0.00773016  0.36830938  1
  O  O175  1  0.25850509  -0.00658137  0.84922061  1
  O  O176  1  0.26066246  0.51443650  0.37474603  1
  O  O177  1  0.26052129  0.50024424  0.86495180  1
  O  O178  1  0.73579789  0.01630126  0.36511225  1
  O  O179  1  0.75627887  0.00391144  0.87378112  1
  O  O180  1  0.77037472  0.49795960  0.36769457  1
  O  O181  1  0.75751357  0.50374204  0.86406988  1
  O  O182  1  0.24288063  0.49524350  0.12685910  1
  O  O183  1  0.25971606  0.49812719  0.64255375  1
  O  O184  1  0.25386998  0.98468087  0.14518860  1
  O  O185  1  0.25742334  0.98472848  0.63214095  1
  O  O186  1  0.75737382  0.50217372  0.14072395  1
  O  O187  1  0.74490375  0.49021652  0.62507304  1
  O  O188  1  0.73704303  1.00301201  0.13419976  1
  O  O189  1  0.74081311  1.00988106  0.63547766  1
  O  O190  1  0.00432925  0.35658180  0.25226458  1
  O  O191  1  0.01262477  0.37047784  0.75499082  1
  O  O192  1  0.00957601  0.85662924  0.26122276  1
  O  O193  1  0.01581247  0.87304088  0.74326549  1
  O  O194  1  0.49086092  0.36668450  0.25377889  1
  O  O195  1  0.49306446  0.36145648  0.75649020  1
  O  O196  1  0.51286407  0.86902137  0.25631931  1
  O  O197  1  0.50399682  0.87077014  0.75671796  1
  O  O198  1  0.48546470  0.13301107  0.25636318  1
  O  O199  1  0.48965452  0.13200859  0.74264533  1
  O  O200  1  0.49657131  0.63308017  0.24330062  1
  O  O201  1  0.49243697  0.63333929  0.74621424  1
  O  O202  1  0.97667864  0.13574957  0.26818641  1
  O  O203  1  1.00370671  0.12490649  0.73722870  1
  O  O204  1  0.99788012  0.62927858  0.25134013  1
  O  O205  1  0.98516731  0.63349821  0.74936276  1
  O  O206  1  0.37179358  0.26606006  0.01348893  1
  O  O207  1  0.37088816  0.25776739  0.50619375  1
  O  O208  1  0.36161005  0.75915798  0.00219894  1
  O  O209  1  0.38206849  0.74441314  0.51330889  1
  O  O210  1  0.85869872  0.23616292  0.00041237  1
  O  O211  1  0.86187067  0.24863953  0.49355779  1
  O  O212  1  0.86004791  0.74022034  0.00109337  1
  O  O213  1  0.88035552  0.74652432  0.51314112  1
  O  O214  1  0.14146347  0.25457116  0.50782906  1
  O  O215  1  0.12787487  0.26524946  1.00766441  1
  O  O216  1  0.11428191  0.73542192  0.49268694  1
  O  O217  1  0.14967864  0.77094868  0.99928085  1
  O  O218  1  0.62147297  0.25261098  0.48785069  1
  O  O219  1  0.62746113  0.23543423  0.99059004  1
  O  O220  1  0.62149457  0.74010572  0.49672294  1
  O  O221  1  0.63304557  0.73573532  0.99896499  1
  O  O222  1  0.48584511  0.25357091  0.14153395  1
  O  O223  1  0.49637924  0.24510330  0.63274844  1
  O  O224  1  0.50673029  0.74475910  0.13784104  1
  O  O225  1  0.48608609  0.75441093  0.63622744  1
  O  O226  1  1.00450260  0.23320594  0.15129988  1
  O  O227  1  0.99163640  0.24336615  0.62013820  1
  O  O228  1  1.00492213  0.73196580  0.13890535  1
  O  O229  1  0.98433141  0.75494258  0.63760593  1
  O  O230  1  -0.00758145  0.24957841  0.36408387  1
  O  O231  1  -0.01363862  0.26133396  0.87591837  1
  O  O232  1  0.00824398  0.75003840  0.37204462  1
  O  O233  1  -0.00737965  0.75140096  0.85587922  1
  O  O234  1  0.50557405  0.25141297  0.36792473  1
  O  O235  1  0.50842373  0.25835283  0.86591759  1
  O  O236  1  0.51072069  0.75692393  0.36709424  1
  O  O237  1  0.49397608  0.75870163  0.86147572  1
  O  O238  1  0.25061922  0.13255680  0.49440805  1
  O  O239  1  0.23321010  0.14395303  1.00256091  1
  O  O240  1  0.23715534  0.61977975  0.49394119  1
  O  O241  1  0.25550810  0.64052971  1.00235100  1
  O  O242  1  0.75043178  0.13994109  0.49485771  1
  O  O243  1  0.73795840  0.13225390  0.99005854  1
  O  O244  1  0.73660284  0.62407655  0.50058397  1
  O  O245  1  0.74095967  0.62951615  0.99423771  1
  O  O246  1  0.25366066  0.37017533  0.00899275  1
  O  O247  1  0.26081621  0.36926389  0.50419515  1
  O  O248  1  0.25521430  0.87045818  0.02624279  1
  O  O249  1  0.24538387  0.88180415  0.50889128  1
  O  O250  1  0.74972931  0.35760266  -0.00787954  1
  O  O251  1  0.75190783  0.36807469  0.50721789  1
  O  O252  1  0.73786592  0.85294357  -0.00635435  1
  O  O253  1  0.78460350  0.91662771  0.45905551  1
  O  O254  1  0.13061274  0.50163332  0.23679920  1
  O  O255  1  0.13885335  0.50637859  0.75102133  1
  O  O256  1  0.13330736  0.98321318  0.26513255  1
  O  O257  1  0.13587684  0.98976839  0.75007645  1
  O  O258  1  0.64623019  0.51119707  0.25738338  1
  O  O259  1  0.63573675  0.50890153  0.73397608  1
  O  O260  1  0.62740158  0.99638245  0.24375479  1
  O  O261  1  0.62964707  0.99091517  0.74223243  1
  O  O262  1  0.36641188  0.01108875  0.25594780  1
  O  O263  1  0.37133467  0.01335248  0.74020077  1
  O  O264  1  0.37150677  0.51372867  0.25975298  1
  O  O265  1  0.37009055  0.50686616  0.75753479  1
  O  O266  1  0.85063492  -0.00254224  0.27152534  1
  O  O267  1  0.86338724  0.00351288  0.75990337  1
  O  O268  1  0.87448553  0.50700008  0.25989260  1
  O  O269  1  0.86575900  0.50730214  0.75047124  1
  O  O270  1  0.12491535  0.38220580  0.37221288  1
  O  O271  1  0.11196559  0.38163628  0.86010636  1
  O  O272  1  0.11874219  0.86106894  0.37062553  1
  O  O273  1  0.12895104  0.86592329  0.85806843  1
  O  O274  1  0.62491365  0.36687331  0.37891161  1
  O  O275  1  0.61389870  0.36627801  0.88135653  1
  O  O276  1  0.61674002  0.86782690  0.36741997  1
  O  O277  1  0.60951295  0.88129635  0.85887648  1
  O  O278  1  0.36187882  0.14127738  0.14053236  1
  O  O279  1  0.38595585  0.13598915  0.62876347  1
  O  O280  1  0.38686202  0.61969055  0.13688558  1
  O  O281  1  0.37452071  0.63664774  0.63497346  1
  O  O282  1  0.86650125  0.11977590  0.14913623  1
  O  O283  1  0.89484161  0.11401974  0.62851446  1
  O  O284  1  0.89371541  0.61359071  0.14042461  1
  O  O285  1  0.86621378  0.63101895  0.63509084  1
  O  O286  1  0.25406962  0.26112434  0.11740546  1
  O  O287  1  0.26144301  0.24689915  0.61681399  1
  O  O288  1  0.25435746  0.75868690  0.12709738  1
  O  O289  1  0.26351088  0.76176026  0.62731734  1
  O  O290  1  0.73859309  0.24869168  0.11018099  1
  O  O291  1  0.73700895  0.26425605  0.60787260  1
  O  O292  1  0.74477278  0.74485760  0.11045052  1
  O  O293  1  0.76351281  0.75362386  0.62787591  1
  O  O294  1  0.25812956  0.24150590  0.38627300  1
  O  O295  1  0.24621339  0.26381732  0.89417705  1
  O  O296  1  0.24132332  0.74135748  0.37726687  1
  O  O297  1  0.25649587  0.74813375  0.88575181  1
  O  O298  1  0.73745578  0.25235429  0.38755159  1
  O  O299  1  0.73812388  0.24223809  0.88158525  1
  O  O300  1  0.73726927  0.75720405  0.37833576  1
  O  O301  1  0.75575028  0.73322947  0.88108516  1
  O  O302  1  0.01638626  0.11360145  0.00298893  1
  O  O303  1  0.00146230  0.11549592  0.50789728  1
  O  O304  1  -0.00887193  0.63318870  0.01304345  1
  O  O305  1  0.01554499  0.61326856  0.50050056  1
  O  O306  1  0.51188020  0.12503303  -0.00627793  1
  O  O307  1  0.49797456  0.11832510  0.51013317  1
  O  O308  1  0.50403498  0.63446941  0.00745096  1
  O  O309  1  0.51293553  0.61810852  0.50594702  1
  O  O310  1  0.48598622  0.37906015  0.50602879  1
  O  O311  1  0.49504426  0.38122784  0.99577939  1
  O  O312  1  0.50775128  0.88280536  0.49085279  1
  O  O313  1  0.50665969  0.86950032  0.97991684  1
  O  O314  1  1.00796933  0.39295019  0.50273086  1
  O  O315  1  1.01144679  0.37981535  0.97756647  1
  O  O316  1  1.00308572  0.88219018  0.48750876  1
  O  O317  1  0.99802690  0.87611110  1.01666105  1
  O  O318  1  0.48556369  0.50754071  0.37342797  1
  O  O319  1  0.49123277  0.48824963  0.86433008  1
  O  O320  1  0.50480217  0.99354556  0.38470502  1
  O  O321  1  0.49842388  0.99479085  0.87397433  1
  O  O322  1  0.99068370  0.49770173  0.38202946  1
  O  O323  1  0.98378746  0.49849794  0.86691156  1
  O  O324  1  0.97979142  0.98290315  0.37292988  1
  O  O325  1  0.98066800  1.00476925  0.86997947  1
  O  O326  1  -0.00329452  0.01434106  0.15858714  1
  O  O327  1  -0.00066155  -0.01037435  0.60726836  1
  O  O328  1  0.01424633  0.51170300  0.12740592  1
  O  O329  1  -0.01045147  0.50012070  0.61439159  1
  O  O330  1  0.51092005  -0.00394480  0.12790316  1
  O  O331  1  0.50663222  0.00645056  0.62007235  1
  O  O332  1  0.49563825  0.50639501  0.11927041  1
  O  O333  1  0.51398810  0.49863873  0.62891246  1
  O  O334  1  0.25233562  0.37700392  0.23734307  1
  O  O335  1  0.24043640  0.38613296  0.75455021  1
  O  O336  1  0.24563892  0.87699131  0.25031980  1
  O  O337  1  0.24174505  0.88196369  0.74052777  1
  O  O338  1  0.75091626  0.38700747  0.25004617  1
  O  O339  1  0.75112845  0.38598372  0.73689089  1
  O  O340  1  0.73657970  0.88600138  0.25298837  1
  O  O341  1  0.73868899  0.88494861  0.76083955  1
  O  O342  1  0.25293659  0.11825007  0.25665004  1
  O  O343  1  0.25997147  0.11100940  0.73763278  1
  O  O344  1  0.26182683  0.63096592  0.25935638  1
  O  O345  1  0.25963170  0.61639710  0.75310374  1
  O  O346  1  0.74940319  0.12468771  0.25661746  1
  O  O347  1  0.73345677  0.10470229  0.76795771  1
  O  O348  1  0.76767770  0.62367507  0.24498826  1
  O  O349  1  0.75437962  0.61698963  0.75538570  1
  O  O350  1  0.36571871  0.12352807  0.36758685  1
  O  O351  1  0.37667971  0.12597070  0.85620477  1
  O  O352  1  0.36988102  0.62229551  0.37189876  1
  O  O353  1  0.37907615  0.61523736  0.86689880  1
  O  O354  1  0.85283565  0.11701203  0.36744207  1
  O  O355  1  0.86387301  0.11450560  0.87586769  1
  O  O356  1  0.88113751  0.61690390  0.36226791  1
  O  O357  1  0.86438121  0.61220883  0.86248676  1
  O  O358  1  0.13027339  0.38716820  0.12878140  1
  O  O359  1  0.12833379  0.37205246  0.64573366  1
  O  O360  1  0.13553249  0.86973396  0.14340975  1
  O  O361  1  0.14039324  0.86733640  0.62872382  1
  O  O362  1  0.60722578  0.38559848  0.10981145  1
  O  O363  1  0.63340516  0.39078845  0.61893954  1
  O  O364  1  0.62965618  0.88293949  0.13166637  1
  O  O365  1  0.61998647  0.88768598  0.63614563  1
  O  O366  1  0.12141479  0.24497135  0.25599214  1
  O  O367  1  0.13567502  0.25564267  0.75717378  1
  O  O368  1  0.12111601  0.75017091  0.26277232  1
  O  O369  1  0.11618417  0.76095802  0.74454709  1
  O  O370  1  0.60661163  0.25226346  0.25656145  1
  O  O371  1  0.61678057  0.24041215  0.76056057  1
  O  O372  1  0.62073381  0.75444542  0.25622583  1
  O  O373  1  0.61383590  0.75897424  0.73865199  1
  O  O374  1  0.38116285  0.24668378  0.24777239  1
  O  O375  1  0.37911829  0.24107720  0.74277169  1
  O  O376  1  0.38908114  0.74018561  0.26183508  1
  O  O377  1  0.38005415  0.74169435  0.74528651  1
  O  O378  1  0.86345839  0.24183568  0.25407857  1
  O  O379  1  0.82615827  0.22914391  0.74174506  1
  O  O380  1  0.88850351  0.73485526  0.25401016  1
  O  O381  1  0.87685385  0.74475631  0.74055315  1
  O  O382  1  0.37577859  0.49475873  0.49518000  1
  O  O383  1  0.36633084  0.48772799  0.98825637  1
  O  O384  1  0.39082496  1.00193650  0.50197257  1
  O  O385  1  0.35586983  1.01039887  1.00583772  1
  O  O386  1  0.88868758  0.51150356  0.48834264  1
  O  O387  1  0.86868855  0.50599013  0.98206095  1
  O  O388  1  0.89085520  1.01351504  0.48745010  1
  O  O389  1  0.87098624  1.00221182  0.99676613  1
  O  O390  1  0.14795732  -0.00769195  -0.00513557  1
  O  O391  1  0.10550335  0.00344574  0.48621426  1
  O  O392  1  0.13359503  0.49901441  0.01405279  1
  O  O393  1  0.11738233  0.51141488  0.50523661  1
  O  O394  1  0.62949977  0.01068907  0.00613126  1
  O  O395  1  0.61478696  -0.00116803  0.51371194  1
  O  O396  1  0.62160255  0.50679316  -0.00207264  1
  O  O397  1  0.62761700  0.50904186  0.50791463  1
  O  O398  1  0.36485183  0.37290199  0.11945340  1
  O  O399  1  0.37229056  0.36356188  0.61983621  1
  O  O400  1  0.37014435  0.86717306  0.14373767  1
  O  O401  1  0.36673402  0.86436726  0.62587662  1
  O  O402  1  0.92729009  0.36680722  0.10480665  1
  O  O403  1  0.86186014  0.37728729  0.62465317  1
  O  O404  1  0.86713569  0.87288530  0.13394733  1
  O  O405  1  0.87138625  0.86764004  0.62797037  1
  O  O406  1  0.13822802  0.12577468  0.37920590  1
  O  O407  1  0.12636797  0.11626004  0.89502180  1
  O  O408  1  0.13507034  0.62976360  0.38007015  1
  O  O409  1  0.12353931  0.63559770  0.87256232  1
  O  O410  1  0.63234487  0.14182319  0.36867631  1
  O  O411  1  0.62893643  0.12864211  0.88422041  1
  O  O412  1  0.62037276  0.63441947  0.38909050  1
  O  O413  1  0.63332991  0.61487232  0.88289216  1
