# generated using pymatgen
data_V79Zn79O256
_symmetry_space_group_name_H-M   'P 1'
_cell_length_a   16.90771973
_cell_length_b   16.92274111
_cell_length_c   16.90609538
_cell_angle_alpha   89.98878033
_cell_angle_beta   89.78920500
_cell_angle_gamma   90.03427578
_symmetry_Int_Tables_number   1
_chemical_formula_structural   V79Zn79O256
_chemical_formula_sum   'V79 Zn79 O256'
_cell_volume   4837.22223209
_cell_formula_units_Z   1
loop_
 _symmetry_equiv_pos_site_id
 _symmetry_equiv_pos_as_xyz
  1  'x, y, z'
loop_
 _atom_site_type_symbol
 _atom_site_label
 _atom_site_symmetry_multiplicity
 _atom_site_fract_x
 _atom_site_fract_y
 _atom_site_fract_z
 _atom_site_occupancy
  V  V0  1  0.12766968  0.00049572  0.63732929  1
  V  V1  1  0.50431211  0.49837095  0.50565031  1
  V  V2  1  0.25354752  0.74972297  0.49772656  1
  V  V3  1  0.75513559  0.00014654  0.75844263  1
  V  V4  1  0.49874318  0.74661794  0.74953254  1
  V  V5  1  0.50781511  0.24581601  0.24352072  1
  V  V6  1  0.25498549  0.24327570  -0.00150654  1
  V  V7  1  0.12494899  0.12012071  0.48688642  1
  V  V8  1  0.25185646  0.49032750  0.74675112  1
  V  V9  1  0.60114384  0.62142929  0.00127752  1
  V  V10  1  0.25184511  0.62742205  0.86369446  1
  V  V11  1  0.44056717  0.07420937  0.68522365  1
  V  V12  1  0.88982322  0.89031124  0.49948055  1
  V  V13  1  0.62618982  -0.00373850  0.63557942  1
  V  V14  1  0.25958614  0.62368395  0.36570517  1
  V  V15  1  0.61597446  0.25106984  0.38427507  1
  V  V16  1  0.75083956  0.62344001  0.87524994  1
  V  V17  1  -0.00489187  0.25849595  0.75286627  1
  V  V18  1  0.12622641  0.25618684  0.36014452  1
  V  V19  1  0.49766809  0.00281557  0.50102950  1
  V  V20  1  0.60396495  0.49341188  0.11822494  1
  V  V21  1  0.24547402  0.87838981  0.63383521  1
  V  V22  1  -0.00187605  0.37302330  0.35911547  1
  V  V23  1  0.50695255  0.87714745  0.37025273  1
  V  V24  1  0.88403718  0.49076135  0.87068077  1
  V  V25  1  0.37614800  0.74357149  0.62693911  1
  V  V26  1  0.62855256  0.62544991  0.51005791  1
  V  V27  1  0.11322215  0.87011262  0.25282472  1
  V  V28  1  0.75362855  0.87593578  0.63244123  1
  V  V29  1  0.63136293  0.75537414  0.36819546  1
  V  V30  1  0.37430347  0.87707531  0.00000603  1
  V  V31  1  0.11652119  0.62148077  0.00077345  1
  V  V32  1  0.90408352  0.91220484  -0.00546318  1
  V  V33  1  0.13084395  0.62135663  0.50236456  1
  V  V34  1  0.38031583  0.49567306  0.37359246  1
  V  V35  1  0.75720876  0.75821095  0.50457818  1
  V  V36  1  0.24934243  0.49575704  0.24599710  1
  V  V37  1  0.87259652  0.37163324  0.51701551  1
  V  V38  1  0.62747203  0.25163854  0.87593855  1
  V  V39  1  0.61845544  0.12582532  0.51326388  1
  V  V40  1  0.37851460  0.12279014  0.24148111  1
  V  V41  1  -0.00571983  0.49281910  -0.00062702  1
  V  V42  1  0.87347027  0.51055973  0.37909300  1
  V  V43  1  0.74632296  0.49489006  0.73894633  1
  V  V44  1  0.49438151  0.25092142  0.74642504  1
  V  V45  1  0.75390979  0.74525931  0.00953990  1
  V  V46  1  0.37813054  0.50523482  0.86941149  1
  V  V47  1  -0.00454797  0.12783524  0.62072438  1
  V  V48  1  0.37382342  0.87565973  0.49722488  1
  V  V49  1  0.24175469  0.87729496  0.12457207  1
  V  V50  1  0.88018372  0.64149536  0.74519946  1
  V  V51  1  0.25617115  0.11674913  0.85938208  1
  V  V52  1  0.11087131  0.75952310  0.85746886  1
  V  V53  1  0.74997965  0.25479010  0.51817866  1
  V  V54  1  0.62195071  0.38312664  0.27568014  1
  V  V55  1  0.50344198  0.87650869  0.87645423  1
  V  V56  1  0.76162502  0.62879666  0.37317432  1
  V  V57  1  0.62473501  0.75347690  0.87109594  1
  V  V58  1  0.61633445  0.12741067  0.00834293  1
  V  V59  1  0.11925455  0.11776978  0.01319995  1
  V  V60  1  0.62610301  -0.01986764  0.14146685  1
  V  V61  1  0.12092687  0.74849569  0.37419128  1
  V  V62  1  0.24356670  0.00208522  0.25009171  1
  V  V63  1  0.50110537  0.37940891  0.87612240  1
  V  V64  1  0.49313252  0.74657698  0.24886718  1
  V  V65  1  0.74788247  0.11962884  0.38113390  1
  V  V66  1  0.36968821  0.25417326  0.62745819  1
  V  V67  1  0.89254994  0.00720616  0.37215385  1
  V  V68  1  0.37106608  0.00412626  0.37154965  1
  V  V69  1  0.24449516  0.37429403  0.12483785  1
  V  V70  1  0.00723803  0.49452131  0.50619285  1
  V  V71  1  -0.00332623  0.72578798  0.23801499  1
  V  V72  1  0.75575206  0.12643418  0.88303060  1
  V  V73  1  0.24492743  0.75094162  -0.00329136  1
  V  V74  1  0.37681347  0.37388035  0.49808775  1
  V  V75  1  0.24598031  0.25329915  0.49954268  1
  V  V76  1  0.13210279  0.48725296  0.62713748  1
  V  V77  1  0.87629759  0.14845712  0.24832791  1
  V  V78  1  0.37976093  0.38077347  0.00018835  1
  Zn  Zn79  1  0.12792525  0.24343426  0.86955933  1
  Zn  Zn80  1  0.37153218  0.74463285  0.12873582  1
  Zn  Zn81  1  0.87505474  0.12999101  0.75095875  1
  Zn  Zn82  1  0.11721247  0.37852865  0.77510182  1
  Zn  Zn83  1  0.62733265  0.37605172  0.73653236  1
  Zn  Zn84  1  0.75598269  0.84821669  0.14050664  1
  Zn  Zn85  1  0.37546962  0.00114649  0.86458775  1
  Zn  Zn86  1  0.76844492  0.49286109  0.22995995  1
  Zn  Zn87  1  0.43271448  0.58441281  0.19004034  1
  Zn  Zn88  1  0.05731385  -0.03192117  0.07948395  1
  Zn  Zn89  1  0.11504641  0.49889120  0.13703767  1
  Zn  Zn90  1  0.50257084  0.62073236  0.63061555  1
  Zn  Zn91  1  0.00850007  0.64062597  0.63886297  1
  Zn  Zn92  1  0.38207215  0.24499101  0.12116450  1
  Zn  Zn93  1  0.49573755  0.00730260  0.00756186  1
  Zn  Zn94  1  0.19080518  0.18524760  0.18445195  1
  Zn  Zn95  1  0.18073055  0.19172647  0.68310128  1
  Zn  Zn96  1  0.18637290  0.68343391  0.18530955  1
  Zn  Zn97  1  0.19016617  0.68782889  0.68561277  1
  Zn  Zn98  1  0.71722675  0.12278120  0.17390893  1
  Zn  Zn99  1  0.68485125  0.18463256  0.69599664  1
  Zn  Zn100  1  0.67647623  0.66383643  0.18538254  1
  Zn  Zn101  1  0.69392521  0.69098277  0.69105284  1
  Zn  Zn102  1  0.31458095  0.31000610  0.31168157  1
  Zn  Zn103  1  0.31192223  0.31154045  0.81505531  1
  Zn  Zn104  1  0.31130873  0.81642462  0.31264754  1
  Zn  Zn105  1  0.31257922  0.81347592  0.81343665  1
  Zn  Zn106  1  0.79925884  0.32180663  0.33077964  1
  Zn  Zn107  1  0.81409511  0.31138911  0.80890342  1
  Zn  Zn108  1  0.83037223  0.81109712  0.31781530  1
  Zn  Zn109  1  0.81668572  0.81967243  0.82470732  1
  Zn  Zn110  1  0.19149327  0.43201740  0.43311429  1
  Zn  Zn111  1  0.19590993  0.43961992  0.93421918  1
  Zn  Zn112  1  0.18504659  0.93408659  0.43503822  1
  Zn  Zn113  1  0.18333816  0.94038335  0.92781695  1
  Zn  Zn114  1  0.68558439  0.44021038  0.56001588  1
  Zn  Zn115  1  0.68306930  0.44372375  0.92952824  1
  Zn  Zn116  1  0.68645706  0.93858429  0.44450001  1
  Zn  Zn117  1  0.68866810  0.93908723  0.94670642  1
  Zn  Zn118  1  0.30898625  0.05961192  0.06327132  1
  Zn  Zn119  1  0.30187558  0.06426326  0.55346224  1
  Zn  Zn120  1  0.30866383  0.56421703  0.05598167  1
  Zn  Zn121  1  0.31377600  0.55937432  0.56224479  1
  Zn  Zn122  1  0.81838211  0.06594351  0.06160730  1
  Zn  Zn123  1  0.80942504  0.06228846  0.56117689  1
  Zn  Zn124  1  0.79872889  0.54987511  0.05540433  1
  Zn  Zn125  1  0.81997485  0.56947916  0.56158563  1
  Zn  Zn126  1  0.43591885  0.41897520  0.19543326  1
  Zn  Zn127  1  0.43630797  0.43401825  0.68662663  1
  Zn  Zn128  1  0.43757750  0.93317572  0.18364612  1
  Zn  Zn129  1  0.43761559  0.90988908  0.68908408  1
  Zn  Zn130  1  0.92908817  0.44491027  0.17617440  1
  Zn  Zn131  1  0.94126387  0.44656853  0.69036705  1
  Zn  Zn132  1  0.89710570  0.93220808  0.19068946  1
  Zn  Zn133  1  0.93448766  0.95207439  0.68141633  1
  Zn  Zn134  1  0.03478097  0.04465680  0.25027934  1
  Zn  Zn135  1  0.07050321  0.07331983  0.80965940  1
  Zn  Zn136  1  0.06674100  0.55773875  0.32005892  1
  Zn  Zn137  1  0.06634054  0.56803922  0.81224061  1
  Zn  Zn138  1  0.56288409  0.06664325  0.31583809  1
  Zn  Zn139  1  0.57000729  0.05900511  0.82338338  1
  Zn  Zn140  1  0.56570570  0.57110564  0.33154448  1
  Zn  Zn141  1  0.56336201  0.56519602  0.81064989  1
  Zn  Zn142  1  0.43378381  0.18404871  0.43752439  1
  Zn  Zn143  1  0.43565089  0.18837994  0.93198984  1
  Zn  Zn144  1  0.44206055  0.68628011  0.43862272  1
  Zn  Zn145  1  0.43022832  0.69163754  0.93528725  1
  Zn  Zn146  1  0.94010282  0.19392000  0.43813831  1
  Zn  Zn147  1  0.94242016  0.18853380  0.94011208  1
  Zn  Zn148  1  0.94973825  0.69835786  0.46784047  1
  Zn  Zn149  1  0.93563307  0.68834686  0.93317108  1
  Zn  Zn150  1  0.08846853  0.33644303  0.00590979  1
  Zn  Zn151  1  0.06004062  0.30865216  0.56321202  1
  Zn  Zn152  1  0.05455851  0.80029279  0.06107583  1
  Zn  Zn153  1  0.06392101  0.81297972  0.56661018  1
  Zn  Zn154  1  0.56853176  0.31291244  0.06391084  1
  Zn  Zn155  1  0.55370590  0.31119673  0.56609768  1
  Zn  Zn156  1  0.56794510  0.81134847  0.06338056  1
  Zn  Zn157  1  0.56673326  0.81435151  0.56026608  1
  O  O158  1  0.12638522  0.12194098  0.11532501  1
  O  O159  1  0.12338335  0.11403659  0.61252855  1
  O  O160  1  0.13573929  0.61679842  0.10357086  1
  O  O161  1  0.12915623  0.61650562  0.61361007  1
  O  O162  1  0.62786076  0.14515615  0.10765576  1
  O  O163  1  0.62696491  0.11413350  0.62041540  1
  O  O164  1  0.59163727  0.63106751  0.10194812  1
  O  O165  1  0.62633827  0.63639437  0.61387811  1
  O  O166  1  0.37121280  0.38552256  0.38286086  1
  O  O167  1  0.38261104  0.38174298  0.88050667  1
  O  O168  1  0.38485665  0.88339798  0.37888216  1
  O  O169  1  0.38199770  0.87874033  0.88154726  1
  O  O170  1  0.88572069  0.38731029  0.38817717  1
  O  O171  1  0.87074777  0.39226981  0.87116456  1
  O  O172  1  0.87415215  0.89849812  0.38686802  1
  O  O173  1  0.86731032  0.87531228  0.90703033  1
  O  O174  1  0.26320144  -0.01215478  0.36331374  1
  O  O175  1  0.25453867  0.01098517  0.87112489  1
  O  O176  1  0.25960431  0.50328643  0.36651989  1
  O  O177  1  0.25748503  0.50864642  0.86591773  1
  O  O178  1  0.74637421  0.01821243  0.38832196  1
  O  O179  1  0.73910277  0.01335374  0.87046425  1
  O  O180  1  0.77024171  0.51189284  0.38664367  1
  O  O181  1  0.76012477  0.50817792  0.86991459  1
  O  O182  1  0.25334578  0.49230871  0.13124594  1
  O  O183  1  0.24555660  0.50480965  0.63658791  1
  O  O184  1  0.25368093  0.98611074  0.13565892  1
  O  O185  1  0.23704805  0.99237345  0.61400645  1
  O  O186  1  0.68622295  0.54142428  0.16039883  1
  O  O187  1  0.75351306  0.50541464  0.63509355  1
  O  O188  1  0.72626421  1.01394571  0.12156835  1
  O  O189  1  0.74279830  0.99606171  0.63456671  1
  O  O190  1  -0.00886747  0.38461759  0.26092689  1
  O  O191  1  0.00022942  0.36324054  0.74483645  1
  O  O192  1  0.01394026  0.85441707  0.25224501  1
  O  O193  1  -0.00444286  0.91803301  0.78422110  1
  O  O194  1  0.50582788  0.35540482  0.25877147  1
  O  O195  1  0.50113526  0.36613519  0.75783831  1
  O  O196  1  0.49735736  0.86631839  0.26504815  1
  O  O197  1  0.50404500  0.86262876  0.76498626  1
  O  O198  1  0.49463745  0.13621059  0.25295140  1
  O  O199  1  0.49771555  0.12919933  0.75178543  1
  O  O200  1  0.50353454  0.64077906  0.26136047  1
  O  O201  1  0.50397876  0.64040414  0.74755174  1
  O  O202  1  0.97647461  0.14335016  0.24233652  1
  O  O203  1  0.99993537  0.13142847  0.73750235  1
  O  O204  1  1.01891584  0.62642776  0.24587207  1
  O  O205  1  0.98536688  0.62496457  0.75260041  1
  O  O206  1  0.37035453  0.25790905  0.00011587  1
  O  O207  1  0.36884464  0.25335666  0.50360673  1
  O  O208  1  0.35964477  0.76064120  -0.00561798  1
  O  O209  1  0.37313687  0.75615475  0.50473467  1
  O  O210  1  0.88026274  0.24514600  0.02118468  1
  O  O211  1  0.86751497  0.26527847  0.49850141  1
  O  O212  1  0.85338600  0.73151160  0.00039640  1
  O  O213  1  0.86256333  0.77583974  0.48654322  1
  O  O214  1  0.13391098  0.24742722  0.49882079  1
  O  O215  1  0.14068191  0.23512427  1.00008477  1
  O  O216  1  0.13645850  0.74048738  0.49246002  1
  O  O217  1  0.13059168  0.73965249  0.99197128  1
  O  O218  1  0.62563694  0.24286267  0.50261659  1
  O  O219  1  0.61799479  0.24407543  0.98503755  1
  O  O220  1  0.63629081  0.74821962  0.49130932  1
  O  O221  1  0.62325180  0.73324562  0.98938941  1
  O  O222  1  0.50203133  0.25290093  0.13932427  1
  O  O223  1  0.48641005  0.24488821  0.63557966  1
  O  O224  1  0.50382900  0.76167232  0.14755935  1
  O  O225  1  0.49359865  0.75812721  0.63228938  1
  O  O226  1  0.92686766  0.27896183  0.07998389  1
  O  O227  1  1.00753720  0.23580398  0.63574930  1
  O  O228  1  0.99731335  0.74142938  0.13741226  1
  O  O229  1  0.99176910  0.73014028  0.57530393  1
  O  O230  1  0.00849691  0.26626831  0.37669896  1
  O  O231  1  0.00370406  0.24008182  0.85707775  1
  O  O232  1  0.02004251  0.73618148  0.37667347  1
  O  O233  1  0.01205264  0.75127894  0.87758783  1
  O  O234  1  0.51100402  0.23970690  0.37220401  1
  O  O235  1  0.50362773  0.25857918  0.86438172  1
  O  O236  1  0.50933032  0.75820336  0.37178124  1
  O  O237  1  0.50434924  0.75526580  0.86875605  1
  O  O238  1  0.23647396  0.13830239  0.49488258  1
  O  O239  1  0.24773380  0.13093840  0.99767323  1
  O  O240  1  0.24544815  0.62721865  0.49241481  1
  O  O241  1  0.24008203  0.63194583  0.98505881  1
  O  O242  1  0.73960085  0.13411272  0.50026292  1
  O  O243  1  0.73801547  0.12520134  0.98716346  1
  O  O244  1  0.74955797  0.63930697  0.49878698  1
  O  O245  1  0.73611961  0.62388426  0.99305876  1
  O  O246  1  0.26229752  0.36631014  0.00362078  1
  O  O247  1  0.26205238  0.36496445  0.49830299  1
  O  O248  1  0.25222743  0.86978968  0.00478675  1
  O  O249  1  0.25529158  0.86793537  0.50407455  1
  O  O250  1  0.76393182  0.38166437  -0.00050586  1
  O  O251  1  0.76522280  0.37279353  0.50579064  1
  O  O252  1  0.73300687  0.84600164  0.00049069  1
  O  O253  1  0.75384499  0.87453468  0.51230951  1
  O  O254  1  0.14323774  0.49846305  0.25162786  1
  O  O255  1  0.13092657  0.49705967  0.74446727  1
  O  O256  1  0.13556374  0.98706039  0.25899290  1
  O  O257  1  0.13301575  1.00538023  0.73509684  1
  O  O258  1  0.60091692  0.48173633  0.26995279  1
  O  O259  1  0.64345606  0.50323050  0.75438086  1
  O  O260  1  0.62199701  1.00577017  0.23963329  1
  O  O261  1  0.63428177  1.00548856  0.74287796  1
  O  O262  1  0.37073900  0.00279044  0.25356842  1
  O  O263  1  0.38757891  0.00692475  0.74041660  1
  O  O264  1  0.37340015  0.50006965  0.25803799  1
  O  O265  1  0.36722843  0.49370677  0.75986743  1
  O  O266  1  0.86538308  0.02915647  0.27319401  1
  O  O267  1  0.85925538  0.01065928  0.74785736  1
  O  O268  1  0.88393707  0.50469036  0.27881237  1
  O  O269  1  0.86715470  0.50915381  0.75836053  1
  O  O270  1  0.11139743  0.36796754  0.37591664  1
  O  O271  1  0.12665170  0.36133897  0.89202851  1
  O  O272  1  0.13496446  0.85859373  0.36565520  1
  O  O273  1  0.13341234  0.85719033  0.87223430  1
  O  O274  1  0.62110682  0.36352876  0.37702543  1
  O  O275  1  0.61749922  0.36958752  0.87182647  1
  O  O276  1  0.61797576  0.86878456  0.38254707  1
  O  O277  1  0.61512854  0.86393558  0.88813188  1
  O  O278  1  0.37623065  0.12343030  0.13623398  1
  O  O279  1  0.37638986  0.12698714  0.62417421  1
  O  O280  1  0.37643807  0.63427284  0.10977409  1
  O  O281  1  0.37718265  0.64097883  0.61719821  1
  O  O282  1  0.83535461  0.13858068  0.15071936  1
  O  O283  1  0.89308541  0.11756957  0.62021198  1
  O  O284  1  0.83102522  0.48306059  0.13455811  1
  O  O285  1  0.87634386  0.62658298  0.64216736  1
  O  O286  1  0.25619665  0.25695395  0.11688392  1
  O  O287  1  0.26167948  0.24214322  0.61508871  1
  O  O288  1  0.24563662  0.75801393  0.11265883  1
  O  O289  1  0.25643707  0.75663688  0.61835172  1
  O  O290  1  0.74016618  0.33367936  0.05159967  1
  O  O291  1  0.74597244  0.24437609  0.61799837  1
  O  O292  1  0.73562569  0.73350769  0.11359621  1
  O  O293  1  0.74670243  0.76424996  0.61747863  1
  O  O294  1  0.23399596  0.26056402  0.38193841  1
  O  O295  1  0.25533569  0.23741644  0.88468364  1
  O  O296  1  0.24892857  0.74027311  0.37724815  1
  O  O297  1  0.24527185  0.74383290  0.87856689  1
  O  O298  1  0.73503967  0.24537279  0.39718108  1
  O  O299  1  0.73842541  0.24033755  0.86441683  1
  O  O300  1  0.74840353  0.75023985  0.38303727  1
  O  O301  1  0.74162888  0.73935556  0.88327016  1
  O  O302  1  0.02117171  0.12808373  -0.00441323  1
  O  O303  1  0.01417027  0.13796534  0.51147024  1
  O  O304  1  0.01318769  0.62315157  -0.00663351  1
  O  O305  1  0.02040258  0.60284402  0.48730069  1
  O  O306  1  0.51122533  0.12658882  -0.00542902  1
  O  O307  1  0.50899172  0.11849579  0.49922995  1
  O  O308  1  0.50613274  0.61584413  -0.02699461  1
  O  O309  1  0.51222161  0.62076627  0.50311122  1
  O  O310  1  0.48661804  0.38269108  0.50069216  1
  O  O311  1  0.49223080  0.36848541  0.98790463  1
  O  O312  1  0.49505159  0.88298294  0.49307904  1
  O  O313  1  0.48905629  0.86568404  0.99263336  1
  O  O314  1  0.99242994  0.38097148  0.49858538  1
  O  O315  1  0.99234281  0.39297902  0.99345367  1
  O  O316  1  0.98769793  0.88184339  0.50353365  1
  O  O317  1  1.00711820  0.88828204  1.00494952  1
  O  O318  1  0.48748153  0.50913737  0.39196122  1
  O  O319  1  0.49300521  0.48889063  0.86331671  1
  O  O320  1  0.49470242  0.99361850  0.37966001  1
  O  O321  1  0.49901846  0.98833620  0.88056244  1
  O  O322  1  1.00038405  0.48692995  0.38660665  1
  O  O323  1  0.98962239  0.50413861  0.87522948  1
  O  O324  1  0.99065184  1.01450659  0.36373305  1
  O  O325  1  1.00110320  0.97332157  0.83720855  1
  O  O326  1  -0.01336092  -0.00821155  0.16075058  1
  O  O327  1  0.01655025  0.01330517  0.62621022  1
  O  O328  1  0.00358836  0.50033739  0.10464076  1
  O  O329  1  0.01322199  0.50812399  0.61873316  1
  O  O330  1  0.51852335  -0.01336883  0.12117660  1
  O  O331  1  0.50098933  0.00398624  0.62891488  1
  O  O332  1  0.50196138  0.50149453  0.13987407  1
  O  O333  1  0.48761374  0.50531884  0.61149193  1
  O  O334  1  0.26090786  0.38179518  0.23641357  1
  O  O335  1  0.24387301  0.38723693  0.75981184  1
  O  O336  1  0.24327217  0.87752222  0.24046350  1
  O  O337  1  0.25540447  0.87402473  0.73312606  1
  O  O338  1  0.72858869  0.38506792  0.26303788  1
  O  O339  1  0.75146169  0.39166945  0.75134392  1
  O  O340  1  0.80662858  0.88045189  0.23359780  1
  O  O341  1  0.75993695  0.88352280  0.74300412  1
  O  O342  1  0.25948339  0.11050166  0.24499945  1
  O  O343  1  0.24620439  0.13271884  0.76132002  1
  O  O344  1  0.25149200  0.61600892  0.25745033  1
  O  O345  1  0.24667237  0.61535043  0.75868249  1
  O  O346  1  0.74397719  0.13804805  0.28126036  1
  O  O347  1  0.75033992  0.11864658  0.76307814  1
  O  O348  1  0.75205182  0.62592807  0.27241339  1
  O  O349  1  0.75858633  0.61831920  0.75686517  1
  O  O350  1  0.37934057  0.11052994  0.36441212  1
  O  O351  1  0.36330314  0.12016969  0.87590042  1
  O  O352  1  0.36586737  0.61412218  0.38459213  1
  O  O353  1  0.36440844  0.61543543  0.87826691  1
  O  O354  1  0.86338844  0.12412965  0.38514543  1
  O  O355  1  0.85769695  0.13519457  0.87965767  1
  O  O356  1  0.87595310  0.61733270  0.39964338  1
  O  O357  1  0.86600245  0.62005470  0.86436639  1
  O  O358  1  0.14158966  0.38196648  0.10468963  1
  O  O359  1  0.12347891  0.38736506  0.62217611  1
  O  O360  1  0.13072623  0.87224168  0.13139188  1
  O  O361  1  0.12963478  0.89040880  0.61651190  1
  O  O362  1  0.61857705  0.39209769  0.13412174  1
  O  O363  1  0.61912812  0.37807107  0.62477170  1
  O  O364  1  0.63903634  0.87772401  0.13066436  1
  O  O365  1  0.63522482  0.88799738  0.62206492  1
  O  O366  1  0.13139061  0.24778023  0.26169700  1
  O  O367  1  0.11452913  0.25688412  0.74961327  1
  O  O368  1  0.12231912  0.75071466  0.25589027  1
  O  O369  1  0.12049964  0.74317042  0.75679873  1
  O  O370  1  0.61465604  0.25726810  0.26289220  1
  O  O371  1  0.61162471  0.25007954  0.75779596  1
  O  O372  1  0.62054517  0.74227327  0.26444684  1
  O  O373  1  0.62102923  0.74675743  0.76454726  1
  O  O374  1  0.38690845  0.24063731  0.25256109  1
  O  O375  1  0.38165206  0.25434849  0.74171998  1
  O  O376  1  0.38850391  0.75120911  0.25403261  1
  O  O377  1  0.38459524  0.75754435  0.73913745  1
  O  O378  1  0.86177655  0.24520611  0.27343713  1
  O  O379  1  0.88853920  0.24781159  0.74901116  1
  O  O380  1  0.90170695  0.73447147  0.27064234  1
  O  O381  1  0.86846402  0.74020303  0.75882900  1
  O  O382  1  0.37792243  0.49112836  0.49413157  1
  O  O383  1  0.36685936  0.48884708  0.98404666  1
  O  O384  1  0.37754710  0.99801338  0.49107624  1
  O  O385  1  0.37673566  0.98588474  1.00237237  1
  O  O386  1  0.88751253  0.49199577  0.50096281  1
  O  O387  1  0.88774033  0.51476893  0.98124309  1
  O  O388  1  0.87573561  0.99892582  0.49007717  1
  O  O389  1  0.89159175  1.01369183  0.99491598  1
  O  O390  1  0.13136720  0.01075975  0.00275174  1
  O  O391  1  0.12837531  0.01801656  0.48900153  1
  O  O392  1  0.11346061  0.51200342  -0.01428499  1
  O  O393  1  0.12828253  0.50145149  0.50621301  1
  O  O394  1  0.62160615  0.01559758  0.00854234  1
  O  O395  1  0.61714925  0.00694528  0.51395405  1
  O  O396  1  0.62364033  0.50661517  0.01056961  1
  O  O397  1  0.61727428  0.51282601  0.49980300  1
  O  O398  1  0.36984217  0.37203796  0.11320067  1
  O  O399  1  0.37598286  0.36269867  0.61462109  1
  O  O400  1  0.36430478  0.86644224  0.11689244  1
  O  O401  1  0.36559038  0.86670994  0.61470648  1
  O  O402  1  0.88757840  0.32638249  0.12547885  1
  O  O403  1  0.88288362  0.37949994  0.61521944  1
  O  O404  1  0.86006569  0.88274405  0.08268059  1
  O  O405  1  0.86641265  0.89053172  0.61096933  1
  O  O406  1  0.11422098  0.14726842  0.38668391  1
  O  O407  1  0.14133514  0.12348973  0.88532980  1
  O  O408  1  0.14209397  0.62647616  0.38335718  1
  O  O409  1  0.13319668  0.63578567  0.88024019  1
  O  O410  1  0.63127804  0.12945794  0.39206338  1
  O  O411  1  0.63073745  0.13471786  0.88408652  1
  O  O412  1  0.64043560  0.63635780  0.39021191  1
  O  O413  1  0.63399032  0.62875300  0.87962449  1
