# generated using pymatgen
data_V79Zn79O256
_symmetry_space_group_name_H-M   'P 1'
_cell_length_a   16.88117505
_cell_length_b   16.86999381
_cell_length_c   16.87585625
_cell_angle_alpha   90.06814275
_cell_angle_beta   89.92156364
_cell_angle_gamma   89.98017100
_symmetry_Int_Tables_number   1
_chemical_formula_structural   V79Zn79O256
_chemical_formula_sum   'V79 Zn79 O256'
_cell_volume   4805.98790611
_cell_formula_units_Z   1
loop_
 _symmetry_equiv_pos_site_id
 _symmetry_equiv_pos_as_xyz
  1  'x, y, z'
loop_
 _atom_site_type_symbol
 _atom_site_label
 _atom_site_symmetry_multiplicity
 _atom_site_fract_x
 _atom_site_fract_y
 _atom_site_fract_z
 _atom_site_occupancy
  V  V0  1  0.50149032  0.50319435  0.00262661  1
  V  V1  1  0.62762996  0.38488654  0.74961710  1
  V  V2  1  -0.00135516  0.62287511  0.12456726  1
  V  V3  1  0.00376153  0.87131978  0.87782746  1
  V  V4  1  0.13106317  0.87599119  0.74895741  1
  V  V5  1  0.00179743  0.73949426  0.73367571  1
  V  V6  1  -0.00268934  0.75769860  0.24507670  1
  V  V7  1  0.37458625  0.87109245  0.50471108  1
  V  V8  1  0.24581575  0.74618105  0.49175560  1
  V  V9  1  0.64499311  0.87630542  0.75959395  1
  V  V10  1  0.87262583  0.25267236  0.11992854  1
  V  V11  1  0.86856322  0.11699080  0.75032300  1
  V  V12  1  0.24812285  0.51680775  0.25385655  1
  V  V13  1  0.89317679  0.91946737  0.45618664  1
  V  V14  1  0.49739814  0.37611175  0.86698250  1
  V  V15  1  0.12444250  -0.00980236  0.12472272  1
  V  V16  1  -0.01636138  0.49785636  -0.00173989  1
  V  V17  1  0.74870539  0.26085680  -0.00164328  1
  V  V18  1  0.76184288  0.75729028  -0.00680769  1
  V  V19  1  0.25162510  0.87415950  0.62359494  1
  V  V20  1  0.50103726  0.87664125  0.37183043  1
  V  V21  1  0.25154268  0.11559191  0.86862989  1
  V  V22  1  0.50223522  0.36980958  0.37165387  1
  V  V23  1  0.13125462  0.74242035  0.87668528  1
  V  V24  1  0.25699072  0.87480261  0.12448460  1
  V  V25  1  0.61425421  0.11900364  0.00855878  1
  V  V26  1  0.12375839  0.12483792  0.00366218  1
  V  V27  1  0.24620473  0.23808707  0.49260714  1
  V  V28  1  0.37834413  0.12386853  0.24735985  1
  V  V29  1  0.13146166  0.61344818  0.00170195  1
  V  V30  1  0.61775106  0.50375174  0.61556573  1
  V  V31  1  0.75130063  0.38363900  0.62767756  1
  V  V32  1  0.36668995  0.00392173  0.37809438  1
  V  V33  1  -0.00328712  0.25060056  0.75308004  1
  V  V34  1  0.11997426  0.75286804  0.36470027  1
  V  V35  1  0.62353520  0.49948712  0.13601376  1
  V  V36  1  0.37938616  0.10848305  0.74984349  1
  V  V37  1  0.87126008  0.24812801  0.62453898  1
  V  V38  1  0.74667489  0.11788593  0.87619039  1
  V  V39  1  0.24892478  0.51397778  0.75758561  1
  V  V40  1  0.25480330  0.74878910  0.00086782  1
  V  V41  1  -0.01570132  0.37954037  0.87831627  1
  V  V42  1  0.37609451  0.51344822  0.37182845  1
  V  V43  1  0.75122379  0.38232673  0.13332934  1
  V  V44  1  0.24895507  0.25140197  0.00123266  1
  V  V45  1  0.48603435  -0.02212158  -0.00773413  1
  V  V46  1  0.49718717  0.62425094  0.13789021  1
  V  V47  1  0.00287017  0.11929696  0.62503805  1
  V  V48  1  0.37546781  0.74678173  0.13581688  1
  V  V49  1  0.24192205  0.37899405  0.13505070  1
  V  V50  1  0.38021042  0.24969317  0.62980033  1
  V  V51  1  0.24731208  0.00222424  0.25004603  1
  V  V52  1  0.50315650  0.75619446  0.76875089  1
  V  V53  1  0.88586708  0.38223749  0.49428951  1
  V  V54  1  0.86230677  0.62212463  0.24175730  1
  V  V55  1  0.11697454  0.50749335  0.61608270  1
  V  V56  1  0.85380863  0.75582189  0.61321352  1
  V  V57  1  0.24874000  0.37439869  0.62498110  1
  V  V58  1  0.75183723  0.61591415  0.38742050  1
  V  V59  1  0.63964398  -0.00049360  0.62733688  1
  V  V60  1  0.12676455  0.00097168  0.62349121  1
  V  V61  1  0.76197018  0.87228520  0.13537170  1
  V  V62  1  0.38398609  0.24601442  0.12716261  1
  V  V63  1  0.62222177  0.25004701  0.87387886  1
  V  V64  1  0.86822783  0.11960690  0.25243071  1
  V  V65  1  0.86347333  0.61576637  0.75075898  1
  V  V66  1  0.12363020  0.37574659  0.75145210  1
  V  V67  1  0.11259294  0.25136637  0.37194689  1
  V  V68  1  0.36924900  0.51272514  0.87670405  1
  V  V69  1  0.63473140  0.75796255  0.37040682  1
  V  V70  1  0.61283103  0.63380053  0.50507014  1
  V  V71  1  0.74268888  0.25143032  0.48604246  1
  V  V72  1  0.12342226  0.25194980  0.87625279  1
  V  V73  1  0.62204429  -0.01220822  0.13820334  1
  V  V74  1  0.37678369  0.38046262  0.49763596  1
  V  V75  1  0.37508540  0.37403927  0.00189924  1
  V  V76  1  -0.00192923  -0.00329509  0.00066787  1
  V  V77  1  0.87445868  -0.00586890  0.87646092  1
  V  V78  1  0.74178262  0.10803443  0.37029831  1
  Zn  Zn79  1  0.11704864  0.61922025  0.49073549  1
  Zn  Zn80  1  0.45015007  0.66231806  0.64423428  1
  Zn  Zn81  1  0.62371096  0.63928371  -0.01087949  1
  Zn  Zn82  1  0.10845010  0.38788480  0.25935463  1
  Zn  Zn83  1  0.63194093  0.36688339  0.26175409  1
  Zn  Zn84  1  0.88894500  0.49826969  0.37468180  1
  Zn  Zn85  1  0.51096094  0.24002382  0.25146597  1
  Zn  Zn86  1  -0.00748431  0.26113184  0.25071656  1
  Zn  Zn87  1  0.50113313  0.75272784  0.25152485  1
  Zn  Zn88  1  -0.00437358  0.12681460  0.12575507  1
  Zn  Zn89  1  0.49838577  0.00864518  0.51004434  1
  Zn  Zn90  1  0.08152693  0.08920489  0.46195121  1
  Zn  Zn91  1  0.50284452  0.24159406  0.74374275  1
  Zn  Zn92  1  0.75471626  0.61539502  0.87879032  1
  Zn  Zn93  1  0.61166138  0.12929175  0.50695603  1
  Zn  Zn94  1  0.19039152  0.19031029  0.19283453  1
  Zn  Zn95  1  0.19035178  0.18763943  0.68772370  1
  Zn  Zn96  1  0.18209119  0.68728901  0.18242953  1
  Zn  Zn97  1  0.18672049  0.68989701  0.67982686  1
  Zn  Zn98  1  0.68644708  0.18749389  0.18778280  1
  Zn  Zn99  1  0.68361758  0.18619498  0.68638780  1
  Zn  Zn100  1  0.68503279  0.69356945  0.17856522  1
  Zn  Zn101  1  0.68294051  0.69181100  0.69226049  1
  Zn  Zn102  1  0.31588061  0.31226372  0.31370225  1
  Zn  Zn103  1  0.31189922  0.31202461  0.81284925  1
  Zn  Zn104  1  0.30772486  0.81899851  0.31339309  1
  Zn  Zn105  1  0.32648602  0.80369526  0.80591643  1
  Zn  Zn106  1  0.81911027  0.31566041  0.31011919  1
  Zn  Zn107  1  0.80610086  0.31018995  0.81126664  1
  Zn  Zn108  1  0.81764646  0.81476383  0.31583698  1
  Zn  Zn109  1  0.81768114  0.80572563  0.81137688  1
  Zn  Zn110  1  0.19117226  0.43420114  0.43311679  1
  Zn  Zn111  1  0.18565387  0.43526512  0.93824398  1
  Zn  Zn112  1  0.14898733  0.95375972  0.41049583  1
  Zn  Zn113  1  0.23653248  0.91059103  0.91115660  1
  Zn  Zn114  1  0.69068104  0.43832414  0.44134013  1
  Zn  Zn115  1  0.68002242  0.45936236  0.92772427  1
  Zn  Zn116  1  0.69957703  0.93049862  0.45602865  1
  Zn  Zn117  1  0.68573024  0.93227636  0.94603321  1
  Zn  Zn118  1  0.31261599  0.06429211  0.06107097  1
  Zn  Zn119  1  0.31181993  0.05712760  0.57044721  1
  Zn  Zn120  1  0.31426549  0.56225114  0.06857180  1
  Zn  Zn121  1  0.30359803  0.56348863  0.55651250  1
  Zn  Zn122  1  0.80500491  0.05955550  0.06407214  1
  Zn  Zn123  1  0.81570516  0.05640379  0.55231127  1
  Zn  Zn124  1  0.80653709  0.56597874  0.05747122  1
  Zn  Zn125  1  0.82035964  0.56832566  0.56928841  1
  Zn  Zn126  1  0.43324497  0.43766819  0.19301416  1
  Zn  Zn127  1  0.41687244  0.47715338  0.66736361  1
  Zn  Zn128  1  0.43957496  0.93945100  0.18215474  1
  Zn  Zn129  1  0.45178307  0.92717213  0.68595116  1
  Zn  Zn130  1  0.93419267  0.44193128  0.18447324  1
  Zn  Zn131  1  0.93803145  0.43767855  0.68447737  1
  Zn  Zn132  1  0.93449078  0.93886311  0.19092826  1
  Zn  Zn133  1  0.93850142  0.93192401  0.68543359  1
  Zn  Zn134  1  0.05873722  0.07466292  0.29966301  1
  Zn  Zn135  1  0.06381780  0.06146566  0.81074115  1
  Zn  Zn136  1  0.06891211  0.57417810  0.31165711  1
  Zn  Zn137  1  0.05839252  0.56172984  0.81542231  1
  Zn  Zn138  1  0.55864126  0.06245029  0.32238680  1
  Zn  Zn139  1  0.56013129  0.04904067  0.81169303  1
  Zn  Zn140  1  0.56277403  0.55896011  0.32024423  1
  Zn  Zn141  1  0.56381489  0.57228048  0.81068885  1
  Zn  Zn142  1  0.43124999  0.18831745  0.43827190  1
  Zn  Zn143  1  0.43604930  0.18380294  0.93386249  1
  Zn  Zn144  1  0.43984036  0.69425361  0.43950735  1
  Zn  Zn145  1  0.43995472  0.69399677  0.94187149  1
  Zn  Zn146  1  0.92885270  0.18325816  0.43893284  1
  Zn  Zn147  1  0.93502147  0.18723112  0.93808375  1
  Zn  Zn148  1  0.93739018  0.68965470  0.43210201  1
  Zn  Zn149  1  0.93614228  0.68726864  0.93686535  1
  Zn  Zn150  1  0.05921788  0.31678512  0.06338727  1
  Zn  Zn151  1  0.06312942  0.30830520  0.56208609  1
  Zn  Zn152  1  0.06254936  0.80821509  0.06271667  1
  Zn  Zn153  1  0.05832765  0.82159544  0.55042055  1
  Zn  Zn154  1  0.56735324  0.31475975  0.06261102  1
  Zn  Zn155  1  0.56047439  0.31738650  0.55919775  1
  Zn  Zn156  1  0.56760782  0.81165614  0.05967802  1
  Zn  Zn157  1  0.56784697  0.82034452  0.57142338  1
  O  O158  1  0.12605531  0.12430776  0.11320836  1
  O  O159  1  0.11515093  0.11577112  0.64110542  1
  O  O160  1  0.11325410  0.62648606  0.10966333  1
  O  O161  1  0.12552000  0.61122375  0.61864299  1
  O  O162  1  0.63317476  0.11558884  0.11095087  1
  O  O163  1  0.62634826  0.11267216  0.62500023  1
  O  O164  1  0.61544361  0.61428996  0.12276157  1
  O  O165  1  0.63476729  0.61461275  0.61369341  1
  O  O166  1  0.38108336  0.38119194  0.38138612  1
  O  O167  1  0.37821610  0.37909236  0.88618889  1
  O  O168  1  0.37964378  0.88273468  0.38264547  1
  O  O169  1  0.33977454  0.88102784  0.88127384  1
  O  O170  1  0.87283982  0.38018583  0.38900677  1
  O  O171  1  0.88550182  0.36869868  0.86926808  1
  O  O172  1  0.89042683  0.89166524  0.35647495  1
  O  O173  1  0.89139204  0.88428838  0.86636651  1
  O  O174  1  0.25373754  -0.01113766  0.36048676  1
  O  O175  1  0.23704540  0.01865071  0.87706641  1
  O  O176  1  0.26042458  0.49782339  0.36238796  1
  O  O177  1  0.25123507  0.49718581  0.86542048  1
  O  O178  1  0.74795945  0.01051853  0.37615480  1
  O  O179  1  0.76291900  0.00872996  0.88747170  1
  O  O180  1  0.74796822  0.51391604  0.37371228  1
  O  O181  1  0.77654838  0.50123912  0.89555698  1
  O  O182  1  0.25875705  0.48721458  0.13871024  1
  O  O183  1  0.24014028  0.48934732  0.64030196  1
  O  O184  1  0.24458706  0.99246056  0.12578596  1
  O  O185  1  0.24241601  0.98522546  0.63140916  1
  O  O186  1  0.74045973  0.48791180  0.11620051  1
  O  O187  1  0.74327492  0.48778642  0.61989955  1
  O  O188  1  0.73315071  0.98669163  0.11568241  1
  O  O189  1  0.74305932  1.00719861  0.62196641  1
  O  O190  1  -0.00289565  0.37467747  0.24637777  1
  O  O191  1  0.00663820  0.37250294  0.75768467  1
  O  O192  1  -0.00206823  0.85625538  0.23558877  1
  O  O193  1  0.01175097  0.86139157  0.75836300  1
  O  O194  1  0.49689510  0.37224079  0.26369218  1
  O  O195  1  0.50608633  0.37865827  0.76207263  1
  O  O196  1  0.49375247  0.87544749  0.26701945  1
  O  O197  1  0.50959947  0.86386094  0.75863939  1
  O  O198  1  0.48303190  0.12360207  0.25627997  1
  O  O199  1  0.48230256  0.12688127  0.76487528  1
  O  O200  1  0.50488330  0.62558996  0.24097183  1
  O  O201  1  0.52298014  0.64584941  0.74015396  1
  O  O202  1  0.98300571  0.13976778  0.24441770  1
  O  O203  1  0.98917052  0.13079317  0.74685435  1
  O  O204  1  0.99540978  0.62766142  0.23715195  1
  O  O205  1  1.00091683  0.63704303  0.75078787  1
  O  O206  1  0.37037803  0.25641099  0.00579549  1
  O  O207  1  0.36322817  0.25926963  0.50971159  1
  O  O208  1  0.36012646  0.73963400  0.01171909  1
  O  O209  1  0.35988812  0.75916771  0.49276801  1
  O  O210  1  0.86035976  0.24114840  0.00740825  1
  O  O211  1  0.86420487  0.25899540  0.50734969  1
  O  O212  1  0.86459798  0.74586652  0.00308912  1
  O  O213  1  0.88289380  0.73853449  0.51643643  1
  O  O214  1  0.13806572  0.25314572  0.49377282  1
  O  O215  1  0.12761169  0.24394941  0.99700834  1
  O  O216  1  0.12900453  0.75065456  0.48810477  1
  O  O217  1  0.13132498  0.73839354  0.99556931  1
  O  O218  1  0.64110882  0.25026650  0.50942956  1
  O  O219  1  0.62964190  0.23941746  0.99534368  1
  O  O220  1  0.62439166  0.73798653  0.49264281  1
  O  O221  1  0.64162761  0.75001438  1.00370005  1
  O  O222  1  0.48647571  0.26065936  0.12712637  1
  O  O223  1  0.48456999  0.25913565  0.62459320  1
  O  O224  1  0.49260843  0.74247269  0.12718596  1
  O  O225  1  0.50052968  0.75890044  0.63535049  1
  O  O226  1  0.98325130  0.24931045  0.11636355  1
  O  O227  1  0.98969000  0.24559864  0.63453492  1
  O  O228  1  1.00323266  0.73755197  0.13297194  1
  O  O229  1  1.01275498  0.74868540  0.63495864  1
  O  O230  1  0.00973677  0.24753326  0.37980094  1
  O  O231  1  0.00341793  0.25797829  0.87327442  1
  O  O232  1  0.00912341  0.74534712  0.35934968  1
  O  O233  1  0.01123185  0.75810383  0.87529481  1
  O  O234  1  0.49060361  0.26579430  0.37396278  1
  O  O235  1  0.50392450  0.26231079  0.87665589  1
  O  O236  1  0.51062330  0.75747374  0.37383288  1
  O  O237  1  0.50999236  0.74306235  0.87103344  1
  O  O238  1  0.25511705  0.13971426  0.51046988  1
  O  O239  1  0.24234133  0.13113085  0.99045457  1
  O  O240  1  0.24530500  0.64363772  0.50381473  1
  O  O241  1  0.23674448  0.62792793  1.00960691  1
  O  O242  1  0.75721986  0.14092732  0.48307988  1
  O  O243  1  0.73905881  0.13139383  0.99069064  1
  O  O244  1  0.74695483  0.62233126  0.48943539  1
  O  O245  1  0.74603592  0.63978930  1.00162962  1
  O  O246  1  0.25712278  0.37370068  0.00915878  1
  O  O247  1  0.25594244  0.36659578  0.51064866  1
  O  O248  1  0.23914451  0.85856149  0.01455858  1
  O  O249  1  0.25725402  0.86634937  0.50725387  1
  O  O250  1  0.73831125  0.36275942  0.00419690  1
  O  O251  1  0.75639252  0.36535180  0.50865985  1
  O  O252  1  0.75147881  0.86459300  0.00712595  1
  O  O253  1  0.79941025  0.88747543  0.48843488  1
  O  O254  1  0.14208460  0.50007670  0.25855620  1
  O  O255  1  0.13183155  0.49361392  0.74641444  1
  O  O256  1  0.13431301  1.01410027  0.23176179  1
  O  O257  1  0.12107615  0.98393218  0.74534494  1
  O  O258  1  0.61892337  0.49314511  0.23978821  1
  O  O259  1  0.62454509  0.48976160  0.73728072  1
  O  O260  1  0.61643822  1.00855938  0.23563029  1
  O  O261  1  0.62671163  0.99177339  0.73981092  1
  O  O262  1  0.36762189  0.00422482  0.25413832  1
  O  O263  1  0.37795908  0.01060738  0.74187594  1
  O  O264  1  0.36314055  0.49905440  0.26152044  1
  O  O265  1  0.35533937  0.48929152  0.76421619  1
  O  O266  1  0.87921376  0.02125771  0.24646765  1
  O  O267  1  0.88343671  0.00915772  0.76117213  1
  O  O268  1  0.88125557  0.51809078  0.25792793  1
  O  O269  1  0.87895032  0.51640130  0.73869012  1
  O  O270  1  0.13304292  0.35819573  0.37328958  1
  O  O271  1  0.11705307  0.37121391  0.86738026  1
  O  O272  1  0.12803256  0.85329754  0.36741090  1
  O  O273  1  0.12447314  0.86482425  0.86694174  1
  O  O274  1  0.60650636  0.38685732  0.38001194  1
  O  O275  1  0.61778290  0.37460368  0.86829385  1
  O  O276  1  0.62186303  0.86215066  0.38830863  1
  O  O277  1  0.62990758  0.88900784  0.85917789  1
  O  O278  1  0.37032329  0.13659939  0.13129095  1
  O  O279  1  0.36486972  0.13496571  0.64287252  1
  O  O280  1  0.38574125  0.63238310  0.12383132  1
  O  O281  1  0.37982354  0.58172847  0.63322532  1
  O  O282  1  0.86558908  0.13421942  0.13338574  1
  O  O283  1  0.87964358  0.12997233  0.63244550  1
  O  O284  1  0.87960781  0.62009429  0.13607159  1
  O  O285  1  0.87128695  0.64123512  0.64013501  1
  O  O286  1  0.25871331  0.26149011  0.12094009  1
  O  O287  1  0.25496526  0.25987566  0.62104914  1
  O  O288  1  0.25492816  0.75471523  0.12209212  1
  O  O289  1  0.23813813  0.76248226  0.60808867  1
  O  O290  1  0.75275984  0.26151136  0.11750509  1
  O  O291  1  0.76003437  0.25510159  0.62045917  1
  O  O292  1  0.75001103  0.76444815  0.11776825  1
  O  O293  1  0.75378378  0.74950748  0.61854013  1
  O  O294  1  0.25400884  0.25100083  0.39066238  1
  O  O295  1  0.24215686  0.24689374  0.88229750  1
  O  O296  1  0.24238254  0.75511363  0.38440145  1
  O  O297  1  0.23790590  0.74771274  0.88519654  1
  O  O298  1  0.74722801  0.26122336  0.38573098  1
  O  O299  1  0.74271230  0.24152624  0.88106058  1
  O  O300  1  0.73898994  0.74187390  0.37288852  1
  O  O301  1  0.75616089  0.74637392  0.88760039  1
  O  O302  1  0.00901218  0.11777894  -0.00203208  1
  O  O303  1  -0.00007544  0.14220016  0.52163021  1
  O  O304  1  0.00500616  0.61489619  0.00352217  1
  O  O305  1  -0.00069938  0.59307326  0.46556846  1
  O  O306  1  0.51327809  0.12930691  0.00011988  1
  O  O307  1  0.49937449  0.12222580  0.49336660  1
  O  O308  1  0.50097887  0.61345202  0.01006058  1
  O  O309  1  0.51288987  0.62699552  0.50290880  1
  O  O310  1  0.48571696  0.37391374  0.49059281  1
  O  O311  1  0.49014480  0.38056041  0.99386183  1
  O  O312  1  0.48699585  0.87122130  0.49076689  1
  O  O313  1  0.49744452  0.87771872  0.99769852  1
  O  O314  1  0.98422364  0.36903308  0.50657071  1
  O  O315  1  1.00415120  0.38964072  0.99318429  1
  O  O316  1  0.97842232  0.88022639  0.50018358  1
  O  O317  1  1.01093102  0.88440877  0.98925029  1
  O  O318  1  0.48284562  0.49015534  0.37083734  1
  O  O319  1  0.48888804  0.49288911  0.88354671  1
  O  O320  1  0.48732932  0.99103810  0.38155057  1
  O  O321  1  0.49845946  1.00396921  0.89477714  1
  O  O322  1  1.00009351  0.53519326  0.40123935  1
  O  O323  1  1.00139165  0.49283502  0.88717185  1
  O  O324  1  1.04900968  1.00753431  0.38731220  1
  O  O325  1  0.99725023  0.99246966  0.88118837  1
  O  O326  1  0.00665784  0.00269950  0.11735504  1
  O  O327  1  0.00782531  0.01020494  0.63250293  1
  O  O328  1  -0.00310555  0.50840088  0.10927322  1
  O  O329  1  0.01875955  0.49198962  0.62490010  1
  O  O330  1  0.51441900  -0.00741487  0.11106976  1
  O  O331  1  0.51714735  -0.00704207  0.62186769  1
  O  O332  1  0.50007647  0.50461834  0.12245239  1
  O  O333  1  0.51972106  0.49240782  0.62220055  1
  O  O334  1  0.25055170  0.37497786  0.23902322  1
  O  O335  1  0.23763309  0.37610185  0.74520294  1
  O  O336  1  0.25102135  0.88727692  0.23566503  1
  O  O337  1  0.23739048  0.85467711  0.73754670  1
  O  O338  1  0.75112845  0.37787870  0.23693877  1
  O  O339  1  0.73936018  0.36893634  0.73970659  1
  O  O340  1  0.75413807  0.86869909  0.23638181  1
  O  O341  1  0.74587088  0.87285937  0.75335732  1
  O  O342  1  0.26137308  0.11201559  0.24237477  1
  O  O343  1  0.25641203  0.12948711  0.76298968  1
  O  O344  1  0.25045457  0.61508482  0.24069699  1
  O  O345  1  0.24221046  0.61241751  0.74939392  1
  O  O346  1  0.75568584  0.12709413  0.25964653  1
  O  O347  1  0.75941746  0.13149315  0.76315986  1
  O  O348  1  0.75993386  0.63033881  0.25010553  1
  O  O349  1  0.75920094  0.62898712  0.75541074  1
  O  O350  1  0.37091158  0.11030147  0.36749864  1
  O  O351  1  0.35948912  0.12854861  0.86705034  1
  O  O352  1  0.38159396  0.61222882  0.38202373  1
  O  O353  1  0.37522185  0.61117947  0.88535238  1
  O  O354  1  0.86053030  0.13931657  0.35879385  1
  O  O355  1  0.86877335  0.11779573  0.86850696  1
  O  O356  1  0.85849730  0.62626960  0.36819385  1
  O  O357  1  0.88028993  0.63167151  0.85428458  1
  O  O358  1  0.14055672  0.37186454  0.12545630  1
  O  O359  1  0.13026680  0.37802452  0.63412552  1
  O  O360  1  0.13094849  0.88528343  0.12179944  1
  O  O361  1  0.12781919  0.88228957  0.62960988  1
  O  O362  1  0.63620772  0.37977624  0.12935636  1
  O  O363  1  0.63196175  0.38343530  0.62741650  1
  O  O364  1  0.62938263  0.88329771  0.13108832  1
  O  O365  1  0.63528819  0.88854767  0.63297887  1
  O  O366  1  0.12156717  0.25329086  0.26095722  1
  O  O367  1  0.11814264  0.25886995  0.75405761  1
  O  O368  1  0.11280934  0.74263175  0.25419219  1
  O  O369  1  0.11726283  0.75022689  0.75750039  1
  O  O370  1  0.62206573  0.25416751  0.24782820  1
  O  O371  1  0.62045376  0.26150423  0.75437825  1
  O  O372  1  0.62299788  0.74426347  0.26734598  1
  O  O373  1  0.62254824  0.76888515  0.74914987  1
  O  O374  1  0.37325714  0.24028851  0.24290701  1
  O  O375  1  0.37726714  0.24974439  0.74232344  1
  O  O376  1  0.37344753  0.75287938  0.23955034  1
  O  O377  1  0.39884912  0.74082039  0.75252040  1
  O  O378  1  0.87016905  0.24610073  0.23439345  1
  O  O379  1  0.87630921  0.24077095  0.74274811  1
  O  O380  1  0.88997002  0.73352538  0.25820226  1
  O  O381  1  0.89115343  0.74393839  0.74075500  1
  O  O382  1  0.35745577  0.48822010  0.48377368  1
  O  O383  1  0.37983517  0.49185593  0.99730828  1
  O  O384  1  0.36780001  0.99011340  0.49213164  1
  O  O385  1  0.38757413  0.99928829  1.01012894  1
  O  O386  1  0.86998546  0.48455869  0.50518522  1
  O  O387  1  0.88529432  0.50207935  0.99988637  1
  O  O388  1  0.89134325  1.02276204  0.47589868  1
  O  O389  1  0.88893400  1.01009251  0.99034117  1
  O  O390  1  0.11565690  0.01096646  0.00872238  1
  O  O391  1  0.13797122  0.00402333  0.52066565  1
  O  O392  1  0.12139587  0.51118902  -0.00311488  1
  O  O393  1  0.14001504  0.49813860  0.51405097  1
  O  O394  1  0.61514223  0.01026124  0.00259304  1
  O  O395  1  0.62655644  -0.00040305  0.51183869  1
  O  O396  1  0.60616996  0.48478685  0.01773914  1
  O  O397  1  0.62818297  0.51072859  0.50943676  1
  O  O398  1  0.36752194  0.36938644  0.11668875  1
  O  O399  1  0.36526236  0.37581146  0.61925207  1
  O  O400  1  0.36552546  0.86445240  0.12491930  1
  O  O401  1  0.36525853  0.88113845  0.61503865  1
  O  O402  1  0.85859325  0.37032071  0.12225541  1
  O  O403  1  0.86905156  0.36610906  0.62139832  1
  O  O404  1  0.86114492  0.88782441  0.12099437  1
  O  O405  1  0.87796398  0.85406625  0.63456943  1
  O  O406  1  0.13314892  0.14725351  0.37403044  1
  O  O407  1  0.13072187  0.13211991  0.88068895  1
  O  O408  1  0.13262088  0.64322114  0.37709106  1
  O  O409  1  0.11735521  0.63153524  0.89032394  1
  O  O410  1  0.63919234  0.12402359  0.37832580  1
  O  O411  1  0.63154417  0.12762858  0.88036723  1
  O  O412  1  0.63181942  0.62987805  0.38670832  1
  O  O413  1  0.64037176  0.57760677  0.89120659  1
