# generated using pymatgen
data_V79Zn79O256
_symmetry_space_group_name_H-M   'P 1'
_cell_length_a   16.94577738
_cell_length_b   16.94528077
_cell_length_c   16.92931024
_cell_angle_alpha   90.01887222
_cell_angle_beta   89.91295350
_cell_angle_gamma   90.29124215
_symmetry_Int_Tables_number   1
_chemical_formula_structural   V79Zn79O256
_chemical_formula_sum   'V79 Zn79 O256'
_cell_volume   4861.19894994
_cell_formula_units_Z   1
loop_
 _symmetry_equiv_pos_site_id
 _symmetry_equiv_pos_as_xyz
  1  'x, y, z'
loop_
 _atom_site_type_symbol
 _atom_site_label
 _atom_site_symmetry_multiplicity
 _atom_site_fract_x
 _atom_site_fract_y
 _atom_site_fract_z
 _atom_site_occupancy
  V  V0  1  0.12686112  0.75175796  0.88842298  1
  V  V1  1  0.49345833  0.73655802  0.24897329  1
  V  V2  1  0.25425237  0.01576675  0.75309716  1
  V  V3  1  0.25908490  0.50771683  0.24528459  1
  V  V4  1  0.61708002  0.36909166  0.75294499  1
  V  V5  1  0.12021336  0.73746112  0.37884320  1
  V  V6  1  0.87899634  0.49482552  0.37220036  1
  V  V7  1  0.86713006  0.61756889  0.24783568  1
  V  V8  1  -0.00397811  0.25686786  0.25126165  1
  V  V9  1  0.86991550  0.24909575  0.61984139  1
  V  V10  1  0.24841878  0.63380882  0.88545745  1
  V  V11  1  0.88030157  0.62642631  0.74196989  1
  V  V12  1  0.64523794  0.24974962  0.37545985  1
  V  V13  1  0.49816437  0.00636791  0.01308849  1
  V  V14  1  -0.00417001  0.74539917  0.24956685  1
  V  V15  1  0.24977976  0.36644057  0.11516173  1
  V  V16  1  -0.00307991  0.62744464  0.11211671  1
  V  V17  1  0.12553717  0.00139127  0.62798257  1
  V  V18  1  0.87464993  0.00416379  0.37652761  1
  V  V19  1  0.73212466  0.61246501  0.36235009  1
  V  V20  1  0.00611354  0.12565634  0.62195827  1
  V  V21  1  0.62503313  0.74769835  0.38066446  1
  V  V22  1  0.62800301  0.86714497  0.23756470  1
  V  V23  1  0.74906465  0.73404805  0.51490803  1
  V  V24  1  0.12386312  0.24990537  0.37749762  1
  V  V25  1  0.88189107  0.37113717  0.49405896  1
  V  V26  1  0.52553045  -0.00283651  0.50745131  1
  V  V27  1  0.00482480  0.37390897  0.87933923  1
  V  V28  1  -0.00686419  0.88005069  0.87903526  1
  V  V29  1  0.25004566  0.87775515  0.11448575  1
  V  V30  1  0.52214426  0.49471020  -0.01009609  1
  V  V31  1  0.00368707  0.24854958  0.75024325  1
  V  V32  1  0.74983498  0.37239660  0.61243574  1
  V  V33  1  0.75198326  0.49641668  0.74625540  1
  V  V34  1  0.24939476  0.87495798  0.62701531  1
  V  V35  1  0.49970297  0.88046282  0.86768805  1
  V  V36  1  0.51219439  0.62754392  0.61983979  1
  V  V37  1  0.00471599  -0.00089683  0.50302082  1
  V  V38  1  0.75581650  0.00097636  0.77320863  1
  V  V39  1  0.24621820  0.50192157  0.74666024  1
  V  V40  1  0.01033954  0.12491428  0.12306132  1
  V  V41  1  0.24544934  0.23818588  0.49912778  1
  V  V42  1  -0.00250604  0.75162339  0.74842956  1
  V  V43  1  0.37857419  0.01964517  0.86757863  1
  V  V44  1  0.40005428  0.24691139  0.13574341  1
  V  V45  1  0.87245510  0.49728146  0.87044892  1
  V  V46  1  0.25093931  0.38037001  0.61363287  1
  V  V47  1  0.62628691  0.88445094  0.74421717  1
  V  V48  1  0.13713947  0.24030241  0.88757553  1
  V  V49  1  0.37892355  0.49350649  0.87823600  1
  V  V50  1  0.62672276  0.50150083  0.61136534  1
  V  V51  1  0.63885593  0.12727890  -0.01838715  1
  V  V52  1  0.49688406  0.24162794  0.75116335  1
  V  V53  1  0.86321022  0.88221665  0.00567236  1
  V  V54  1  0.37193521  0.88331404  0.49599432  1
  V  V55  1  0.00710731  0.50644951  0.50529828  1
  V  V56  1  -0.00438414  0.87067257  0.37693396  1
  V  V57  1  0.86057032  0.36728662  -0.00051537  1
  V  V58  1  0.49594765  0.87904534  0.37322331  1
  V  V59  1  0.50210835  0.75246750  0.74847209  1
  V  V60  1  0.46810926  0.49243269  0.50455403  1
  V  V61  1  0.12542370  0.87837928  0.24379390  1
  V  V62  1  0.24443001  0.73928672  0.50036506  1
  V  V63  1  0.63403604  0.01735864  0.13448732  1
  V  V64  1  0.87488961  0.12213603  0.76100611  1
  V  V65  1  0.50337001  0.61864739  0.10633358  1
  V  V66  1  0.12659794  0.37853678  0.74692373  1
  V  V67  1  0.37463159  0.74999372  0.62179204  1
  V  V68  1  0.51684158  0.36715153  0.33621613  1
  V  V69  1  0.75546667  0.88662106  0.62161454  1
  V  V70  1  0.26118073  0.62278433  0.36885988  1
  V  V71  1  0.85906276  0.25117207  0.12343377  1
  V  V72  1  0.37557464  0.62495189  0.74402523  1
  V  V73  1  0.87252828  0.12490700  0.25243610  1
  V  V74  1  0.12774052  0.87727410  0.76016181  1
  V  V75  1  0.12209474  0.50974010  0.11382582  1
  V  V76  1  0.12045266  0.38135203  0.24766354  1
  V  V77  1  0.00850440  0.00402569  0.00326223  1
  V  V78  1  0.85881402  0.75639663  0.12605671  1
  Zn  Zn79  1  0.88012372  0.86247763  0.51267546  1
  Zn  Zn80  1  0.01086924  0.63186050  0.62028505  1
  Zn  Zn81  1  0.73350317  0.61756910  0.88438665  1
  Zn  Zn82  1  0.68518511  0.69317052  0.05437517  1
  Zn  Zn83  1  0.36252011  0.87080386  -0.00702963  1
  Zn  Zn84  1  0.48589330  0.12068686  0.61971527  1
  Zn  Zn85  1  0.75612589  -0.00760138  0.25387052  1
  Zn  Zn86  1  0.37999843  0.11734031  0.26486789  1
  Zn  Zn87  1  0.30237434  0.18608688  0.95928262  1
  Zn  Zn88  1  0.38271462  0.36693667  -0.00499338  1
  Zn  Zn89  1  0.62715698  0.74192521  0.88378045  1
  Zn  Zn90  1  0.36396785  0.74299846  0.12029174  1
  Zn  Zn91  1  -0.00027760  0.50548895  -0.00576155  1
  Zn  Zn92  1  0.38006300  0.24718936  0.61756557  1
  Zn  Zn93  1  0.26524449  0.00034168  0.27425054  1
  Zn  Zn94  1  0.18870824  0.19062126  0.19992016  1
  Zn  Zn95  1  0.18613730  0.19419363  0.68750021  1
  Zn  Zn96  1  0.18391047  0.69098450  0.18301406  1
  Zn  Zn97  1  0.18517244  0.69102014  0.69436674  1
  Zn  Zn98  1  0.68310768  0.19432669  0.21624735  1
  Zn  Zn99  1  0.69043294  0.18828966  0.79095912  1
  Zn  Zn100  1  0.66821896  0.56035682  0.19755078  1
  Zn  Zn101  1  0.69778943  0.69515192  0.71516132  1
  Zn  Zn102  1  0.34468110  0.27165382  0.34483567  1
  Zn  Zn103  1  0.31399018  0.30896163  0.80650831  1
  Zn  Zn104  1  0.31175258  0.80801006  0.31296297  1
  Zn  Zn105  1  0.31414445  0.81695309  0.81285549  1
  Zn  Zn106  1  0.80025387  0.30363584  0.32272540  1
  Zn  Zn107  1  0.81759405  0.31411967  0.80384758  1
  Zn  Zn108  1  0.80748738  0.80559306  0.31489988  1
  Zn  Zn109  1  0.81196875  0.81077954  0.81681683  1
  Zn  Zn110  1  0.18777603  0.43702426  0.42520643  1
  Zn  Zn111  1  0.18915518  0.44073884  0.93468876  1
  Zn  Zn112  1  0.18788197  0.92643291  0.43884861  1
  Zn  Zn113  1  0.21712432  1.00500813  0.97209980  1
  Zn  Zn114  1  0.66932416  0.45733829  0.40593430  1
  Zn  Zn115  1  0.68040325  0.30681611  0.92890818  1
  Zn  Zn116  1  0.69167824  0.92627952  0.43471962  1
  Zn  Zn117  1  0.65257919  0.89176163  0.97874448  1
  Zn  Zn118  1  0.28963672  0.08424728  0.11909520  1
  Zn  Zn119  1  0.30923742  0.06858488  0.55793778  1
  Zn  Zn120  1  0.31803242  0.56410705  0.06437416  1
  Zn  Zn121  1  0.18233125  0.56118119  0.56143315  1
  Zn  Zn122  1  0.81629396  0.06376081  0.06304003  1
  Zn  Zn123  1  0.82439615  0.05875899  0.56732111  1
  Zn  Zn124  1  0.81006022  0.55236869  0.05806770  1
  Zn  Zn125  1  0.81714077  0.55814551  0.55921942  1
  Zn  Zn126  1  0.43583746  0.43804733  0.17733093  1
  Zn  Zn127  1  0.43730317  0.43364767  0.67614143  1
  Zn  Zn128  1  0.43147266  0.93411364  0.19117396  1
  Zn  Zn129  1  0.43349961  0.94270948  0.68307183  1
  Zn  Zn130  1  0.93367375  0.43882760  0.17989777  1
  Zn  Zn131  1  0.94237925  0.43595950  0.68349935  1
  Zn  Zn132  1  0.94140305  0.93986712  0.18674215  1
  Zn  Zn133  1  0.93556890  0.93676848  0.69184685  1
  Zn  Zn134  1  0.10312108  0.04310290  0.34327130  1
  Zn  Zn135  1  0.06121437  0.06257878  0.81539033  1
  Zn  Zn136  1  0.05814949  0.55911594  0.30809046  1
  Zn  Zn137  1  0.06320995  0.56715020  0.81454973  1
  Zn  Zn138  1  0.56600097  0.06195595  0.31438775  1
  Zn  Zn139  1  0.56394769  0.06242463  0.80472839  1
  Zn  Zn140  1  0.53886721  0.54599880  0.31355290  1
  Zn  Zn141  1  0.56603887  0.55806512  0.80468756  1
  Zn  Zn142  1  0.47858188  0.17743493  0.41424038  1
  Zn  Zn143  1  0.48430710  0.21499930  0.95926500  1
  Zn  Zn144  1  0.43757373  0.68604777  0.44025325  1
  Zn  Zn145  1  0.43506606  0.68837354  0.93282305  1
  Zn  Zn146  1  0.94618674  0.18761101  0.43564879  1
  Zn  Zn147  1  0.94174536  0.19074822  0.94110498  1
  Zn  Zn148  1  0.92711275  0.68111677  0.43727432  1
  Zn  Zn149  1  0.88357407  0.67703277  0.95362363  1
  Zn  Zn150  1  0.05928213  0.31214184  0.06493174  1
  Zn  Zn151  1  0.06009547  0.31899746  0.56200513  1
  Zn  Zn152  1  0.05396837  0.81450464  0.06313907  1
  Zn  Zn153  1  0.06604739  0.81414475  0.56556210  1
  Zn  Zn154  1  0.57679553  0.32405174  0.07023806  1
  Zn  Zn155  1  0.55381266  0.30638291  0.54866871  1
  Zn  Zn156  1  0.52402149  0.79754598  0.04426014  1
  Zn  Zn157  1  0.56680504  0.81569200  0.56309917  1
  O  O158  1  0.10789489  0.13765682  0.12983468  1
  O  O159  1  0.11237044  0.11873320  0.63367390  1
  O  O160  1  0.10837296  0.62192329  0.12727260  1
  O  O161  1  0.12377333  0.62511830  0.63044322  1
  O  O162  1  0.62502137  0.11729487  0.14439375  1
  O  O163  1  0.67413342  0.14092147  0.57075802  1
  O  O164  1  0.61257418  0.62505770  0.12208913  1
  O  O165  1  0.61634306  0.61800551  0.63877654  1
  O  O166  1  0.42405421  0.34822602  0.37366913  1
  O  O167  1  0.36782245  0.39115676  0.87424263  1
  O  O168  1  0.38498051  0.86452567  0.38477075  1
  O  O169  1  0.38906797  0.88098560  0.87500306  1
  O  O170  1  0.86355492  0.38175252  0.38094980  1
  O  O171  1  0.88552877  0.37769963  0.87932647  1
  O  O172  1  0.88777054  0.87915039  0.37055952  1
  O  O173  1  0.88386194  0.86649086  0.89029417  1
  O  O174  1  0.20927311  0.00941609  0.37092932  1
  O  O175  1  0.27152667  -0.00166722  0.86825845  1
  O  O176  1  0.24232524  0.50881251  0.35439822  1
  O  O177  1  0.25991731  0.51304194  0.86763445  1
  O  O178  1  0.77064742  -0.00995742  0.37815052  1
  O  O179  1  0.75621883  -0.00513653  0.86814137  1
  O  O180  1  0.76896845  0.51387443  0.39583990  1
  O  O181  1  0.76429144  0.49463086  0.85912642  1
  O  O182  1  0.23908354  0.50895044  0.12953066  1
  O  O183  1  0.24454994  0.49015759  0.63570110  1
  O  O184  1  0.24522364  0.97463813  0.14629089  1
  O  O185  1  0.24461467  0.99391808  0.63359014  1
  O  O186  1  0.74437799  0.49224683  0.13745639  1
  O  O187  1  0.74667805  0.49236903  0.62806324  1
  O  O188  1  0.73604111  1.00404713  0.13229987  1
  O  O189  1  0.75168334  0.98703974  0.62080902  1
  O  O190  1  0.00727546  0.36639298  0.23269494  1
  O  O191  1  0.00747673  0.37090786  0.75801120  1
  O  O192  1  0.00236785  0.86088392  0.25495652  1
  O  O193  1  0.00604512  0.87384359  0.75897927  1
  O  O194  1  0.51497224  0.43778879  0.25648769  1
  O  O195  1  0.51287995  0.36882799  0.73740409  1
  O  O196  1  0.50750635  0.86751989  0.25756494  1
  O  O197  1  0.50479958  0.87360208  0.74923473  1
  O  O198  1  0.48568630  0.13855813  0.30125364  1
  O  O199  1  0.51645420  0.13711048  0.73581559  1
  O  O200  1  0.50143880  0.63400130  0.25048867  1
  O  O201  1  0.49309599  0.63461003  0.74343305  1
  O  O202  1  0.98957883  0.14062833  0.23614394  1
  O  O203  1  0.99426019  0.12701105  0.74072400  1
  O  O204  1  0.98785249  0.63210809  0.24325484  1
  O  O205  1  0.99649902  0.63499234  0.75183724  1
  O  O206  1  0.38706307  0.25037706  0.01055329  1
  O  O207  1  0.34371096  0.25602242  0.50146961  1
  O  O208  1  0.41253218  0.76820099  0.01076910  1
  O  O209  1  0.36346509  0.75549654  0.50436490  1
  O  O210  1  0.87805989  0.26105892  0.00594114  1
  O  O211  1  0.89010721  0.25819177  0.50829278  1
  O  O212  1  0.87955497  0.77021732  0.01449178  1
  O  O213  1  0.85384339  0.75003424  0.49247556  1
  O  O214  1  0.12111946  0.26290975  0.48290152  1
  O  O215  1  0.12160064  0.25541592  0.98542475  1
  O  O216  1  0.13354809  0.75746659  0.49058816  1
  O  O217  1  0.11883024  0.75639708  0.98730007  1
  O  O218  1  0.56916895  0.23712717  0.45564259  1
  O  O219  1  0.61075711  0.23688650  0.99548818  1
  O  O220  1  0.64053186  0.76067483  0.49278372  1
  O  O221  1  0.62651900  0.77402550  0.99696602  1
  O  O222  1  0.49775022  0.27215862  0.13353274  1
  O  O223  1  0.49970469  0.24304029  0.62831217  1
  O  O224  1  0.50523638  0.73738016  0.14127138  1
  O  O225  1  0.49530496  0.74659719  0.62772033  1
  O  O226  1  0.98919268  0.24379800  0.12949831  1
  O  O227  1  0.99865325  0.24278236  0.62989782  1
  O  O228  1  0.99092650  0.74374681  0.13455606  1
  O  O229  1  1.00582359  0.75490000  0.64331179  1
  O  O230  1  0.00625889  0.25544285  0.36066215  1
  O  O231  1  0.00957501  0.25903450  0.86956436  1
  O  O232  1  -0.00041970  0.75035230  0.37030469  1
  O  O233  1  0.01138361  0.76454024  0.86498926  1
  O  O234  1  0.54329637  0.28256236  0.29219032  1
  O  O235  1  0.50531011  0.24510571  0.85185472  1
  O  O236  1  0.50478531  0.75492630  0.37022614  1
  O  O237  1  0.49834255  0.76170927  0.86074805  1
  O  O238  1  0.23373291  0.13953778  0.50687347  1
  O  O239  1  0.25754470  0.10135174  1.01447779  1
  O  O240  1  0.24375803  0.63439853  0.48875641  1
  O  O241  1  0.26001668  0.62646649  0.98336923  1
  O  O242  1  0.72491413  0.12221905  0.52025472  1
  O  O243  1  0.73484153  0.12482891  1.00694476  1
  O  O244  1  0.74916890  0.63231019  0.49874037  1
  O  O245  1  0.76950408  0.63610633  0.99367905  1
  O  O246  1  0.25249940  0.38565805  0.01273706  1
  O  O247  1  0.23802373  0.38330493  0.51309677  1
  O  O248  1  0.24659740  0.89193126  0.01151919  1
  O  O249  1  0.25427507  0.86206578  0.50512206  1
  O  O250  1  0.76255767  0.36897234  -0.01255927  1
  O  O251  1  0.76719607  0.38252288  0.51102553  1
  O  O252  1  0.76488915  0.88631685  -0.00268625  1
  O  O253  1  0.75397101  0.86592862  0.51409716  1
  O  O254  1  0.12104823  0.49640582  0.23405544  1
  O  O255  1  0.13721603  0.49180696  0.76372146  1
  O  O256  1  0.10442089  0.97572040  0.24789867  1
  O  O257  1  0.13307915  0.99372901  0.74958741  1
  O  O258  1  0.65493903  0.52956975  0.30586830  1
  O  O259  1  0.63282333  0.48791809  0.73648878  1
  O  O260  1  0.62212534  0.98836135  0.24402667  1
  O  O261  1  0.64233718  0.99367486  0.75269253  1
  O  O262  1  0.37786592  0.00092742  0.26008490  1
  O  O263  1  0.36984007  0.00182947  0.75913066  1
  O  O264  1  0.35644522  0.50274649  0.23735825  1
  O  O265  1  0.36914780  0.50664002  0.75696461  1
  O  O266  1  0.88031679  0.00628096  0.25935318  1
  O  O267  1  0.86433323  0.00759204  0.74726303  1
  O  O268  1  0.87967006  0.50704762  0.25626606  1
  O  O269  1  0.87333453  0.49997383  0.75293052  1
  O  O270  1  0.12514335  0.37226356  0.35352857  1
  O  O271  1  0.12138058  0.36958201  0.86833128  1
  O  O272  1  0.10902014  0.85974715  0.36695650  1
  O  O273  1  0.11967332  0.87103881  0.86588241  1
  O  O274  1  0.60925435  0.36598277  0.39653109  1
  O  O275  1  0.62643520  0.37725105  0.85173939  1
  O  O276  1  0.61576797  0.86556551  0.36950507  1
  O  O277  1  0.61346107  0.87451689  0.85872372  1
  O  O278  1  0.39528388  0.14448594  0.13324195  1
  O  O279  1  0.37178842  0.13177695  0.62324210  1
  O  O280  1  0.39569495  0.62962255  0.11808870  1
  O  O281  1  0.38488657  0.63178294  0.63833033  1
  O  O282  1  0.88045453  0.13440427  0.13202226  1
  O  O283  1  0.88613727  0.13190714  0.63069797  1
  O  O284  1  0.87773256  0.63026569  0.13285796  1
  O  O285  1  0.88435465  0.61614701  0.63866156  1
  O  O286  1  0.24371618  0.26674723  0.12149085  1
  O  O287  1  0.23391041  0.26613860  0.61187475  1
  O  O288  1  0.25067851  0.76632742  0.13158919  1
  O  O289  1  0.25371389  0.75422122  0.61878286  1
  O  O290  1  0.76078004  0.24479039  0.12997992  1
  O  O291  1  0.76805377  0.25872332  0.62696842  1
  O  O292  1  0.76055346  0.74659072  0.12988663  1
  O  O293  1  0.74450118  0.74787835  0.61694936  1
  O  O294  1  0.23374273  0.26250995  0.38717639  1
  O  O295  1  0.24442118  0.25023141  0.87925571  1
  O  O296  1  0.23985482  0.74161305  0.38022730  1
  O  O297  1  0.24674293  0.74089360  0.87047237  1
  O  O298  1  0.73438898  0.25274599  0.42062536  1
  O  O299  1  0.75030351  0.24928974  0.86335839  1
  O  O300  1  0.74087790  0.73455385  0.37886671  1
  O  O301  1  0.73397012  0.73231902  0.83332041  1
  O  O302  1  -0.00772899  0.11970623  0.01412064  1
  O  O303  1  -0.00212370  0.11277630  0.51106736  1
  O  O304  1  -0.01983394  0.62750711  0.01008724  1
  O  O305  1  -0.00845642  0.61192269  0.50183957  1
  O  O306  1  0.51999308  0.10889026  -0.00717650  1
  O  O307  1  0.50264714  0.09666655  0.49803895  1
  O  O308  1  0.50539406  0.61947374  0.00182439  1
  O  O309  1  0.49216496  0.61775846  0.51543496  1
  O  O310  1  0.48467969  0.39539603  0.53291463  1
  O  O311  1  0.50337677  0.39115052  1.00311697  1
  O  O312  1  0.49231755  0.88050057  0.49626828  1
  O  O313  1  0.52338120  0.90087219  0.98218968  1
  O  O314  1  0.98989108  0.38758435  0.49991025  1
  O  O315  1  0.99495335  0.37636313  0.98732405  1
  O  O316  1  0.99623357  0.87665542  0.49449852  1
  O  O317  1  0.99316681  0.88509929  0.99585913  1
  O  O318  1  0.50145728  0.49356717  0.40594935  1
  O  O319  1  0.48735525  0.50665993  0.87933063  1
  O  O320  1  0.51213882  0.98326951  0.38915436  1
  O  O321  1  0.49142697  0.99652561  0.86524563  1
  O  O322  1  0.98603276  0.50603482  0.38271066  1
  O  O323  1  0.99325646  0.49122265  0.87304915  1
  O  O324  1  1.00040198  0.98924775  0.38613282  1
  O  O325  1  1.00240742  0.98803516  0.88236289  1
  O  O326  1  -0.00262078  0.01760379  0.12181373  1
  O  O327  1  0.00309946  0.00506791  0.62207439  1
  O  O328  1  0.00355446  0.51085792  0.11875952  1
  O  O329  1  0.00202912  0.49994701  0.60882167  1
  O  O330  1  0.50595881  -0.00495208  0.11501071  1
  O  O331  1  0.50361546  -0.00413636  0.61183419  1
  O  O332  1  0.49823815  0.51167766  0.10415459  1
  O  O333  1  0.50739186  0.51195369  0.62285296  1
  O  O334  1  0.23660204  0.39582324  0.22930455  1
  O  O335  1  0.24320212  0.38321996  0.74553192  1
  O  O336  1  0.22963020  0.87038999  0.25989349  1
  O  O337  1  0.24378726  0.88235823  0.74687497  1
  O  O338  1  0.71643306  0.41302227  0.12055865  1
  O  O339  1  0.74710050  0.38222413  0.73468723  1
  O  O340  1  0.73190454  0.87342952  0.25819270  1
  O  O341  1  0.74789236  0.88634603  0.74339252  1
  O  O342  1  0.26409938  0.11483624  0.22876958  1
  O  O343  1  0.24335553  0.11417628  0.74734939  1
  O  O344  1  0.24223703  0.61641861  0.25298247  1
  O  O345  1  0.25948384  0.61900300  0.75435133  1
  O  O346  1  0.77085559  0.11845957  0.24918937  1
  O  O347  1  0.75887255  0.10802521  0.74787230  1
  O  O348  1  0.75894105  0.62672590  0.25281501  1
  O  O349  1  0.76285681  0.60452152  0.74205271  1
  O  O350  1  0.37268972  0.16306150  0.37430492  1
  O  O351  1  0.38106507  0.11680167  0.88022285  1
  O  O352  1  0.36003874  0.63167827  0.37343331  1
  O  O353  1  0.36729356  0.62260911  0.86331079  1
  O  O354  1  0.88931608  0.11367997  0.36758938  1
  O  O355  1  0.88577537  0.13213340  0.85930924  1
  O  O356  1  0.86363447  0.61733678  0.36219277  1
  O  O357  1  0.87646027  0.60882892  0.86213155  1
  O  O358  1  0.13195142  0.38555331  0.12502235  1
  O  O359  1  0.12877026  0.37478281  0.64044933  1
  O  O360  1  0.12978872  0.86294429  0.13818987  1
  O  O361  1  0.12994827  0.88077893  0.63971134  1
  O  O362  1  0.63940159  0.40499023  0.13505726  1
  O  O363  1  0.63650094  0.38138472  0.62280608  1
  O  O364  1  0.61960344  0.88139758  0.13811658  1
  O  O365  1  0.64060244  0.87085805  0.63623016  1
  O  O366  1  0.11735853  0.26251545  0.25398428  1
  O  O367  1  0.12342706  0.26078370  0.76162501  1
  O  O368  1  0.11021780  0.75245794  0.25852126  1
  O  O369  1  0.12076593  0.76201101  0.76035510  1
  O  O370  1  0.69672654  0.29085730  0.27829143  1
  O  O371  1  0.61973131  0.26350209  0.73875241  1
  O  O372  1  0.61147883  0.76137347  0.25962403  1
  O  O373  1  0.60717807  0.76264288  0.74186107  1
  O  O374  1  0.36638250  0.26488720  0.22962075  1
  O  O375  1  0.39264074  0.25686702  0.74384014  1
  O  O376  1  0.39176559  0.75519933  0.24896053  1
  O  O377  1  0.38291952  0.74688533  0.74355693  1
  O  O378  1  0.87832107  0.24811429  0.24630341  1
  O  O379  1  0.88533376  0.24333717  0.73824875  1
  O  O380  1  0.88008088  0.74260122  0.24628233  1
  O  O381  1  0.88699208  0.73830954  0.75929103  1
  O  O382  1  0.37237229  0.50400934  0.50753076  1
  O  O383  1  0.37727350  0.50199211  0.98284977  1
  O  O384  1  0.36457845  0.98319541  0.50037602  1
  O  O385  1  0.39666883  0.99424057  0.98564821  1
  O  O386  1  0.88737152  0.49112670  0.49355815  1
  O  O387  1  0.87578059  0.48438017  0.98878341  1
  O  O388  1  0.88844443  0.99425183  0.49427230  1
  O  O389  1  0.88579961  0.98833790  1.00913850  1
  O  O390  1  0.10760605  -0.00003886  0.00128896  1
  O  O391  1  0.11089985  -0.01467515  0.51213449  1
  O  O392  1  0.12105744  0.50084287  0.00882679  1
  O  O393  1  0.11141987  0.49933520  0.48930831  1
  O  O394  1  0.62363498  0.01276194  0.01834167  1
  O  O395  1  0.62448362  -0.01055666  0.50354793  1
  O  O396  1  0.61731921  0.49825280  -0.01316819  1
  O  O397  1  0.63169212  0.50353191  0.51245829  1
  O  O398  1  0.36213215  0.37276504  0.11757194  1
  O  O399  1  0.35149478  0.36972291  0.63148897  1
  O  O400  1  0.36056680  0.87227212  0.12187531  1
  O  O401  1  0.36847810  0.86860704  0.61729127  1
  O  O402  1  0.87529928  0.36984348  0.10678118  1
  O  O403  1  0.87331304  0.36754126  0.61727399  1
  O  O404  1  0.87816074  0.87009284  0.11798404  1
  O  O405  1  0.86017288  0.87178139  0.63138310  1
  O  O406  1  0.11833738  0.15177136  0.36555875  1
  O  O407  1  0.12092007  0.14150833  0.87327054  1
  O  O408  1  0.12627972  0.63491697  0.36821184  1
  O  O409  1  0.14126542  0.63415595  0.87097737  1
  O  O410  1  0.63751732  0.15304412  0.33327235  1
  O  O411  1  0.63524133  0.11933754  0.87976236  1
  O  O412  1  0.62424290  0.64312175  0.38402383  1
  O  O413  1  0.62151334  0.62726349  0.87025100  1
