# generated using pymatgen
data_V79Zn79O256
_symmetry_space_group_name_H-M   'P 1'
_cell_length_a   16.87323489
_cell_length_b   16.89016687
_cell_length_c   16.89609017
_cell_angle_alpha   89.89394784
_cell_angle_beta   89.96233051
_cell_angle_gamma   90.08015052
_symmetry_Int_Tables_number   1
_chemical_formula_structural   V79Zn79O256
_chemical_formula_sum   'V79 Zn79 O256'
_cell_volume   4815.23234510
_cell_formula_units_Z   1
loop_
 _symmetry_equiv_pos_site_id
 _symmetry_equiv_pos_as_xyz
  1  'x, y, z'
loop_
 _atom_site_type_symbol
 _atom_site_label
 _atom_site_symmetry_multiplicity
 _atom_site_fract_x
 _atom_site_fract_y
 _atom_site_fract_z
 _atom_site_occupancy
  V  V0  1  0.25103486  0.13273719  0.87713669  1
  V  V1  1  0.12398796  0.61577772  0.48847809  1
  V  V2  1  0.49870904  0.75023663  0.74950427  1
  V  V3  1  0.51462486  0.87257471  0.36357515  1
  V  V4  1  -0.00353192  0.75258847  0.25982836  1
  V  V5  1  0.36091425  0.49856804  0.86919055  1
  V  V6  1  0.13829436  0.62593731  -0.00604532  1
  V  V7  1  0.61960953  0.50414308  0.61670462  1
  V  V8  1  0.49843709  0.62658127  0.61899188  1
  V  V9  1  0.50140486  0.24452001  0.73644432  1
  V  V10  1  -0.00845070  0.38536051  0.37809600  1
  V  V11  1  -0.01441682  0.36915399  0.86029280  1
  V  V12  1  0.49992544  -0.00221425  0.00854456  1
  V  V13  1  0.00300276  0.11987569  0.12805044  1
  V  V14  1  0.63624899  0.13284762  0.49528343  1
  V  V15  1  0.49508544  0.12536117  0.13683843  1
  V  V16  1  0.87836582  0.74052933  0.13051780  1
  V  V17  1  0.36187247  0.62122221  0.75239810  1
  V  V18  1  0.61186706  0.62468616  0.00473877  1
  V  V19  1  0.36923419  0.87895805  0.50118285  1
  V  V20  1  0.38384276  0.62130095  0.26411674  1
  V  V21  1  0.36812628  0.75551623  0.62545323  1
  V  V22  1  0.38690926  0.38080246  0.49448039  1
  V  V23  1  0.62158358  0.00803531  0.62760052  1
  V  V24  1  0.24630173  0.37172620  0.11987876  1
  V  V25  1  0.12971522  0.13293345  0.00137665  1
  V  V26  1  0.87691942  0.87389407  0.00830790  1
  V  V27  1  0.00070800  0.24441520  0.25939263  1
  V  V28  1  0.87499623  0.75033426  0.62727147  1
  V  V29  1  0.61461583  0.25514029  0.88038260  1
  V  V30  1  0.62362178  0.87380727  0.75202510  1
  V  V31  1  -0.01466287  -0.00125148  0.50623037  1
  V  V32  1  0.24717020  0.74882611  0.49886151  1
  V  V33  1  0.73967948  0.73451162  0.49474852  1
  V  V34  1  0.87241514  0.61914005  0.75518585  1
  V  V35  1  -0.00625606  0.50020442  -0.00504199  1
  V  V36  1  0.35895428  0.13000088  0.25752007  1
  V  V37  1  0.49716133  0.49455202  -0.00457576  1
  V  V38  1  0.87718876  -0.00164906  0.35872830  1
  V  V39  1  0.74282825  0.49882903  0.75152005  1
  V  V40  1  0.37743894  0.73961512  0.13217038  1
  V  V41  1  0.36402720  0.00199463  0.36794692  1
  V  V42  1  0.74839738  0.25060387  0.01145144  1
  V  V43  1  0.62143110  0.12030510  0.00575346  1
  V  V44  1  0.13019224  0.50307071  0.63801542  1
  V  V45  1  0.50036438  0.00738377  0.50187412  1
  V  V46  1  0.25066193  0.50770230  0.25874569  1
  V  V47  1  0.37043686  0.24951939  0.12596621  1
  V  V48  1  0.74695619  0.74946598  0.00239265  1
  V  V49  1  0.00156475  0.74896818  0.75532154  1
  V  V50  1  0.37315734  0.36939498  -0.00418492  1
  V  V51  1  0.75297109  0.12526433  0.87671884  1
  V  V52  1  0.36285067  0.86741781  0.00378076  1
  V  V53  1  0.13993357  0.36519337  0.74807384  1
  V  V54  1  0.24251355  0.87995738  0.14455637  1
  V  V55  1  0.24818400  0.24885802  0.48698742  1
  V  V56  1  0.00841647  0.87148681  0.87575360  1
  V  V57  1  0.76183822  0.14045751  0.37043274  1
  V  V58  1  0.12871620  0.76349555  0.36879294  1
  V  V59  1  0.13002796  -0.00274461  0.62576349  1
  V  V60  1  0.75227787  0.00122958  0.75111738  1
  V  V61  1  0.73913564  0.88246038  0.13230303  1
  V  V62  1  0.75191807  0.87633142  0.62248827  1
  V  V63  1  0.62075144  0.74940863  0.87571260  1
  V  V64  1  0.74914246  0.62111266  0.87758177  1
  V  V65  1  0.75920419  0.50778323  0.25408507  1
  V  V66  1  0.00975386  -0.00168500  0.00715273  1
  V  V67  1  -0.00752811  0.13611334  0.64519761  1
  V  V68  1  0.12648494  0.37175538  0.25631678  1
  V  V69  1  0.50142894  0.36746743  0.35749641  1
  V  V70  1  0.25211835  -0.00334931  0.74546641  1
  V  V71  1  0.87725966  0.00139270  0.87435970  1
  V  V72  1  0.63121614  0.35424926  0.24327919  1
  V  V73  1  0.87611588  0.24465765  0.12824393  1
  V  V74  1  0.61387955  0.38144882  0.75751301  1
  V  V75  1  0.12502182  0.13065859  0.49303800  1
  V  V76  1  0.62646510  0.49529697  0.12589350  1
  V  V77  1  0.87159714  0.37296229  0.00158724  1
  V  V78  1  0.37609894  0.00303881  0.87727027  1
  Zn  Zn79  1  0.49424115  0.51282817  0.48408683  1
  Zn  Zn80  1  0.12487190  0.50111705  0.12310885  1
  Zn  Zn81  1  0.16011956  0.73330894  0.87235423  1
  Zn  Zn82  1  0.13423518  0.86826234  0.74404100  1
  Zn  Zn83  1  0.72647001  -0.00775711  0.25901664  1
  Zn  Zn84  1  0.26011045  0.37369349  0.62285992  1
  Zn  Zn85  1  -0.02807882  0.48442692  0.51004202  1
  Zn  Zn86  1  0.12019711  0.24763632  0.87043950  1
  Zn  Zn87  1  0.50016045  0.87450959  0.87981441  1
  Zn  Zn88  1  -0.00032330  0.62160872  0.62653230  1
  Zn  Zn89  1  0.37634618  0.24254157  0.61653760  1
  Zn  Zn90  1  -0.00117991  0.61610478  0.13092168  1
  Zn  Zn91  1  0.82133965  0.35257005  0.52692020  1
  Zn  Zn92  1  0.38336733  0.12040200  0.73571986  1
  Zn  Zn93  1  0.87991208  0.86806124  0.48799767  1
  Zn  Zn94  1  0.18183377  0.18347643  0.19090793  1
  Zn  Zn95  1  0.19379158  0.18322284  0.67956453  1
  Zn  Zn96  1  0.19006667  0.69063523  0.17717793  1
  Zn  Zn97  1  0.18649978  0.68909718  0.68585943  1
  Zn  Zn98  1  0.67115925  0.15089634  0.20756839  1
  Zn  Zn99  1  0.68393075  0.18831392  0.69427128  1
  Zn  Zn100  1  0.69260690  0.68104518  0.18285387  1
  Zn  Zn101  1  0.68634051  0.68649519  0.68390614  1
  Zn  Zn102  1  0.31401250  0.31658972  0.31256171  1
  Zn  Zn103  1  0.32041320  0.31089715  0.81201616  1
  Zn  Zn104  1  0.31726005  0.80967065  0.31493220  1
  Zn  Zn105  1  0.31472206  0.81458380  0.81419001  1
  Zn  Zn106  1  0.81483004  0.32201752  0.30826394  1
  Zn  Zn107  1  0.80235335  0.31147655  0.81059273  1
  Zn  Zn108  1  0.81019359  0.81424163  0.31374547  1
  Zn  Zn109  1  0.81308151  0.81242651  0.81623147  1
  Zn  Zn110  1  0.18896337  0.43306791  0.43693222  1
  Zn  Zn111  1  0.18144310  0.43696047  0.93483646  1
  Zn  Zn112  1  0.18257611  0.94152185  0.43761718  1
  Zn  Zn113  1  0.18965184  0.94027571  0.93581807  1
  Zn  Zn114  1  0.68668669  0.43454496  0.42314700  1
  Zn  Zn115  1  0.68773990  0.43660054  0.93971756  1
  Zn  Zn116  1  0.69383184  0.94279593  0.44058514  1
  Zn  Zn117  1  0.68670845  0.93576269  0.94187711  1
  Zn  Zn118  1  0.30818662  0.05877956  0.06673092  1
  Zn  Zn119  1  0.31288574  0.06881857  0.56069985  1
  Zn  Zn120  1  0.31264225  0.55543147  0.06593323  1
  Zn  Zn121  1  0.30888148  0.56302845  0.56221419  1
  Zn  Zn122  1  0.81661112  0.06098620  0.06476935  1
  Zn  Zn123  1  0.82037788  0.17774860  0.57069600  1
  Zn  Zn124  1  0.80804779  0.55728715  0.06355088  1
  Zn  Zn125  1  0.81185779  0.54961642  0.56364752  1
  Zn  Zn126  1  0.43727016  0.44337516  0.18199979  1
  Zn  Zn127  1  0.43894940  0.43280862  0.68567992  1
  Zn  Zn128  1  0.43333008  0.93683962  0.18870403  1
  Zn  Zn129  1  0.43852534  0.93816153  0.68728347  1
  Zn  Zn130  1  0.93865548  0.43067344  0.18396699  1
  Zn  Zn131  1  0.92965675  0.43807204  0.67549791  1
  Zn  Zn132  1  1.07373481  0.93577645  0.19609227  1
  Zn  Zn133  1  0.94037536  0.94079386  0.68713613  1
  Zn  Zn134  1  0.05828369  0.05915376  0.32041195  1
  Zn  Zn135  1  0.06813838  0.05953967  0.81457869  1
  Zn  Zn136  1  0.06182019  0.56514263  0.30662539  1
  Zn  Zn137  1  0.05931326  0.55661085  0.81722277  1
  Zn  Zn138  1  0.56083661  0.05736390  0.31894730  1
  Zn  Zn139  1  0.56369200  0.06398498  0.81818317  1
  Zn  Zn140  1  0.55997772  0.55480349  0.30681994  1
  Zn  Zn141  1  0.55170044  0.56630097  0.81530471  1
  Zn  Zn142  1  0.44164619  0.19096664  0.43613000  1
  Zn  Zn143  1  0.43429163  0.18698229  0.94271981  1
  Zn  Zn144  1  0.43940913  0.69399741  0.43430485  1
  Zn  Zn145  1  0.42391164  0.68742447  0.93419068  1
  Zn  Zn146  1  0.93785286  0.19004603  0.44550636  1
  Zn  Zn147  1  0.94075968  0.18795198  0.93818842  1
  Zn  Zn148  1  0.94148218  0.68857164  0.44200728  1
  Zn  Zn149  1  0.93576523  0.68645613  0.93877694  1
  Zn  Zn150  1  0.05967971  0.31185194  0.06194927  1
  Zn  Zn151  1  0.05924573  0.31039871  0.56501514  1
  Zn  Zn152  1  0.06834686  0.80376957  0.06039947  1
  Zn  Zn153  1  0.06318430  0.81396872  0.56169903  1
  Zn  Zn154  1  0.55598999  0.30974867  0.06585645  1
  Zn  Zn155  1  0.60609992  0.33412989  0.54430294  1
  Zn  Zn156  1  0.55564174  0.81027752  0.06899842  1
  Zn  Zn157  1  0.56061585  0.81676020  0.55709690  1
  O  O158  1  0.11352971  0.12999734  0.11514837  1
  O  O159  1  0.11819257  0.11411309  0.62118570  1
  O  O160  1  0.11907130  0.62357652  0.10843335  1
  O  O161  1  0.12565171  0.61266886  0.62242346  1
  O  O162  1  0.61015285  0.13809400  0.10858884  1
  O  O163  1  0.63678483  0.11389010  0.61819967  1
  O  O164  1  0.62671841  0.61384458  0.11283156  1
  O  O165  1  0.60874253  0.61669954  0.63544151  1
  O  O166  1  0.38644184  0.37581082  0.38288702  1
  O  O167  1  0.37027286  0.38498052  0.88441190  1
  O  O168  1  0.38107711  0.88720085  0.38126546  1
  O  O169  1  0.37802404  0.88561660  0.88893764  1
  O  O170  1  0.89035974  0.37567181  0.37746809  1
  O  O171  1  0.87983264  0.36617152  0.88121009  1
  O  O172  1  0.87293142  0.89187358  0.37525860  1
  O  O173  1  0.88171415  0.88047248  0.88721051  1
  O  O174  1  0.26587615  -0.00059807  0.38231961  1
  O  O175  1  0.25897842  0.00760533  0.86839066  1
  O  O176  1  0.24778915  0.49478173  0.35773299  1
  O  O177  1  0.26172223  0.49725072  0.87526768  1
  O  O178  1  0.76378297  0.00543345  0.37229488  1
  O  O179  1  0.75659309  0.00377494  0.87292087  1
  O  O180  1  0.73777392  0.50374829  0.35394453  1
  O  O181  1  0.74203779  0.51337999  0.86920845  1
  O  O182  1  0.24760015  0.48517566  0.13323829  1
  O  O183  1  0.23376667  0.49186888  0.61897241  1
  O  O184  1  0.25319129  0.97966468  0.12464989  1
  O  O185  1  0.24373005  1.00842833  0.63442610  1
  O  O186  1  0.73260285  0.49436406  0.12356194  1
  O  O187  1  0.72647218  0.51522498  0.64059638  1
  O  O188  1  0.75519217  0.98480272  0.12319183  1
  O  O189  1  0.74241952  0.99115044  0.64128917  1
  O  O190  1  0.00694878  0.36691420  0.25716025  1
  O  O191  1  -0.01126567  0.38086779  0.75840338  1
  O  O192  1  0.01017834  0.84987185  0.23918023  1
  O  O193  1  0.00003578  0.86626210  0.76002707  1
  O  O194  1  0.50418968  0.37681855  0.25153717  1
  O  O195  1  0.50729303  0.36386523  0.75547377  1
  O  O196  1  0.49765138  0.88295142  0.26387681  1
  O  O197  1  0.50554853  0.86794160  0.75271737  1
  O  O198  1  0.48698018  0.12148435  0.23971835  1
  O  O199  1  0.50563399  0.13949161  0.75462276  1
  O  O200  1  0.48180472  0.61341440  0.24577453  1
  O  O201  1  0.48698637  0.63281102  0.74192029  1
  O  O202  1  1.00301822  0.13933187  0.24456734  1
  O  O203  1  1.00520471  0.12213613  0.74574744  1
  O  O204  1  1.00607689  0.64248077  0.24378942  1
  O  O205  1  0.98986010  0.63112909  0.75489676  1
  O  O206  1  0.37260693  0.25849552  0.00868665  1
  O  O207  1  0.36576833  0.25760364  0.49512092  1
  O  O208  1  0.37955617  0.76312073  0.00955113  1
  O  O209  1  0.36615931  0.75744657  0.50544257  1
  O  O210  1  0.86761435  0.25239045  0.00526350  1
  O  O211  1  0.87691824  0.25680075  0.51201579  1
  O  O212  1  0.86932697  0.75502099  0.00763569  1
  O  O213  1  0.87394688  0.75149338  0.51506620  1
  O  O214  1  0.13516105  0.24097330  0.50585012  1
  O  O215  1  0.11928657  0.23776145  0.99369726  1
  O  O216  1  0.12899048  0.74490583  0.49285404  1
  O  O217  1  0.11815075  0.73032437  0.99014726  1
  O  O218  1  0.61131772  0.22773985  0.50849190  1
  O  O219  1  0.63017137  0.24659896  0.99690328  1
  O  O220  1  0.64034540  0.75348749  0.50728413  1
  O  O221  1  0.62496994  0.74187239  0.99816373  1
  O  O222  1  0.48176895  0.23847348  0.12100311  1
  O  O223  1  0.51049523  0.25303190  0.63882530  1
  O  O224  1  0.47810720  0.75749629  0.13158103  1
  O  O225  1  0.49033921  0.74590105  0.62801847  1
  O  O226  1  0.99350697  0.24087365  0.13021004  1
  O  O227  1  1.00529728  0.23568680  0.62986113  1
  O  O228  1  0.98576676  0.74619113  0.12516348  1
  O  O229  1  0.99386273  0.75106554  0.63889655  1
  O  O230  1  -0.00479818  0.25428177  0.36153833  1
  O  O231  1  0.00026468  0.26460371  0.87492280  1
  O  O232  1  0.00740501  0.74908694  0.36716373  1
  O  O233  1  -0.00750326  0.75814764  0.86672534  1
  O  O234  1  0.49857755  0.26716928  0.37264828  1
  O  O235  1  0.51222796  0.24477643  0.87737058  1
  O  O236  1  0.49930925  0.77361718  0.38327152  1
  O  O237  1  0.50210777  0.74964078  0.86769243  1
  O  O238  1  0.23801245  0.13595440  0.50066686  1
  O  O239  1  0.23986123  0.11600047  0.99206898  1
  O  O240  1  0.23670648  0.63753914  0.50566530  1
  O  O241  1  0.23689093  0.61422116  1.00140642  1
  O  O242  1  0.74155571  0.13107876  0.49750968  1
  O  O243  1  0.74152535  0.12748086  0.99529025  1
  O  O244  1  0.75065256  0.63601817  0.51331343  1
  O  O245  1  0.74018448  0.62833772  0.99364964  1
  O  O246  1  0.25650010  0.38082625  0.00963909  1
  O  O247  1  0.25917815  0.36450066  0.49803619  1
  O  O248  1  0.26160329  0.87738541  0.00128891  1
  O  O249  1  0.26120404  0.86811301  0.49568688  1
  O  O250  1  0.75871201  0.36219711  -0.00603277  1
  O  O251  1  0.71167360  0.36675981  0.50581035  1
  O  O252  1  0.75753103  0.86933271  0.00624145  1
  O  O253  1  0.75626987  0.87327252  0.51498539  1
  O  O254  1  0.13383845  0.49199821  0.24445048  1
  O  O255  1  0.12315163  0.49291052  0.74173618  1
  O  O256  1  0.12669066  1.01352930  0.25075990  1
  O  O257  1  0.13540810  0.99587620  0.74433269  1
  O  O258  1  0.63008782  0.49894387  0.23310847  1
  O  O259  1  0.62347828  0.49729479  0.75415445  1
  O  O260  1  0.63059498  1.04349466  0.23411149  1
  O  O261  1  0.63078638  0.99555873  0.74834115  1
  O  O262  1  0.37408130  0.01070030  0.26183937  1
  O  O263  1  0.37350544  0.00027792  0.76050963  1
  O  O264  1  0.36163519  0.51046622  0.24123082  1
  O  O265  1  0.38051266  0.50220545  0.76225598  1
  O  O266  1  0.88686169  0.00454040  0.26320743  1
  O  O267  1  0.86572426  -0.00896942  0.76513045  1
  O  O268  1  0.85675865  0.48259982  0.24034365  1
  O  O269  1  0.86013820  0.51216767  0.74268624  1
  O  O270  1  0.11968061  0.37424269  0.36067657  1
  O  O271  1  0.11440142  0.37548694  0.85772043  1
  O  O272  1  0.12344573  0.86287126  0.37806483  1
  O  O273  1  0.11402518  0.87206212  0.87600629  1
  O  O274  1  0.61477836  0.36989036  0.35141581  1
  O  O275  1  0.62831096  0.36533694  0.87088732  1
  O  O276  1  0.61463401  0.89012076  0.37638304  1
  O  O277  1  0.62347216  0.86770075  0.87139711  1
  O  O278  1  0.37372594  0.12936636  0.13563261  1
  O  O279  1  0.38420593  0.12854787  0.62236784  1
  O  O280  1  0.36851148  0.63722755  0.12452859  1
  O  O281  1  0.37816740  0.63312431  0.63073324  1
  O  O282  1  0.89032524  0.13253083  0.11721578  1
  O  O283  1  0.89297484  0.11704024  0.63275470  1
  O  O284  1  0.87212677  0.63835994  0.11727902  1
  O  O285  1  0.87572839  0.63463411  0.63736336  1
  O  O286  1  0.25862050  0.25857393  0.13186366  1
  O  O287  1  0.25427407  0.25474955  0.61170714  1
  O  O288  1  0.26394732  0.76558848  0.12703339  1
  O  O289  1  0.25901010  0.75065739  0.61653569  1
  O  O290  1  0.75921979  0.23422630  0.11366093  1
  O  O291  1  0.77221326  0.25469994  0.65446420  1
  O  O292  1  0.75894390  0.75799020  0.12351967  1
  O  O293  1  0.75707398  0.75788893  0.62315585  1
  O  O294  1  0.24962421  0.25313744  0.38676514  1
  O  O295  1  0.25205864  0.23574510  0.86939694  1
  O  O296  1  0.23852846  0.75311058  0.38489278  1
  O  O297  1  0.26966525  0.74126452  0.88029625  1
  O  O298  1  0.76218548  0.24039191  0.37250399  1
  O  O299  1  0.74236759  0.23991497  0.88483180  1
  O  O300  1  0.76376653  0.75209746  0.39707396  1
  O  O301  1  0.74211707  0.74233199  0.88160922  1
  O  O302  1  0.00785004  0.11665152  0.00535383  1
  O  O303  1  0.01069972  0.11924502  0.51346686  1
  O  O304  1  -0.00530987  0.60676005  -0.00336939  1
  O  O305  1  0.01728943  0.62703399  0.50739508  1
  O  O306  1  0.50213093  0.11603094  0.00740334  1
  O  O307  1  0.51100692  0.11152248  0.48793644  1
  O  O308  1  0.50738362  0.61810035  -0.00705050  1
  O  O309  1  0.48928351  0.62643287  0.51308505  1
  O  O310  1  0.49315795  0.37440718  0.49232447  1
  O  O311  1  0.48380553  0.37983438  1.00533796  1
  O  O312  1  0.48984835  0.88751001  0.49442372  1
  O  O313  1  0.49066518  0.88445032  1.00309020  1
  O  O314  1  1.01496895  0.37619332  0.48161572  1
  O  O315  1  0.99133974  0.37942930  0.99055841  1
  O  O316  1  0.99821901  0.89282022  0.50741066  1
  O  O317  1  0.99629316  0.87874332  0.99627060  1
  O  O318  1  0.51227964  0.48166885  0.37737925  1
  O  O319  1  0.49342178  0.49783686  0.88892728  1
  O  O320  1  0.49022057  0.99315410  0.38409746  1
  O  O321  1  0.49115982  1.00088265  0.88616774  1
  O  O322  1  1.00492619  0.48669608  0.37045030  1
  O  O323  1  0.99689039  0.48314737  0.88562682  1
  O  O324  1  0.98485173  1.01215265  0.39533058  1
  O  O325  1  0.99411270  0.99091160  0.88180900  1
  O  O326  1  0.00139598  0.00614232  0.11534825  1
  O  O327  1  0.00876979  0.00837252  0.62107833  1
  O  O328  1  0.00112648  0.49598410  0.11053147  1
  O  O329  1  0.01778177  0.50101014  0.61974761  1
  O  O330  1  0.48857921  0.00985724  0.11557413  1
  O  O331  1  0.51232096  -0.00492761  0.61767015  1
  O  O332  1  0.51014875  0.49875748  0.10908084  1
  O  O333  1  0.50486442  0.51124022  0.62732494  1
  O  O334  1  0.24443463  0.38058342  0.24278454  1
  O  O335  1  0.24200389  0.37359552  0.74859406  1
  O  O336  1  0.25445272  0.87518032  0.24438324  1
  O  O337  1  0.25257449  0.89086346  0.75508858  1
  O  O338  1  0.73304265  0.37962762  0.24849635  1
  O  O339  1  0.73487053  0.39233979  0.75824083  1
  O  O340  1  0.74983655  0.87636841  0.23705666  1
  O  O341  1  0.74439566  0.88098098  0.74752895  1
  O  O342  1  0.25988309  0.12611332  0.25197505  1
  O  O343  1  0.25490465  0.11452002  0.75962461  1
  O  O344  1  0.24959596  0.61078663  0.24413660  1
  O  O345  1  0.26253561  0.62384894  0.74292043  1
  O  O346  1  0.76498332  0.12537120  0.26776148  1
  O  O347  1  0.74132348  0.11304163  0.76712216  1
  O  O348  1  0.75801242  0.60788263  0.23804583  1
  O  O349  1  0.75210845  0.62196275  0.75947941  1
  O  O350  1  0.37981255  0.11629612  0.36524941  1
  O  O351  1  0.36868047  0.11474532  0.87912082  1
  O  O352  1  0.37724008  0.62688571  0.36442631  1
  O  O353  1  0.37852040  0.60757861  0.86704400  1
  O  O354  1  0.86561001  0.11400824  0.39046906  1
  O  O355  1  0.86519745  0.11315749  0.88668899  1
  O  O356  1  0.88202554  0.59684948  0.39814365  1
  O  O357  1  0.86099181  0.63141172  0.86692780  1
  O  O358  1  0.13134581  0.37199683  0.13207885  1
  O  O359  1  0.12084192  0.38336991  0.63907059  1
  O  O360  1  0.13702083  0.86674025  0.12497203  1
  O  O361  1  0.12280622  0.89026604  0.62542480  1
  O  O362  1  0.61581656  0.38327161  0.13339135  1
  O  O363  1  0.61401646  0.39732638  0.64192588  1
  O  O364  1  0.64026654  0.86889791  0.11913186  1
  O  O365  1  0.63334358  0.88372366  0.63147628  1
  O  O366  1  0.10988231  0.25783393  0.24440997  1
  O  O367  1  0.12891686  0.26306600  0.74715813  1
  O  O368  1  0.12289074  0.74360641  0.26576214  1
  O  O369  1  0.11639285  0.74921741  0.75588467  1
  O  O370  1  0.62979962  0.25618879  0.23389387  1
  O  O371  1  0.61842162  0.25923040  0.75988377  1
  O  O372  1  0.62440081  0.71515683  0.27919640  1
  O  O373  1  0.61896605  0.75392949  0.75461341  1
  O  O374  1  0.37139887  0.23776976  0.24510571  1
  O  O375  1  0.39335771  0.24981482  0.74891655  1
  O  O376  1  0.36669017  0.73198498  0.24386277  1
  O  O377  1  0.37857503  0.74504233  0.74031662  1
  O  O378  1  0.88883837  0.26024666  0.23794345  1
  O  O379  1  0.83546330  0.26073296  0.71159245  1
  O  O380  1  0.88370959  0.75227816  0.24077769  1
  O  O381  1  0.87933743  0.74202465  0.74634920  1
  O  O382  1  0.37429569  0.48474548  0.50488845  1
  O  O383  1  0.37860246  0.49295892  0.99129710  1
  O  O384  1  0.38024019  0.99693705  0.49282754  1
  O  O385  1  0.38005351  0.99204904  0.99527692  1
  O  O386  1  0.87656028  0.54131222  0.45428867  1
  O  O387  1  0.88138412  0.48668930  1.00532835  1
  O  O388  1  0.88624174  0.99966306  0.51182913  1
  O  O389  1  0.88538248  0.99182551  0.99367161  1
  O  O390  1  0.11447731  0.00853404  -0.00710094  1
  O  O391  1  0.12291386  0.01205642  0.50723247  1
  O  O392  1  0.11027752  0.50389471  -0.00081773  1
  O  O393  1  0.12966774  0.51191243  0.50125436  1
  O  O394  1  0.61372525  0.00910675  -0.00537829  1
  O  O395  1  0.62074161  0.00772490  0.51044096  1
  O  O396  1  0.61850987  0.50313958  0.00554382  1
  O  O397  1  0.61842640  0.50113019  0.51622496  1
  O  O398  1  0.36695962  0.36794680  0.11927701  1
  O  O399  1  0.38026201  0.36686455  0.61015711  1
  O  O400  1  0.36606072  0.87088465  0.11681232  1
  O  O401  1  0.38106275  0.86587275  0.61475827  1
  O  O402  1  0.88149007  0.35729725  0.11043435  1
  O  O403  1  0.87210101  0.44601931  0.57540558  1
  O  O404  1  0.86690528  0.86238252  0.11299507  1
  O  O405  1  0.86669755  0.86484286  0.63380029  1
  O  O406  1  0.11546584  0.12793214  0.39493203  1
  O  O407  1  0.13371457  0.12639161  0.88198217  1
  O  O408  1  0.12238813  0.63127415  0.38700587  1
  O  O409  1  0.12186418  0.61834821  0.88777849  1
  O  O410  1  0.64388850  0.11944733  0.38843934  1
  O  O411  1  0.63226164  0.13265390  0.88778592  1
  O  O412  1  0.62047799  0.66193506  0.33413290  1
  O  O413  1  0.62962090  0.63075955  0.88306829  1
