# generated using pymatgen
data_V79Zn79O256
_symmetry_space_group_name_H-M   'P 1'
_cell_length_a   16.94560706
_cell_length_b   16.89911254
_cell_length_c   16.90057246
_cell_angle_alpha   90.02105366
_cell_angle_beta   89.84137985
_cell_angle_gamma   89.93922162
_symmetry_Int_Tables_number   1
_chemical_formula_structural   V79Zn79O256
_chemical_formula_sum   'V79 Zn79 O256'
_cell_volume   4839.72301121
_cell_formula_units_Z   1
loop_
 _symmetry_equiv_pos_site_id
 _symmetry_equiv_pos_as_xyz
  1  'x, y, z'
loop_
 _atom_site_type_symbol
 _atom_site_label
 _atom_site_symmetry_multiplicity
 _atom_site_fract_x
 _atom_site_fract_y
 _atom_site_fract_z
 _atom_site_occupancy
  V  V0  1  0.86157241  0.62535050  0.75923127  1
  V  V1  1  0.01259970  0.25779078  0.23778925  1
  V  V2  1  0.75234491  0.50184997  0.25655975  1
  V  V3  1  0.50057249  0.63580651  0.13040437  1
  V  V4  1  0.87398079  0.62288851  0.25551164  1
  V  V5  1  0.50156358  0.12329499  0.62289277  1
  V  V6  1  0.50597864  0.75522848  0.74748475  1
  V  V7  1  0.75284003  0.87432548  0.12858570  1
  V  V8  1  0.63270939  0.62393003  -0.00556815  1
  V  V9  1  0.87553641  0.37466261  0.49770386  1
  V  V10  1  0.63563354  0.62333527  0.49254515  1
  V  V11  1  -0.01164551  0.25019273  0.75704522  1
  V  V12  1  0.75325407  0.49042672  0.76055769  1
  V  V13  1  0.19541186  0.44000788  0.17611032  1
  V  V14  1  0.62351764  0.75004347  0.37151731  1
  V  V15  1  -0.00113769  0.87661734  0.87469381  1
  V  V16  1  0.49914632  0.87068196  0.87509533  1
  V  V17  1  0.63438364  0.37259748  0.24911183  1
  V  V18  1  0.15391922  0.33329028  0.76822757  1
  V  V19  1  0.61291647  0.24251015  0.89069976  1
  V  V20  1  0.37673294  0.85853370  0.02024631  1
  V  V21  1  0.37410359  0.11682726  0.76053644  1
  V  V22  1  0.11973848  0.60764268  -0.00455919  1
  V  V23  1  0.11687656  0.62659208  0.50634332  1
  V  V24  1  0.85038203  0.37871787  0.00383921  1
  V  V25  1  0.37922981  0.24655795  0.62890180  1
  V  V26  1  0.49779311  0.49427321  -0.01426909  1
  V  V27  1  0.00128327  0.49370020  0.49312449  1
  V  V28  1  0.62217912  -0.00296502  0.61936596  1
  V  V29  1  0.73993670  -0.00431347  0.75241981  1
  V  V30  1  0.37760621  0.87684657  0.48249319  1
  V  V31  1  0.62811155  0.75569842  0.87152837  1
  V  V32  1  0.87253426  0.11957224  0.74808843  1
  V  V33  1  0.00748380  0.00392180  0.00772871  1
  V  V34  1  0.49973620  0.62765630  0.62407983  1
  V  V35  1  0.49739370  0.25070307  0.25331515  1
  V  V36  1  0.37168925  0.50409664  0.36996843  1
  V  V37  1  0.25330600  0.50702420  0.75884123  1
  V  V38  1  0.12082024  0.26679877  0.38025248  1
  V  V39  1  0.11423510  0.01059018  0.61057188  1
  V  V40  1  0.50112222  0.49909473  0.50029327  1
  V  V41  1  0.12848046  0.89759875  0.23721271  1
  V  V42  1  0.36707733  0.11734245  0.25512199  1
  V  V43  1  0.25438248  0.88244484  0.62716671  1
  V  V44  1  0.36954961  0.26861989  0.12551934  1
  V  V45  1  0.85683993  0.24569646  0.12312698  1
  V  V46  1  0.76415774  0.12337432  0.37572729  1
  V  V47  1  0.25821622  0.62865361  0.87722320  1
  V  V48  1  0.24933254  0.37787465  0.62237577  1
  V  V49  1  0.63236354  0.49599270  0.12388501  1
  V  V50  1  0.75642786  0.75045195  0.49280630  1
  V  V51  1  0.76269466  0.00359178  0.25507289  1
  V  V52  1  0.74625758  0.25225631  0.50287685  1
  V  V53  1  0.12070082  0.75163959  0.37613492  1
  V  V54  1  0.12495417  0.88132637  0.74863266  1
  V  V55  1  0.87221665  0.25130982  0.62403600  1
  V  V56  1  0.75152691  0.74857128  -0.00640314  1
  V  V57  1  0.62387230  0.24072106  0.37923040  1
  V  V58  1  0.37344765  0.37183567  0.49826368  1
  V  V59  1  0.12896593  0.75292945  0.87764368  1
  V  V60  1  0.00606331  0.74827478  0.24649668  1
  V  V61  1  0.11831896  0.50276034  0.63052429  1
  V  V62  1  0.24970277  0.62267542  0.37691012  1
  V  V63  1  0.24188685  0.11296615  0.37626482  1
  V  V64  1  -0.01449278  0.38675820  0.87702342  1
  V  V65  1  0.87869289  0.74843862  0.62075585  1
  V  V66  1  0.63714390  0.49455259  0.62285403  1
  V  V67  1  0.16158809  0.17101635  -0.01231797  1
  V  V68  1  0.62227800  0.00544358  0.12588421  1
  V  V69  1  0.60611000  0.36622211  0.75025119  1
  V  V70  1  0.49822409  0.00617134  0.00129310  1
  V  V71  1  0.00021754  0.74144104  0.74516653  1
  V  V72  1  0.61867525  0.87230378  0.25575736  1
  V  V73  1  0.25148433  0.74376617  0.02741943  1
  V  V74  1  -0.01089871  0.89206667  0.38364030  1
  V  V75  1  -0.00026205  0.60754217  0.11767423  1
  V  V76  1  0.49927377  -0.00232341  0.48579445  1
  V  V77  1  0.87628659  0.87479615  0.00004952  1
  V  V78  1  0.75142301  0.87415951  0.61872934  1
  Zn  Zn79  1  0.36988624  -0.00235661  0.88386691  1
  Zn  Zn80  1  0.37307965  0.75323358  0.62665894  1
  Zn  Zn81  1  0.37360065  0.62903378  0.23384981  1
  Zn  Zn82  1  0.25111215  0.75292325  0.50142165  1
  Zn  Zn83  1  0.45043695  0.80686401  0.30881780  1
  Zn  Zn84  1  0.74670800  0.14344185  0.90381856  1
  Zn  Zn85  1  0.23551353  0.01060318  0.78166269  1
  Zn  Zn86  1  0.00921228  0.12720321  0.12349199  1
  Zn  Zn87  1  0.23412845  0.23626389  0.50557218  1
  Zn  Zn88  1  0.87670239  0.74705629  0.12549784  1
  Zn  Zn89  1  0.50083214  0.37399787  0.37689624  1
  Zn  Zn90  1  0.87921065  0.49321726  0.37186184  1
  Zn  Zn91  1  0.38348913  0.62375233  0.75810033  1
  Zn  Zn92  1  0.49892490  0.13275529  0.11934097  1
  Zn  Zn93  1  0.87188066  0.00673588  0.87678323  1
  Zn  Zn94  1  0.18585835  0.19220649  0.18197261  1
  Zn  Zn95  1  0.19133247  0.18170173  0.69050557  1
  Zn  Zn96  1  0.19129721  0.61596460  0.18315395  1
  Zn  Zn97  1  0.18874317  0.69104624  0.68619301  1
  Zn  Zn98  1  0.68563480  0.18442952  0.19133670  1
  Zn  Zn99  1  0.68484453  0.18197397  0.69003217  1
  Zn  Zn100  1  0.68762938  0.68536242  0.18555080  1
  Zn  Zn101  1  0.68761347  0.68655559  0.68198549  1
  Zn  Zn102  1  0.30222560  0.31305227  0.31073327  1
  Zn  Zn103  1  0.32133004  0.29695925  0.81797028  1
  Zn  Zn104  1  0.27713909  0.78150220  0.26524978  1
  Zn  Zn105  1  0.31577820  0.81454699  0.81139179  1
  Zn  Zn106  1  0.81989528  0.30922189  0.30791763  1
  Zn  Zn107  1  0.80477460  0.31086208  0.81899212  1
  Zn  Zn108  1  0.81560656  0.81090534  0.31367432  1
  Zn  Zn109  1  0.81205365  0.81731567  0.80752900  1
  Zn  Zn110  1  0.18678345  0.43990440  0.43581758  1
  Zn  Zn111  1  0.25544213  0.33532508  0.99338647  1
  Zn  Zn112  1  0.18428338  0.93412345  0.43285464  1
  Zn  Zn113  1  0.21732345  0.96494432  0.99180794  1
  Zn  Zn114  1  0.69021645  0.43189873  0.43363392  1
  Zn  Zn115  1  0.68012486  0.43192061  0.93076556  1
  Zn  Zn116  1  0.68814998  0.93692962  0.43700238  1
  Zn  Zn117  1  0.69947231  0.96651814  0.95450933  1
  Zn  Zn118  1  0.31189686  0.09142051  0.06877034  1
  Zn  Zn119  1  0.31182824  0.05803756  0.56042437  1
  Zn  Zn120  1  0.30932699  0.50661514  0.05571227  1
  Zn  Zn121  1  0.30974934  0.56341265  0.56017035  1
  Zn  Zn122  1  0.81756534  0.06698028  0.06632597  1
  Zn  Zn123  1  0.80571748  0.07210117  0.56704365  1
  Zn  Zn124  1  0.81468526  0.55992338  0.06422368  1
  Zn  Zn125  1  0.82074985  0.56559650  0.56642420  1
  Zn  Zn126  1  0.45016297  0.44453765  0.18877944  1
  Zn  Zn127  1  0.43550351  0.44151058  0.68581732  1
  Zn  Zn128  1  0.43319432  0.94134642  0.18713245  1
  Zn  Zn129  1  0.43809971  0.93897077  0.68802499  1
  Zn  Zn130  1  0.93571208  0.42616176  0.18414847  1
  Zn  Zn131  1  0.92871252  0.43521634  0.68322141  1
  Zn  Zn132  1  0.94540334  0.93578341  0.19125713  1
  Zn  Zn133  1  0.93543399  0.93530809  0.68234452  1
  Zn  Zn134  1  0.05741486  0.07474419  0.31118338  1
  Zn  Zn135  1  0.06203640  0.07065164  0.82513895  1
  Zn  Zn136  1  0.06574096  0.55467678  0.30875574  1
  Zn  Zn137  1  0.06345654  0.56212568  0.81365478  1
  Zn  Zn138  1  0.56458618  0.06355879  0.30700406  1
  Zn  Zn139  1  0.55605341  0.06586469  0.81326432  1
  Zn  Zn140  1  0.56398627  0.56322339  0.31264391  1
  Zn  Zn141  1  0.57337094  0.56636328  0.80894515  1
  Zn  Zn142  1  0.43297132  0.18229584  0.43817303  1
  Zn  Zn143  1  0.43848671  0.31280426  0.93916339  1
  Zn  Zn144  1  0.43854733  0.68730772  0.44298326  1
  Zn  Zn145  1  0.44256074  0.68364420  0.94570713  1
  Zn  Zn146  1  0.93772570  0.19458009  0.42984915  1
  Zn  Zn147  1  0.92936401  0.19047936  0.93875505  1
  Zn  Zn148  1  0.94096058  0.68478126  0.43671344  1
  Zn  Zn149  1  0.93777137  0.68574120  0.93531790  1
  Zn  Zn150  1  0.07279985  0.32937486  0.05787164  1
  Zn  Zn151  1  0.05931189  0.31153416  0.57076935  1
  Zn  Zn152  1  0.06660879  0.80966431  0.06425127  1
  Zn  Zn153  1  0.05943989  0.82189725  0.56199510  1
  Zn  Zn154  1  0.56547211  0.31404056  0.06651779  1
  Zn  Zn155  1  0.56419876  0.31142905  0.56507211  1
  Zn  Zn156  1  0.56901863  0.81669578  0.06249357  1
  Zn  Zn157  1  0.56567305  0.81545730  0.55718890  1
  O  O158  1  0.12831864  0.14568291  0.08649712  1
  O  O159  1  0.13042256  0.10954764  0.62815342  1
  O  O160  1  0.10595486  0.62793029  0.10960976  1
  O  O161  1  0.13143031  0.61707869  0.61572390  1
  O  O162  1  0.61951055  0.10931776  0.13340613  1
  O  O163  1  0.61444701  0.11096549  0.62657464  1
  O  O164  1  0.62429915  0.61714819  0.11426977  1
  O  O165  1  0.61812727  0.61642070  0.61510392  1
  O  O166  1  0.37333350  0.38464478  0.38536909  1
  O  O167  1  0.33413754  0.34923067  0.91263416  1
  O  O168  1  0.37888558  0.87232790  0.38396659  1
  O  O169  1  0.38972084  0.86944105  0.88232504  1
  O  O170  1  0.87145109  0.37317745  0.39107546  1
  O  O171  1  0.87776934  0.36913391  0.89002374  1
  O  O172  1  0.88994797  0.87515809  0.36755219  1
  O  O173  1  0.88491034  0.87156306  0.88172371  1
  O  O174  1  0.24351526  0.01355916  0.37319938  1
  O  O175  1  0.25797983  -0.01443001  0.88838506  1
  O  O176  1  0.25991626  0.51006894  0.38313415  1
  O  O177  1  0.24663937  0.51307142  0.86001980  1
  O  O178  1  0.74711319  0.01008777  0.36693362  1
  O  O179  1  0.75124581  -0.01935765  0.85327386  1
  O  O180  1  0.75186479  0.49988661  0.36146499  1
  O  O181  1  0.74438649  0.50051754  0.85915162  1
  O  O182  1  0.26223194  0.53114982  0.15268157  1
  O  O183  1  0.24093533  0.49379391  0.62768899  1
  O  O184  1  0.25246009  1.00273074  0.09152404  1
  O  O185  1  0.23953428  0.98952536  0.62526096  1
  O  O186  1  0.73842556  0.50347861  0.13605852  1
  O  O187  1  0.73976297  0.50766134  0.62967258  1
  O  O188  1  0.74403322  0.99274816  0.13799973  1
  O  O189  1  0.74317183  0.99365450  0.62364932  1
  O  O190  1  -0.01093550  0.35656938  0.25694803  1
  O  O191  1  -0.02460154  0.35954362  0.75753889  1
  O  O192  1  0.01016872  0.86618562  0.25780155  1
  O  O193  1  0.00430551  0.86613660  0.75763502  1
  O  O194  1  0.51339312  0.36834977  0.25749823  1
  O  O195  1  0.50677891  0.38130723  0.74967072  1
  O  O196  1  0.51397053  0.87966194  0.24707188  1
  O  O197  1  0.49881370  0.86426503  0.75798169  1
  O  O198  1  0.48952180  0.13610669  0.25504279  1
  O  O199  1  0.48771373  0.11642442  0.73235785  1
  O  O200  1  0.50803791  0.62175235  0.23433165  1
  O  O201  1  0.50358383  0.63006042  0.73949259  1
  O  O202  1  1.00401859  0.14481553  0.23982060  1
  O  O203  1  0.98456013  0.13661024  0.76095702  1
  O  O204  1  0.99528256  0.62694415  0.23637364  1
  O  O205  1  0.99219155  0.63749734  0.75398000  1
  O  O206  1  0.39421279  0.25115363  0.02906188  1
  O  O207  1  0.37383680  0.26216971  0.50668104  1
  O  O208  1  0.36789072  0.75105444  0.00397109  1
  O  O209  1  0.37779690  0.76564014  0.50485242  1
  O  O210  1  0.87659259  0.26189484  0.01063742  1
  O  O211  1  0.86921521  0.25394719  0.50467768  1
  O  O212  1  0.86815233  0.75872487  -0.00004683  1
  O  O213  1  0.86623326  0.73721048  0.50712413  1
  O  O214  1  0.11862328  0.25515048  0.48929005  1
  O  O215  1  0.15458759  0.27692710  0.98904849  1
  O  O216  1  0.11752840  0.74184717  0.49415213  1
  O  O217  1  0.13638898  0.75196555  0.99011791  1
  O  O218  1  0.63332475  0.25599571  0.49062705  1
  O  O219  1  0.61994336  0.24873361  0.99137255  1
  O  O220  1  0.63547467  0.74284012  0.49323630  1
  O  O221  1  0.63522317  0.74439914  0.99324136  1
  O  O222  1  0.50285584  0.25017391  0.14255797  1
  O  O223  1  0.49000795  0.23719879  0.61280742  1
  O  O224  1  0.51478090  0.73539886  0.12079124  1
  O  O225  1  0.50889583  0.74314538  0.63119932  1
  O  O226  1  1.00972720  0.25553019  0.13099186  1
  O  O227  1  0.97834308  0.25366373  0.63317868  1
  O  O228  1  0.99781862  0.74647005  0.13558870  1
  O  O229  1  0.99175358  0.75971682  0.63521890  1
  O  O230  1  0.01589125  0.24179745  0.36567891  1
  O  O231  1  -0.00830616  0.25750652  0.86081140  1
  O  O232  1  0.00569225  0.75022654  0.36607254  1
  O  O233  1  0.00859077  0.75653391  0.86911017  1
  O  O234  1  0.50707489  0.24939335  0.37241370  1
  O  O235  1  0.51356886  0.25821930  0.87303741  1
  O  O236  1  0.51809431  0.74729650  0.38201594  1
  O  O237  1  0.50769693  0.75089205  0.86723639  1
  O  O238  1  0.26165189  0.12611450  0.48268725  1
  O  O239  1  0.25986214  0.15052182  0.98430804  1
  O  O240  1  0.23803215  0.62926609  0.49528563  1
  O  O241  1  0.23758562  0.63212297  0.98862660  1
  O  O242  1  0.75274859  0.13141887  0.48336743  1
  O  O243  1  0.74076983  0.07099883  0.98725382  1
  O  O244  1  0.74170467  0.63283547  0.50725817  1
  O  O245  1  0.74652954  0.63867077  1.00772588  1
  O  O246  1  0.23909222  0.41626050  0.06978561  1
  O  O247  1  0.25845478  0.37973759  0.51084071  1
  O  O248  1  0.26957640  0.85635866  0.00611330  1
  O  O249  1  0.26449789  0.87819053  0.50420092  1
  O  O250  1  0.75106091  0.37308046  -0.00120709  1
  O  O251  1  0.75643277  0.36060810  0.49598080  1
  O  O252  1  0.75708005  0.87186057  0.00947634  1
  O  O253  1  0.74941635  0.86489114  0.50667013  1
  O  O254  1  0.14067394  0.51452222  0.23659796  1
  O  O255  1  0.13950612  0.51100638  0.74048535  1
  O  O256  1  0.11648878  0.99648925  0.24493311  1
  O  O257  1  0.12145995  0.99130353  0.75280414  1
  O  O258  1  0.63239524  0.49312234  0.24623900  1
  O  O259  1  0.63645442  0.49205334  0.74280939  1
  O  O260  1  0.63179149  0.98990918  0.24476347  1
  O  O261  1  0.63540045  1.00069905  0.74065435  1
  O  O262  1  0.37766180  0.01831785  0.24762323  1
  O  O263  1  0.37685027  0.00766643  0.75806625  1
  O  O264  1  0.39000832  0.50917652  0.26855512  1
  O  O265  1  0.35818251  0.50768844  0.73953227  1
  O  O266  1  0.86034005  -0.00405591  0.24507213  1
  O  O267  1  0.86593162  0.00519792  0.74725844  1
  O  O268  1  0.86797699  0.50265222  0.24759751  1
  O  O269  1  0.86254956  0.51501199  0.73917749  1
  O  O270  1  0.12407974  0.36725432  0.37570301  1
  O  O271  1  0.10495586  0.37445326  0.84322097  1
  O  O272  1  0.11281506  0.86639161  0.36782212  1
  O  O273  1  0.11468206  0.86477830  0.86455797  1
  O  O274  1  0.62427824  0.36269572  0.36686215  1
  O  O275  1  0.62728421  0.36414880  0.85480650  1
  O  O276  1  0.63095363  0.86542086  0.36614138  1
  O  O277  1  0.61136431  0.86119824  0.88406084  1
  O  O278  1  0.38128065  0.14276473  0.14325302  1
  O  O279  1  0.38029865  0.13092187  0.62544228  1
  O  O280  1  0.40104972  0.62006426  0.11870851  1
  O  O281  1  0.39189283  0.62791095  0.61707511  1
  O  O282  1  0.88438903  0.14259255  0.11398154  1
  O  O283  1  0.87007286  0.13431474  0.63865896  1
  O  O284  1  0.88683662  0.62677737  0.12945732  1
  O  O285  1  0.87243233  0.64081370  0.63815093  1
  O  O286  1  0.26849627  0.25594717  0.12892967  1
  O  O287  1  0.25657733  0.26037551  0.62322149  1
  O  O288  1  0.24305779  0.72963001  0.12445586  1
  O  O289  1  0.25005455  0.76460542  0.62147629  1
  O  O290  1  0.75689038  0.24216512  0.12589256  1
  O  O291  1  0.75477512  0.23621713  0.60988779  1
  O  O292  1  0.75030190  0.76128187  0.11591667  1
  O  O293  1  0.75451797  0.75660879  0.61570320  1
  O  O294  1  0.23423504  0.24965583  0.37982545  1
  O  O295  1  0.21184995  0.26024040  0.80772430  1
  O  O296  1  0.23174197  0.74491628  0.38243170  1
  O  O297  1  0.23979266  0.74382434  0.86915359  1
  O  O298  1  0.74568719  0.23871364  0.37765351  1
  O  O299  1  0.72610507  0.24742857  0.86609876  1
  O  O300  1  0.74396966  0.75245797  0.38547594  1
  O  O301  1  0.74341654  0.76293893  0.88519628  1
  O  O302  1  -0.01053018  0.10531478  -0.00658428  1
  O  O303  1  -0.03715535  0.09210752  0.49868184  1
  O  O304  1  0.00244290  0.62858612  0.00939882  1
  O  O305  1  0.00964456  0.61302076  0.50064722  1
  O  O306  1  0.49434298  0.10447641  0.00078059  1
  O  O307  1  0.48910871  0.10683554  0.50865003  1
  O  O308  1  0.51658798  0.61724467  0.00694993  1
  O  O309  1  0.51312747  0.61745045  0.50596720  1
  O  O310  1  0.49223985  0.38378259  0.50149275  1
  O  O311  1  0.50905309  0.38996942  0.99778294  1
  O  O312  1  0.48897410  0.88441126  0.50323382  1
  O  O313  1  0.48951430  0.86490060  0.99382337  1
  O  O314  1  0.99017377  0.38393969  0.50846110  1
  O  O315  1  1.00709894  0.37413860  0.97491449  1
  O  O316  1  0.99928540  0.87512709  0.48355338  1
  O  O317  1  0.99271199  0.87475164  0.99383167  1
  O  O318  1  0.49495057  0.50189066  0.38927156  1
  O  O319  1  0.51466845  0.50735957  0.88689189  1
  O  O320  1  0.50629189  1.00291318  0.38704036  1
  O  O321  1  0.50292889  0.98894112  0.88732945  1
  O  O322  1  1.00219623  0.49931179  0.38851661  1
  O  O323  1  0.99282295  0.48529697  0.85748388  1
  O  O324  1  1.00219607  0.99094496  0.36836170  1
  O  O325  1  0.99448414  0.98751326  0.88085290  1
  O  O326  1  -0.00722950  0.00313102  0.11188203  1
  O  O327  1  0.01549021  -0.00710843  0.62919337  1
  O  O328  1  -0.00564073  0.50971088  0.12467448  1
  O  O329  1  0.01364667  0.49200903  0.62259305  1
  O  O330  1  0.50599881  0.00010344  0.11778553  1
  O  O331  1  0.50744590  0.00242995  0.61869089  1
  O  O332  1  0.51783933  0.50743542  0.11458288  1
  O  O333  1  0.50845014  0.50794663  0.61561045  1
  O  O334  1  0.24607217  0.38427274  0.24281469  1
  O  O335  1  0.24982571  0.39175833  0.74214364  1
  O  O336  1  0.22668463  0.87839960  0.25771196  1
  O  O337  1  0.23969727  0.87631190  0.74438192  1
  O  O338  1  0.74119594  0.38152194  0.25487227  1
  O  O339  1  0.75480705  0.38940478  0.74635327  1
  O  O340  1  0.74540269  0.88354583  0.24608755  1
  O  O341  1  0.75487235  0.88567467  0.73218731  1
  O  O342  1  0.26057873  0.13301158  0.25664880  1
  O  O343  1  0.26796315  0.11640925  0.74467431  1
  O  O344  1  0.25699210  0.64119400  0.27433018  1
  O  O345  1  0.25319974  0.62142236  0.75585324  1
  O  O346  1  0.74688679  0.11055645  0.25881420  1
  O  O347  1  0.75412855  0.10568687  0.74590849  1
  O  O348  1  0.76377578  0.61719749  0.24153604  1
  O  O349  1  0.75718218  0.62154913  0.74979518  1
  O  O350  1  0.36254640  0.13362582  0.36196699  1
  O  O351  1  0.38422227  0.12845097  0.85748642  1
  O  O352  1  0.36540546  0.61558519  0.39212160  1
  O  O353  1  0.36182316  0.63359077  0.87736815  1
  O  O354  1  0.86210971  0.13072514  0.36716937  1
  O  O355  1  0.86245493  0.12484985  0.86380949  1
  O  O356  1  0.88541616  0.61752046  0.35887295  1
  O  O357  1  0.87371045  0.63108948  0.85863442  1
  O  O358  1  0.11199721  0.39026911  0.14372034  1
  O  O359  1  0.13634522  0.37761487  0.64011996  1
  O  O360  1  0.11943494  0.87518439  0.13865362  1
  O  O361  1  0.13170951  0.88151713  0.63391393  1
  O  O362  1  0.62244896  0.38362891  0.13883695  1
  O  O363  1  0.61901489  0.38730265  0.63338776  1
  O  O364  1  0.63660649  0.88033945  0.13520448  1
  O  O365  1  0.63575202  0.88480847  0.62080219  1
  O  O366  1  0.11891967  0.25397962  0.25761390  1
  O  O367  1  0.09303689  0.25183779  0.72577485  1
  O  O368  1  0.11381578  0.74317990  0.26289582  1
  O  O369  1  0.11721102  0.75706130  0.75456283  1
  O  O370  1  0.61967558  0.25487639  0.25781385  1
  O  O371  1  0.62139709  0.26664668  0.73325376  1
  O  O372  1  0.63653150  0.75810608  0.26028479  1
  O  O373  1  0.61827201  0.74233866  0.75895008  1
  O  O374  1  0.38538908  0.25225485  0.24977094  1
  O  O375  1  0.37403982  0.23898020  0.73561713  1
  O  O376  1  0.37791957  0.74040349  0.26061250  1
  O  O377  1  0.39122647  0.74485877  0.74643597  1
  O  O378  1  0.88121139  0.25330825  0.22891841  1
  O  O379  1  0.87178064  0.24170865  0.74416872  1
  O  O380  1  0.88456454  0.73998059  0.24892534  1
  O  O381  1  0.87882317  0.74281373  0.74427020  1
  O  O382  1  0.38378543  0.49115987  0.49942061  1
  O  O383  1  0.39867904  0.50722850  0.99241589  1
  O  O384  1  0.38669463  0.98666826  0.50164796  1
  O  O385  1  0.39237618  0.97857608  1.00408565  1
  O  O386  1  0.88318543  0.49405979  0.50136837  1
  O  O387  1  0.86918454  0.47921133  1.00711238  1
  O  O388  1  0.90939912  1.03833467  0.50234267  1
  O  O389  1  0.88234408  0.98319896  0.99732314  1
  O  O390  1  0.10420601  -0.01275414  -0.00406951  1
  O  O391  1  0.12594184  -0.00433984  0.51172901  1
  O  O392  1  0.12259957  0.51239643  -0.01348576  1
  O  O393  1  0.11865383  0.50386446  0.50930353  1
  O  O394  1  0.60501811  -0.02107325  0.01554651  1
  O  O395  1  0.61037864  -0.00764637  0.50605774  1
  O  O396  1  0.62783480  0.50680093  0.00481905  1
  O  O397  1  0.62180737  0.50266705  0.50262802  1
  O  O398  1  0.38637075  0.36884295  0.13511538  1
  O  O399  1  0.36882165  0.36899402  0.61968991  1
  O  O400  1  0.38536175  0.86396957  0.11893418  1
  O  O401  1  0.36516187  0.87619174  0.62448110  1
  O  O402  1  0.87325882  0.36215042  0.11143736  1
  O  O403  1  0.86735559  0.36492110  0.61138201  1
  O  O404  1  0.86682884  0.87351544  0.11949502  1
  O  O405  1  0.86563537  0.86082877  0.62566207  1
  O  O406  1  0.13970018  0.13404004  0.37002651  1
  O  O407  1  0.11948520  0.13269893  0.90208055  1
  O  O408  1  0.12945808  0.62763283  0.38624449  1
  O  O409  1  0.12762064  0.63683845  0.87838985  1
  O  O410  1  0.63301688  0.13692315  0.36805596  1
  O  O411  1  0.62194183  0.13841351  0.86783332  1
  O  O412  1  0.62554604  0.63062971  0.38529277  1
  O  O413  1  0.62647029  0.63823034  0.88641138  1
