# generated using pymatgen
data_V79Zn79O256
_symmetry_space_group_name_H-M   'P 1'
_cell_length_a   16.94429657
_cell_length_b   16.91854382
_cell_length_c   16.93084978
_cell_angle_alpha   90.04970934
_cell_angle_beta   89.88560789
_cell_angle_gamma   90.19943611
_symmetry_Int_Tables_number   1
_chemical_formula_structural   V79Zn79O256
_chemical_formula_sum   'V79 Zn79 O256'
_cell_volume   4853.57364439
_cell_formula_units_Z   1
loop_
 _symmetry_equiv_pos_site_id
 _symmetry_equiv_pos_as_xyz
  1  'x, y, z'
loop_
 _atom_site_type_symbol
 _atom_site_label
 _atom_site_symmetry_multiplicity
 _atom_site_fract_x
 _atom_site_fract_y
 _atom_site_fract_z
 _atom_site_occupancy
  V  V0  1  0.38571658  0.50281944  0.87213259  1
  V  V1  1  0.24915218  0.36920668  0.12292829  1
  V  V2  1  0.11351624  -0.00040954  0.12330379  1
  V  V3  1  -0.00339091  0.87395892  0.88397735  1
  V  V4  1  0.49606982  0.62373723  0.11901723  1
  V  V5  1  0.25048733  0.37882252  0.63074830  1
  V  V6  1  0.61655035  0.62792047  -0.00447793  1
  V  V7  1  0.37323911  0.88572641  -0.00678643  1
  V  V8  1  0.50726807  0.36867356  0.88151736  1
  V  V9  1  -0.00430409  0.37078003  0.38420683  1
  V  V10  1  0.12392025  0.87430916  0.75046773  1
  V  V11  1  0.75436633  0.50701212  0.24367193  1
  V  V12  1  0.12782366  0.75226472  0.36775493  1
  V  V13  1  0.00112952  0.25142660  0.75372770  1
  V  V14  1  0.24986079  0.00688045  0.25453582  1
  V  V15  1  0.49851408  0.36737056  0.37415466  1
  V  V16  1  0.37362092  0.75443870  0.12262910  1
  V  V17  1  0.25177552  0.00578259  0.76666149  1
  V  V18  1  0.00658866  0.87577011  0.37278749  1
  V  V19  1  0.48634743  0.63017323  0.63327110  1
  V  V20  1  0.61746705  0.75209727  0.86973570  1
  V  V21  1  0.88156207  -0.00782027  0.88263675  1
  V  V22  1  0.24575877  0.73856876  0.00166957  1
  V  V23  1  0.64681051  0.25405006  0.38544749  1
  V  V24  1  0.75246788  0.87227647  0.62069725  1
  V  V25  1  0.12285837  0.74021829  0.87981686  1
  V  V26  1  0.62421701  0.01358422  0.62259775  1
  V  V27  1  0.63743269  0.37592880  0.74436450  1
  V  V28  1  0.75531546  0.75712285  0.00253316  1
  V  V29  1  0.62808013  0.89085224  0.24513250  1
  V  V30  1  0.37394218  0.37495575  0.50249112  1
  V  V31  1  0.37774195  0.24052924  0.62452137  1
  V  V32  1  0.23776078  0.23927563  0.49159284  1
  V  V33  1  0.87739437  0.12449099  0.75285104  1
  V  V34  1  0.12300897  0.50688430  0.61419766  1
  V  V35  1  0.86702783  0.26322875  0.62013199  1
  V  V36  1  0.50223538  0.24961890  0.74582721  1
  V  V37  1  0.50984002  0.01090752  -0.00451838  1
  V  V38  1  0.50524390  0.50786476  0.50312581  1
  V  V39  1  0.87102343  0.12132850  0.24432983  1
  V  V40  1  0.74530174  0.62783410  0.37230041  1
  V  V41  1  0.24304889  0.62415986  0.38182953  1
  V  V42  1  -0.00289059  0.74373844  0.74555523  1
  V  V43  1  0.86905863  0.49916939  0.88715028  1
  V  V44  1  0.50262758  0.75578825  0.25011300  1
  V  V45  1  0.62499724  0.50808454  0.12276774  1
  V  V46  1  0.13411828  0.24790415  0.87926988  1
  V  V47  1  0.75157083  -0.00329294  0.74807577  1
  V  V48  1  0.61980411  0.87008169  0.74589349  1
  V  V49  1  0.74487618  0.74469494  0.49605628  1
  V  V50  1  0.00459079  0.12261902  0.62733476  1
  V  V51  1  0.87091397  0.61549489  0.74099810  1
  V  V52  1  0.10900415  0.50828989  0.11713162  1
  V  V53  1  0.25103126  0.61476557  0.86272304  1
  V  V54  1  0.88546048  0.50418836  0.38538544  1
  V  V55  1  0.06394883  0.05926209  0.45417106  1
  V  V56  1  -0.00537305  0.74933968  0.24174003  1
  V  V57  1  0.25803388  0.87225997  0.62966731  1
  V  V58  1  0.88117331  0.88021948  0.49847763  1
  V  V59  1  0.24675375  0.87561598  0.13295720  1
  V  V60  1  0.50387976  0.01459101  0.50509999  1
  V  V61  1  -0.00474759  0.38108557  0.88924854  1
  V  V62  1  0.37281156  0.62707967  0.24925467  1
  V  V63  1  0.24795518  0.49959431  0.24735274  1
  V  V64  1  0.11975179  0.12001548  0.00038446  1
  V  V65  1  -0.00280667  0.24464513  0.23812110  1
  V  V66  1  0.75578167  0.88720007  0.12189995  1
  V  V67  1  0.12205403  0.36776988  0.25522491  1
  V  V68  1  0.85644011  0.00778514  0.37845816  1
  V  V69  1  0.62080787  0.37600095  0.24285483  1
  V  V70  1  0.73921482  0.12671444  0.88267117  1
  V  V71  1  0.37012452  0.00292932  0.38067424  1
  V  V72  1  0.37171510  0.12625880  0.77047872  1
  V  V73  1  0.37482719  0.50059495  0.37570845  1
  V  V74  1  0.39201660  0.24804758  0.13070292  1
  V  V75  1  0.12496839  0.00348075  0.63047663  1
  V  V76  1  0.12910177  0.38340477  0.75336068  1
  V  V77  1  0.25349385  0.75034891  0.50387883  1
  V  V78  1  0.63272678  0.50459183  0.62926976  1
  Zn  Zn79  1  0.48862046  0.88018958  0.86669048  1
  Zn  Zn80  1  0.46928169  0.75064395  0.74239231  1
  Zn  Zn81  1  0.38218989  0.87207627  0.50648156  1
  Zn  Zn82  1  0.87726076  0.73919948  0.61772431  1
  Zn  Zn83  1  0.87895556  0.63155384  0.23685520  1
  Zn  Zn84  1  0.50356204  0.87635971  0.38084133  1
  Zn  Zn85  1  0.74543854  0.62338973  0.86894683  1
  Zn  Zn86  1  0.38181522  0.37935194  0.00610972  1
  Zn  Zn87  1  0.81940533  0.30889497  0.08136818  1
  Zn  Zn88  1  -0.02836130  0.57760205  0.56533730  1
  Zn  Zn89  1  0.62181135  0.74823476  0.37564113  1
  Zn  Zn90  1  0.37708908  0.13496765  0.25850493  1
  Zn  Zn91  1  0.25865771  0.24284229  -0.00223928  1
  Zn  Zn92  1  0.50533017  0.12278203  0.12940709  1
  Zn  Zn93  1  0.66986094  0.06810960  0.06526062  1
  Zn  Zn94  1  0.18459981  0.18400523  0.18644396  1
  Zn  Zn95  1  0.19259266  0.19206831  0.68824789  1
  Zn  Zn96  1  0.18265032  0.68655511  0.18884123  1
  Zn  Zn97  1  0.19380199  0.68767831  0.68936969  1
  Zn  Zn98  1  0.66977987  0.16637579  0.22962389  1
  Zn  Zn99  1  0.69262997  0.19272037  0.69777313  1
  Zn  Zn100  1  0.68827622  0.69343235  0.18466730  1
  Zn  Zn101  1  0.68546884  0.68199835  0.68124054  1
  Zn  Zn102  1  0.31096827  0.31042720  0.31251235  1
  Zn  Zn103  1  0.31950238  0.31915195  0.81348031  1
  Zn  Zn104  1  0.31559627  0.81772939  0.31521765  1
  Zn  Zn105  1  0.30614460  0.80947533  0.81417965  1
  Zn  Zn106  1  0.81830546  0.32440617  0.28475030  1
  Zn  Zn107  1  0.80240700  0.31174465  0.91800817  1
  Zn  Zn108  1  0.81282707  0.81888182  0.30915357  1
  Zn  Zn109  1  0.81048483  0.80621606  0.81258639  1
  Zn  Zn110  1  0.18522888  0.43264617  0.43865532  1
  Zn  Zn111  1  0.18547099  0.43750627  0.94194851  1
  Zn  Zn112  1  0.19167845  0.92931589  0.44006326  1
  Zn  Zn113  1  0.18504803  0.93089624  0.94446075  1
  Zn  Zn114  1  0.68914035  0.43147965  0.43457263  1
  Zn  Zn115  1  0.68592281  0.44426373  0.93251215  1
  Zn  Zn116  1  0.68097496  0.93571460  0.43639685  1
  Zn  Zn117  1  0.68809369  0.93443516  0.93079721  1
  Zn  Zn118  1  0.30561739  0.06747558  0.06234964  1
  Zn  Zn119  1  0.31031288  0.06120889  0.56582826  1
  Zn  Zn120  1  0.31338289  0.55656032  0.05678891  1
  Zn  Zn121  1  0.30988866  0.56124682  0.56549096  1
  Zn  Zn122  1  0.83318621  0.06583636  0.05887533  1
  Zn  Zn123  1  0.81315506  0.07018219  0.56103797  1
  Zn  Zn124  1  0.80412103  0.56545956  0.05278339  1
  Zn  Zn125  1  0.79456957  0.53199797  0.53980527  1
  Zn  Zn126  1  0.43785091  0.43763261  0.18734453  1
  Zn  Zn127  1  0.43913981  0.43908089  0.69135139  1
  Zn  Zn128  1  0.45604638  0.96842118  0.20209192  1
  Zn  Zn129  1  0.43774651  0.94819751  0.68958090  1
  Zn  Zn130  1  0.93319547  0.43094142  0.18424625  1
  Zn  Zn131  1  0.94004664  0.43642793  0.69418334  1
  Zn  Zn132  1  0.93177899  0.93520391  0.19296601  1
  Zn  Zn133  1  0.94038545  0.93332585  0.68962382  1
  Zn  Zn134  1  0.06292586  0.05788010  0.29354971  1
  Zn  Zn135  1  0.06471951  0.06353676  0.81789820  1
  Zn  Zn136  1  0.06341533  0.56619862  0.30214565  1
  Zn  Zn137  1  0.05775459  0.56163839  0.81128742  1
  Zn  Zn138  1  0.55597886  0.07098228  0.32020597  1
  Zn  Zn139  1  0.55534904  0.06009397  0.81309071  1
  Zn  Zn140  1  0.55880580  0.56431457  0.31147082  1
  Zn  Zn141  1  0.55896108  0.56196976  0.80755094  1
  Zn  Zn142  1  0.43357675  0.18706293  0.43926426  1
  Zn  Zn143  1  0.44154623  0.19540665  0.94388309  1
  Zn  Zn144  1  0.43482003  0.68681659  0.43883991  1
  Zn  Zn145  1  0.43289087  0.69140022  0.93153731  1
  Zn  Zn146  1  0.92820822  0.19517965  0.43467174  1
  Zn  Zn147  1  0.94067619  0.19002687  0.94953119  1
  Zn  Zn148  1  0.92913930  0.69115513  0.42568053  1
  Zn  Zn149  1  0.93375982  0.68603361  0.93793559  1
  Zn  Zn150  1  0.06686142  0.31305222  0.06494759  1
  Zn  Zn151  1  0.06029557  0.31536922  0.56504458  1
  Zn  Zn152  1  0.06433649  0.81481606  0.06144879  1
  Zn  Zn153  1  0.04656321  0.76416293  0.54010266  1
  Zn  Zn154  1  0.62225839  0.32891156  0.03729658  1
  Zn  Zn155  1  0.56668139  0.31445836  0.56361734  1
  Zn  Zn156  1  0.56299728  0.82152902  0.06197878  1
  Zn  Zn157  1  0.56063421  0.81374727  0.56181013  1
  O  O158  1  0.12439967  0.10996471  0.11752808  1
  O  O159  1  0.11703865  0.11651668  0.63643908  1
  O  O160  1  0.12730870  0.60751701  0.13126764  1
  O  O161  1  0.13632736  0.60526323  0.63387685  1
  O  O162  1  0.61585325  0.11359979  0.14835291  1
  O  O163  1  0.63277131  0.11132999  0.63784816  1
  O  O164  1  0.61386426  0.62695488  0.11583749  1
  O  O165  1  0.61020662  0.61038637  0.62952602  1
  O  O166  1  0.37996858  0.38122878  0.38194077  1
  O  O167  1  0.39118717  0.37989686  0.88257399  1
  O  O168  1  0.37830393  0.88963421  0.37966051  1
  O  O169  1  0.36953759  0.86770515  0.89074047  1
  O  O170  1  0.88533961  0.39424485  0.36673619  1
  O  O171  1  0.88589620  0.38585589  0.87228116  1
  O  O172  1  0.88161580  0.89027741  0.37949906  1
  O  O173  1  0.88104763  0.88485404  0.86360650  1
  O  O174  1  0.25115505  -0.00817917  0.36238902  1
  O  O175  1  0.24215641  -0.00527007  0.86492139  1
  O  O176  1  0.25255585  0.50441340  0.36769464  1
  O  O177  1  0.25017830  0.51217064  0.88008360  1
  O  O178  1  0.75829718  -0.00189662  0.37411731  1
  O  O179  1  0.76261310  -0.00295358  0.86360592  1
  O  O180  1  0.76169462  0.51276889  0.36317041  1
  O  O181  1  0.76432984  0.50295685  0.87285324  1
  O  O182  1  0.25163678  0.49111453  0.13602439  1
  O  O183  1  0.24248291  0.48548021  0.62256814  1
  O  O184  1  0.24947468  0.99220567  0.13611964  1
  O  O185  1  0.24039966  0.99486910  0.63667405  1
  O  O186  1  0.73590865  0.51540431  0.13023985  1
  O  O187  1  0.73128744  0.51399934  0.63210650  1
  O  O188  1  0.74998962  0.98942963  0.10954963  1
  O  O189  1  0.74580738  0.99228994  0.63164734  1
  O  O190  1  0.00654645  0.36298253  0.25615280  1
  O  O191  1  0.01014821  0.36523422  0.75886063  1
  O  O192  1  -0.00527125  0.86981142  0.26703759  1
  O  O193  1  0.00792414  0.86648007  0.76010664  1
  O  O194  1  0.51222786  0.39223436  0.26320194  1
  O  O195  1  0.49914203  0.36390198  0.75852696  1
  O  O196  1  0.50986294  0.87218409  0.24752429  1
  O  O197  1  0.50902680  0.87372622  0.74517850  1
  O  O198  1  0.47867355  0.08385148  0.23781157  1
  O  O199  1  0.48540436  0.13618789  0.75805952  1
  O  O200  1  0.49235388  0.63539572  0.24068893  1
  O  O201  1  0.49610138  0.62814455  0.73796697  1
  O  O202  1  1.00014999  0.14026680  0.25485665  1
  O  O203  1  0.99692696  0.13038746  0.74772996  1
  O  O204  1  0.99848521  0.64360028  0.24835035  1
  O  O205  1  0.98877345  0.63429022  0.75438364  1
  O  O206  1  0.37482055  0.25938434  0.01446945  1
  O  O207  1  0.37179233  0.25942405  0.50788718  1
  O  O208  1  0.36594290  0.75407851  0.00794743  1
  O  O209  1  0.35904853  0.75422920  0.49296551  1
  O  O210  1  0.86396793  0.25350191  -0.00443514  1
  O  O211  1  0.88289153  0.24632786  0.52178003  1
  O  O212  1  0.85246079  0.75471864  -0.01644497  1
  O  O213  1  0.86121098  0.76408430  0.49848343  1
  O  O214  1  0.13951296  0.25618176  0.50697044  1
  O  O215  1  0.12565008  0.24130459  0.99462991  1
  O  O216  1  0.14360638  0.75374703  0.48162649  1
  O  O217  1  0.13249877  0.75426164  0.98914979  1
  O  O218  1  0.62884983  0.26007873  0.48478960  1
  O  O219  1  0.66790184  0.22464627  1.06703791  1
  O  O220  1  0.64121857  0.75844498  0.49557628  1
  O  O221  1  0.62347565  0.74665070  0.98888335  1
  O  O222  1  0.49066409  0.24958126  0.12636384  1
  O  O223  1  0.48884670  0.25924669  0.63356514  1
  O  O224  1  0.49056178  0.74586759  0.12994039  1
  O  O225  1  0.50589423  0.73357726  0.62275877  1
  O  O226  1  0.99859660  0.25529496  0.13876461  1
  O  O227  1  1.00119433  0.24042272  0.63648587  1
  O  O228  1  1.00839214  0.76722860  0.14435971  1
  O  O229  1  0.99512832  0.76201423  0.64263495  1
  O  O230  1  -0.00807065  0.26737815  0.36894509  1
  O  O231  1  0.00622959  0.25911300  0.86900118  1
  O  O232  1  0.00890580  0.75848983  0.36527743  1
  O  O233  1  0.00600347  0.75167258  0.86989413  1
  O  O234  1  0.49800508  0.26540739  0.37878779  1
  O  O235  1  0.49925593  0.26167664  0.86450276  1
  O  O236  1  0.49721984  0.75052473  0.36198335  1
  O  O237  1  0.50710851  0.75382944  0.86577317  1
  O  O238  1  0.25154404  0.14019219  0.50782087  1
  O  O239  1  0.23157955  0.13063628  1.00472761  1
  O  O240  1  0.25635549  0.63100199  0.48848185  1
  O  O241  1  0.25219045  0.63544661  0.99568670  1
  O  O242  1  0.74763247  0.11853123  0.48789523  1
  O  O243  1  0.75047836  0.10694005  0.98618018  1
  O  O244  1  0.75899825  0.63388606  0.48652076  1
  O  O245  1  0.73468655  0.64145249  0.99486869  1
  O  O246  1  0.24887148  0.37212038  0.01533943  1
  O  O247  1  0.26044981  0.36976344  0.50694093  1
  O  O248  1  0.25799438  0.86303438  0.00710510  1
  O  O249  1  0.25450091  0.86984853  0.51334263  1
  O  O250  1  0.72830782  0.36022861  -0.00355266  1
  O  O251  1  0.77626942  0.42697261  0.49826976  1
  O  O252  1  0.73788784  0.86608099  0.00941053  1
  O  O253  1  0.75633077  0.87180305  0.50632326  1
  O  O254  1  0.13431471  0.49173962  0.24283156  1
  O  O255  1  0.12189726  0.48638176  0.74833844  1
  O  O256  1  0.13813091  0.99867627  0.23453139  1
  O  O257  1  0.13109721  0.99488760  0.74888132  1
  O  O258  1  0.63022130  0.50757705  0.23856268  1
  O  O259  1  0.61592092  0.48934606  0.73823188  1
  O  O260  1  0.62324299  0.98824062  0.25978326  1
  O  O261  1  0.63183409  0.98900491  0.74365848  1
  O  O262  1  0.35660968  -0.00771938  0.25981590  1
  O  O263  1  0.36924423  0.01840089  0.75190061  1
  O  O264  1  0.36620280  0.50494481  0.25472915  1
  O  O265  1  0.37075048  0.48674799  0.77268436  1
  O  O266  1  0.88803881  0.00999551  0.27065079  1
  O  O267  1  0.86802845  0.00509521  0.75052026  1
  O  O268  1  0.86305700  0.51130414  0.24333282  1
  O  O269  1  0.88134745  0.51290248  0.75724855  1
  O  O270  1  0.10930694  0.38710880  0.36361899  1
  O  O271  1  0.11505312  0.37062232  0.87189075  1
  O  O272  1  0.11659914  0.86710091  0.37909034  1
  O  O273  1  0.11901052  0.86559457  0.86769691  1
  O  O274  1  0.61654416  0.37061242  0.36861325  1
  O  O275  1  0.61103050  0.38953083  0.85702723  1
  O  O276  1  0.62546981  0.86767332  0.35914490  1
  O  O277  1  0.62130563  0.86868008  0.86077732  1
  O  O278  1  0.37430577  0.14208668  0.12171524  1
  O  O279  1  0.37238143  0.13830271  0.63140455  1
  O  O280  1  0.37791200  0.63412827  0.12704155  1
  O  O281  1  0.38647984  0.62093099  0.62287254  1
  O  O282  1  0.88583755  0.11017061  0.14462338  1
  O  O283  1  0.88924554  0.12144660  0.63563766  1
  O  O284  1  0.89203576  0.63477102  0.09577738  1
  O  O285  1  0.87702783  0.61891692  0.63582485  1
  O  O286  1  0.25015458  0.26180902  0.12919319  1
  O  O287  1  0.25856917  0.26071488  0.61767302  1
  O  O288  1  0.25353459  0.75360791  0.12090521  1
  O  O289  1  0.23801986  0.76153844  0.61533392  1
  O  O290  1  0.72575607  0.23534606  0.11995965  1
  O  O291  1  0.76911056  0.24348758  0.63364234  1
  O  O292  1  0.74571160  0.75819713  0.10843599  1
  O  O293  1  0.75239864  0.75727742  0.61643949  1
  O  O294  1  0.25422367  0.25447047  0.39211783  1
  O  O295  1  0.23708636  0.26458255  0.87795581  1
  O  O296  1  0.24630465  0.74337515  0.37554360  1
  O  O297  1  0.24120354  0.73741507  0.88289999  1
  O  O298  1  0.74326873  0.27100288  0.36515079  1
  O  O299  1  0.75040649  0.22482101  0.86571294  1
  O  O300  1  0.75393504  0.74348128  0.37861948  1
  O  O301  1  0.73288201  0.75306951  0.88251015  1
  O  O302  1  0.01760573  0.12567327  -0.00017815  1
  O  O303  1  0.00270025  0.12358072  0.50992670  1
  O  O304  1  -0.04386171  0.63988371  0.04949200  1
  O  O305  1  0.00090589  0.66466166  0.50648826  1
  O  O306  1  0.50234705  0.11499447  -0.00216598  1
  O  O307  1  0.49937609  0.11422642  0.50029001  1
  O  O308  1  0.50487389  0.63639639  0.00789545  1
  O  O309  1  0.49494300  0.61410411  0.50618247  1
  O  O310  1  0.48929901  0.38290699  0.49457889  1
  O  O311  1  0.52254196  0.36163271  0.98305983  1
  O  O312  1  0.49777308  0.88402796  0.49977500  1
  O  O313  1  0.48298076  0.87823915  0.99736039  1
  O  O314  1  1.00452924  0.37562722  0.48333454  1
  O  O315  1  1.00209918  0.37013012  0.98728001  1
  O  O316  1  0.98761797  0.86159247  0.48897373  1
  O  O317  1  1.00082482  0.86794346  0.98320513  1
  O  O318  1  0.49505695  0.49679981  0.38420972  1
  O  O319  1  0.49128105  0.49240038  0.87446247  1
  O  O320  1  0.49381235  0.99927258  0.39147467  1
  O  O321  1  0.49514744  0.99539492  0.88797501  1
  O  O322  1  0.98730880  0.49817237  0.35889820  1
  O  O323  1  0.99320038  0.48687826  0.87406879  1
  O  O324  1  1.01120409  0.99532404  0.38713477  1
  O  O325  1  0.98871969  0.98990459  0.86515522  1
  O  O326  1  0.01576420  -0.01264994  0.13226013  1
  O  O327  1  0.01278362  0.00739413  0.63359007  1
  O  O328  1  0.01022657  0.49391077  0.13334171  1
  O  O329  1  0.01633422  0.49598265  0.62839471  1
  O  O330  1  0.48781785  -0.00244211  0.09653150  1
  O  O331  1  0.50876794  -0.00044153  0.61441130  1
  O  O332  1  0.50496516  0.51727026  0.12975509  1
  O  O333  1  0.49951209  0.50888439  0.61954291  1
  O  O334  1  0.24240170  0.38229048  0.24762355  1
  O  O335  1  0.24100520  0.36577695  0.74138369  1
  O  O336  1  0.25068212  0.87760859  0.23789959  1
  O  O337  1  0.24008080  0.88395382  0.74854163  1
  O  O338  1  0.72568553  0.39932348  0.26002853  1
  O  O339  1  0.73202654  0.37201736  0.75514213  1
  O  O340  1  0.73768079  0.87009803  0.23567613  1
  O  O341  1  0.74512213  0.87961240  0.74079418  1
  O  O342  1  0.25317305  0.10996321  0.24656169  1
  O  O343  1  0.26212749  0.12118635  0.74969479  1
  O  O344  1  0.25420351  0.61680889  0.25680197  1
  O  O345  1  0.25150294  0.62312627  0.76448306  1
  O  O346  1  0.77293578  0.12753354  0.25317116  1
  O  O347  1  0.75919781  0.11180332  0.75725909  1
  O  O348  1  0.75469661  0.62582498  0.25138921  1
  O  O349  1  0.76704540  0.63417403  0.75251959  1
  O  O350  1  0.37617856  0.10941938  0.37544404  1
  O  O351  1  0.36989030  0.13734940  0.86841227  1
  O  O352  1  0.36537924  0.61951171  0.36814792  1
  O  O353  1  0.36483416  0.61313272  0.87886219  1
  O  O354  1  0.88099517  0.11062245  0.37560310  1
  O  O355  1  0.87378295  0.10957000  0.86647740  1
  O  O356  1  0.86789099  0.61570662  0.36356646  1
  O  O357  1  0.87718804  0.61137391  0.86963465  1
  O  O358  1  0.13230171  0.38295102  0.13632168  1
  O  O359  1  0.13151418  0.38155881  0.63461346  1
  O  O360  1  0.13860208  0.89004783  0.11022889  1
  O  O361  1  0.13165165  0.88564046  0.64151461  1
  O  O362  1  0.61370499  0.39472771  0.13575980  1
  O  O363  1  0.62064295  0.38788466  0.63478685  1
  O  O364  1  0.63033144  0.87747591  0.13688583  1
  O  O365  1  0.63631553  0.88068144  0.63011716  1
  O  O366  1  0.11565113  0.25806185  0.24761275  1
  O  O367  1  0.11850839  0.25512531  0.75879765  1
  O  O368  1  0.11801317  0.75045113  0.26094417  1
  O  O369  1  0.11964417  0.75564745  0.75907285  1
  O  O370  1  0.62669861  0.27672290  0.24725625  1
  O  O371  1  0.61354727  0.26367470  0.73970695  1
  O  O372  1  0.61096486  0.75474315  0.24664423  1
  O  O373  1  0.62962846  0.75925724  0.75368243  1
  O  O374  1  0.37210482  0.25047293  0.23766838  1
  O  O375  1  0.37859796  0.24222193  0.74492507  1
  O  O376  1  0.38078610  0.74921505  0.24010195  1
  O  O377  1  0.35964113  0.75302482  0.73942780  1
  O  O378  1  0.88913909  0.23261703  0.25908472  1
  O  O379  1  0.88924854  0.23539918  0.74324475  1
  O  O380  1  0.88900351  0.75183293  0.25315495  1
  O  O381  1  0.88243057  0.73882968  0.75122896  1
  O  O382  1  0.37973383  0.49061951  0.49614281  1
  O  O383  1  0.37281280  0.49272351  0.98502295  1
  O  O384  1  0.38415699  0.99999349  0.49922690  1
  O  O385  1  0.36562952  0.98648873  0.99947942  1
  O  O386  1  0.89913644  0.52143832  0.48537943  1
  O  O387  1  0.87226547  0.50033672  0.98720233  1
  O  O388  1  0.87364565  0.99099827  0.49017000  1
  O  O389  1  0.87862234  0.99580190  0.98089851  1
  O  O390  1  0.12840236  0.00892271  0.00896563  1
  O  O391  1  0.12898237  0.00077319  0.51237701  1
  O  O392  1  0.12426790  0.49483391  0.01832581  1
  O  O393  1  0.12832926  0.49758047  0.51396077  1
  O  O394  1  0.61277196  -0.00599465  -0.00454575  1
  O  O395  1  0.61287018  -0.00192843  0.50701717  1
  O  O396  1  0.62918729  0.51830894  0.00745849  1
  O  O397  1  0.61196043  0.48980994  0.51428612  1
  O  O398  1  0.36966407  0.36680567  0.12756718  1
  O  O399  1  0.36883622  0.37064837  0.61975358  1
  O  O400  1  0.36565311  0.86399994  0.11412182  1
  O  O401  1  0.36000998  0.88588879  0.63006225  1
  O  O402  1  0.84795034  0.36099671  0.17344470  1
  O  O403  1  0.88228032  0.36168864  0.63380788  1
  O  O404  1  0.85531585  0.87867510  0.13110641  1
  O  O405  1  0.86570114  0.87767145  0.61766440  1
  O  O406  1  0.11606263  0.11264230  0.38980521  1
  O  O407  1  0.12287425  0.13518284  0.88558967  1
  O  O408  1  0.13744602  0.63154823  0.36747017  1
  O  O409  1  0.13318514  0.63182630  0.87018003  1
  O  O410  1  0.62450603  0.15824866  0.34671238  1
  O  O411  1  0.64125318  0.11241342  0.86756685  1
  O  O412  1  0.63958190  0.62742046  0.36758807  1
  O  O413  1  0.62134716  0.63222101  0.87831113  1
