# generated using pymatgen
data_V79Zn79O256
_symmetry_space_group_name_H-M   'P 1'
_cell_length_a   16.88227724
_cell_length_b   16.85785421
_cell_length_c   16.90450742
_cell_angle_alpha   90.17131392
_cell_angle_beta   90.05455769
_cell_angle_gamma   89.83934574
_symmetry_Int_Tables_number   1
_chemical_formula_structural   V79Zn79O256
_chemical_formula_sum   'V79 Zn79 O256'
_cell_volume   4810.96281353
_cell_formula_units_Z   1
loop_
 _symmetry_equiv_pos_site_id
 _symmetry_equiv_pos_as_xyz
  1  'x, y, z'
loop_
 _atom_site_type_symbol
 _atom_site_label
 _atom_site_symmetry_multiplicity
 _atom_site_fract_x
 _atom_site_fract_y
 _atom_site_fract_z
 _atom_site_occupancy
  V  V0  1  0.87656927  0.50056599  0.87899282  1
  V  V1  1  0.11732668  0.62455905  0.50240844  1
  V  V2  1  0.61964173  0.75573277  0.37461248  1
  V  V3  1  0.37054898  0.74944857  0.62426326  1
  V  V4  1  0.75216768  0.36912848  0.61823066  1
  V  V5  1  0.76608413  0.24581570  -0.01049354  1
  V  V6  1  0.36886582  0.61844720  0.25179454  1
  V  V7  1  0.50252566  0.62137883  0.12690796  1
  V  V8  1  0.00461222  0.24800983  0.75030402  1
  V  V9  1  0.75092814  0.36922484  0.11759755  1
  V  V10  1  0.12761772  0.36696456  0.75076444  1
  V  V11  1  0.49742985  0.22719665  0.73916859  1
  V  V12  1  0.13022908  0.12205426  0.49487992  1
  V  V13  1  0.24496760  0.63155425  0.88834522  1
  V  V14  1  0.62587843  0.62116092  0.00564276  1
  V  V15  1  0.26018358  0.38670364  0.11707230  1
  V  V16  1  0.24091737  0.88095100  0.62478529  1
  V  V17  1  -0.00347473  0.49549944  0.49990936  1
  V  V18  1  0.86369885  0.11669272  0.76021406  1
  V  V19  1  0.39387572  0.49616894  0.37973688  1
  V  V20  1  0.88010685  0.74863503  0.13269549  1
  V  V21  1  0.74988015  0.13124664  0.38692901  1
  V  V22  1  0.00632758  0.37073568  0.87569092  1
  V  V23  1  0.49343016  0.75386553  0.25364536  1
  V  V24  1  0.38932998  0.37310048  0.50043726  1
  V  V25  1  0.62184960  0.75248588  0.87678541  1
  V  V26  1  0.61575187  0.25316782  0.38149374  1
  V  V27  1  0.49751499  0.49717299  -0.00058379  1
  V  V28  1  0.24885159  0.50277113  0.75002236  1
  V  V29  1  0.75117002  0.50366699  0.74970758  1
  V  V30  1  -0.00233511  0.74553573  0.74915409  1
  V  V31  1  0.85547840  0.78851015  0.65101126  1
  V  V32  1  0.24408896  0.24821903  -0.00171414  1
  V  V33  1  0.75324517  0.76441981  0.49762529  1
  V  V34  1  0.37263077  0.62545516  0.74906070  1
  V  V35  1  0.88125903  0.62068347  0.73604929  1
  V  V36  1  0.62509804  0.12414194  0.00911477  1
  V  V37  1  0.63131203  0.24246502  0.87364287  1
  V  V38  1  0.35894870  0.86795214  -0.00120062  1
  V  V39  1  0.88709647  0.00226635  0.37251668  1
  V  V40  1  0.88803748  0.88521535  -0.00765208  1
  V  V41  1  0.87513326  0.24707142  0.61961998  1
  V  V42  1  0.87425151  0.49717739  0.37266767  1
  V  V43  1  0.11663680  0.89526095  0.25778621  1
  V  V44  1  0.11690176  0.50333004  0.62574085  1
  V  V45  1  0.23072179  0.13360065  0.87473553  1
  V  V46  1  0.12604970  0.01145463  0.10255034  1
  V  V47  1  0.50065312  0.62159469  0.62219833  1
  V  V48  1  0.24904063  0.13120391  0.35952006  1
  V  V49  1  0.14274548  0.37445008  0.24146441  1
  V  V50  1  0.74811774  0.88008814  0.12786355  1
  V  V51  1  0.01578318  0.50815205  0.00348958  1
  V  V52  1  0.38725948  0.24090498  0.11456213  1
  V  V53  1  0.00709661  0.35995765  0.36249652  1
  V  V54  1  0.11738513  0.87547708  0.75206010  1
  V  V55  1  0.61971736  0.87974226  0.24761467  1
  V  V56  1  0.01617000  0.11334795  0.62208163  1
  V  V57  1  0.38310313  0.01168135  0.87886172  1
  V  V58  1  0.49706378  0.87466132  0.88405128  1
  V  V59  1  0.49839214  0.00786691  0.51077829  1
  V  V60  1  0.37138301  -0.00469528  0.36402088  1
  V  V61  1  0.24519518  0.61397863  0.37324353  1
  V  V62  1  0.24796053  0.00227608  0.75314891  1
  V  V63  1  0.12024015  0.75186874  0.89031748  1
  V  V64  1  -0.01538418  0.12407421  0.14074890  1
  V  V65  1  0.01431274  0.62545708  0.12888237  1
  V  V66  1  0.25282978  0.37254753  0.62016532  1
  V  V67  1  0.62127494  0.62441026  0.50193588  1
  V  V68  1  0.49964012  0.75720495  0.75095052  1
  V  V69  1  0.10839886  0.75122483  0.36467742  1
  V  V70  1  0.24334759  0.74942575  0.49964734  1
  V  V71  1  0.49597724  0.37610123  0.87524087  1
  V  V72  1  0.74181483  0.50130150  0.23897924  1
  V  V73  1  0.62503570  0.37496109  0.74869990  1
  V  V74  1  0.75030621  0.75116226  0.00193492  1
  V  V75  1  0.37593283  0.87365459  0.49469681  1
  V  V76  1  0.90299412  0.88164688  0.49313509  1
  V  V77  1  0.75109053  0.62652447  0.37420107  1
  V  V78  1  0.75041078  0.00243378  0.25564057  1
  Zn  Zn79  1  0.36316822  0.74680647  0.11843871  1
  Zn  Zn80  1  0.87167995  0.36379924  0.49249214  1
  Zn  Zn81  1  0.24575566  0.87828373  0.13474709  1
  Zn  Zn82  1  0.54543581  0.07826154  0.14833362  1
  Zn  Zn83  1  0.24609891  0.25740911  0.48688201  1
  Zn  Zn84  1  0.61620052  0.37701578  0.25264386  1
  Zn  Zn85  1  0.88843671  0.37019661  0.01302075  1
  Zn  Zn86  1  0.62372794  0.49875042  0.62130500  1
  Zn  Zn87  1  0.37110714  0.49652897  0.87761092  1
  Zn  Zn88  1  0.62445587  0.12291481  0.51482241  1
  Zn  Zn89  1  0.38177334  0.11975434  0.24091985  1
  Zn  Zn90  1  0.50383777  0.24712122  0.24736632  1
  Zn  Zn91  1  0.88401023  0.63247119  0.25418589  1
  Zn  Zn92  1  0.69447556  -0.07337909  0.67600778  1
  Zn  Zn93  1  0.75296254  0.63157871  0.87177632  1
  Zn  Zn94  1  0.18356398  0.19409610  0.18430678  1
  Zn  Zn95  1  0.22817756  0.16445465  0.66243057  1
  Zn  Zn96  1  0.19085433  0.69279383  0.18573858  1
  Zn  Zn97  1  0.18389869  0.68893620  0.68892308  1
  Zn  Zn98  1  0.70842240  0.19842223  0.19730225  1
  Zn  Zn99  1  0.68837700  0.18281119  0.68710999  1
  Zn  Zn100  1  0.68762071  0.69197248  0.18815289  1
  Zn  Zn101  1  0.66994070  0.73227188  0.66726801  1
  Zn  Zn102  1  0.32547241  0.31174790  0.30450896  1
  Zn  Zn103  1  0.31805016  0.30613581  0.80560950  1
  Zn  Zn104  1  0.29837030  0.80820623  0.31120291  1
  Zn  Zn105  1  0.30892827  0.81340636  0.81424540  1
  Zn  Zn106  1  0.81500183  0.31102338  0.30745724  1
  Zn  Zn107  1  0.81977367  0.31193391  0.80869834  1
  Zn  Zn108  1  0.81661788  0.81919347  0.31535567  1
  Zn  Zn109  1  0.79535769  0.84588844  0.82193804  1
  Zn  Zn110  1  0.18347698  0.43294781  0.43497873  1
  Zn  Zn111  1  0.19124268  0.43592638  0.93857712  1
  Zn  Zn112  1  0.18582306  0.94052945  0.43148008  1
  Zn  Zn113  1  0.18235632  0.94250538  0.93132649  1
  Zn  Zn114  1  0.68476794  0.43845482  0.43659612  1
  Zn  Zn115  1  0.68579529  0.43674692  0.93508676  1
  Zn  Zn116  1  0.68372656  0.94313957  0.43501653  1
  Zn  Zn117  1  0.68932609  0.93824756  0.93995654  1
  Zn  Zn118  1  0.31083961  0.06150516  0.05738397  1
  Zn  Zn119  1  0.31238181  0.06049561  0.55369997  1
  Zn  Zn120  1  0.31784438  0.56652507  0.06181950  1
  Zn  Zn121  1  0.31047206  0.55868436  0.55962856  1
  Zn  Zn122  1  0.80838764  0.06191378  0.06133703  1
  Zn  Zn123  1  0.82050200  0.06188433  0.56451302  1
  Zn  Zn124  1  0.82066285  0.56459936  0.06143696  1
  Zn  Zn125  1  0.80696370  0.56087756  0.55966969  1
  Zn  Zn126  1  0.44002629  0.43208093  0.18673194  1
  Zn  Zn127  1  0.43768799  0.43519755  0.68707770  1
  Zn  Zn128  1  0.43735993  0.93959860  0.17828216  1
  Zn  Zn129  1  0.42843142  0.94011240  0.68982624  1
  Zn  Zn130  1  0.93630206  0.44224261  0.18894190  1
  Zn  Zn131  1  0.93611907  0.43349628  0.68772901  1
  Zn  Zn132  1  0.94117704  0.93795556  0.18480119  1
  Zn  Zn133  1  0.94006772  0.94279603  0.69161399  1
  Zn  Zn134  1  0.06113913  0.08431018  0.30789209  1
  Zn  Zn135  1  0.05736106  0.05948872  0.81779682  1
  Zn  Zn136  1  0.06562304  0.55459021  0.30932693  1
  Zn  Zn137  1  0.06338048  0.56472914  0.81646562  1
  Zn  Zn138  1  0.55714661  0.06514362  0.32548077  1
  Zn  Zn139  1  0.58053447  0.05265193  0.81577225  1
  Zn  Zn140  1  0.56301332  0.56716704  0.31230968  1
  Zn  Zn141  1  0.56371895  0.56604629  0.81323170  1
  Zn  Zn142  1  0.43238412  0.18424455  0.44091864  1
  Zn  Zn143  1  0.44654527  0.19256974  0.94019406  1
  Zn  Zn144  1  0.43390438  0.68671593  0.43713343  1
  Zn  Zn145  1  0.43384004  0.68499075  0.93769208  1
  Zn  Zn146  1  0.93958773  0.17937445  0.43740351  1
  Zn  Zn147  1  0.95931819  0.16357889  0.93365632  1
  Zn  Zn148  1  0.93379837  0.68749241  0.44551987  1
  Zn  Zn149  1  0.93719202  0.69065821  0.93813190  1
  Zn  Zn150  1  0.07168836  0.31800924  0.06387593  1
  Zn  Zn151  1  0.06509884  0.30766782  0.55875895  1
  Zn  Zn152  1  0.06315107  0.81900224  0.07552842  1
  Zn  Zn153  1  0.05586267  0.80789832  0.57094816  1
  Zn  Zn154  1  0.57285848  0.31472276  0.06194793  1
  Zn  Zn155  1  0.56558486  0.30649482  0.56224145  1
  Zn  Zn156  1  0.55348084  0.81913395  0.06840971  1
  Zn  Zn157  1  0.55890136  0.82069442  0.56064015  1
  O  O158  1  0.12034449  0.11320853  0.13114197  1
  O  O159  1  0.12260679  0.12809921  0.61729542  1
  O  O160  1  0.11327648  0.62898832  0.12680394  1
  O  O161  1  0.12754392  0.61452904  0.61570390  1
  O  O162  1  0.63894341  0.13953059  0.11411756  1
  O  O163  1  0.65598547  0.08662570  0.62538252  1
  O  O164  1  0.61407431  0.63366708  0.11789778  1
  O  O165  1  0.61747562  0.63490833  0.61727050  1
  O  O166  1  0.37245698  0.38978173  0.38218390  1
  O  O167  1  0.39162051  0.37614357  0.86696761  1
  O  O168  1  0.35786486  0.88481315  0.38290181  1
  O  O169  1  0.37787619  0.87878576  0.88293387  1
  O  O170  1  0.87889987  0.38135495  0.37397611  1
  O  O171  1  0.89113442  0.38579185  0.87020507  1
  O  O172  1  0.87807231  0.88688506  0.38509963  1
  O  O173  1  0.87934629  0.86253448  0.89317642  1
  O  O174  1  0.26275294  0.01358684  0.38002161  1
  O  O175  1  0.25641456  0.01631827  0.87351194  1
  O  O176  1  0.24807220  0.51165499  0.37791551  1
  O  O177  1  0.24699130  0.51125384  0.86643537  1
  O  O178  1  0.75697291  0.00432618  0.37132350  1
  O  O179  1  0.72963357  -0.04054421  0.83379854  1
  O  O180  1  0.75632972  0.50813696  0.37080262  1
  O  O181  1  0.76006377  0.49702660  0.86621054  1
  O  O182  1  0.26206913  0.48604302  0.11761978  1
  O  O183  1  0.23936225  0.49569009  0.63260969  1
  O  O184  1  0.23231308  0.99914640  0.11423026  1
  O  O185  1  0.25213519  0.98712002  0.63647555  1
  O  O186  1  0.75055473  0.50467949  0.13603596  1
  O  O187  1  0.74907627  0.49111524  0.63480439  1
  O  O188  1  0.75373520  0.98735754  0.13870293  1
  O  O189  1  0.72065015  1.02724267  0.62116308  1
  O  O190  1  -0.00229245  0.37589438  0.26035213  1
  O  O191  1  0.00855158  0.36978735  0.75540073  1
  O  O192  1  0.01655660  0.87439246  0.24640637  1
  O  O193  1  0.00884050  0.86841390  0.75076318  1
  O  O194  1  0.50435301  0.36478217  0.24671423  1
  O  O195  1  0.51225903  0.37418350  0.75411854  1
  O  O196  1  0.50464257  0.86042207  0.24640082  1
  O  O197  1  0.48910219  0.86227641  0.76027506  1
  O  O198  1  0.50261513  0.12550096  0.24352098  1
  O  O199  1  0.51788794  0.12862888  0.75515498  1
  O  O200  1  0.49357334  0.63146672  0.24379003  1
  O  O201  1  0.49262633  0.63497186  0.74546254  1
  O  O202  1  0.99717498  0.14537331  0.23900848  1
  O  O203  1  1.00628994  0.13439916  0.73778639  1
  O  O204  1  0.99853235  0.61144373  0.23332867  1
  O  O205  1  0.99511326  0.63310945  0.75195177  1
  O  O206  1  0.36931966  0.24769088  0.00781660  1
  O  O207  1  0.37147702  0.27040720  0.49092455  1
  O  O208  1  0.37308459  0.76256392  -0.00271918  1
  O  O209  1  0.36408724  0.75489926  0.50195528  1
  O  O210  1  0.86714658  0.25565695  -0.01617869  1
  O  O211  1  0.88184177  0.24670592  0.51510634  1
  O  O212  1  0.86575181  0.75453260  0.00933769  1
  O  O213  1  0.87186482  0.77108499  0.49661667  1
  O  O214  1  0.13076336  0.23645221  0.50097058  1
  O  O215  1  0.14488264  0.25598337  0.99741798  1
  O  O216  1  0.12242531  0.73970164  0.49863908  1
  O  O217  1  0.11815565  0.75895847  0.98824142  1
  O  O218  1  0.62308566  0.23987000  0.49017826  1
  O  O219  1  0.63777632  0.24588760  0.98950396  1
  O  O220  1  0.63222665  0.74415859  0.49096120  1
  O  O221  1  0.63004644  0.74203043  0.99827456  1
  O  O222  1  0.48955285  0.25282540  0.11326563  1
  O  O223  1  0.51459391  0.24129061  0.64036625  1
  O  O224  1  0.49009802  0.74085511  0.13469156  1
  O  O225  1  0.49039300  0.74305929  0.63387450  1
  O  O226  1  0.99333783  0.23540401  0.09592876  1
  O  O227  1  0.99519395  0.24876664  0.63459919  1
  O  O228  1  0.99333326  0.73476873  0.11829446  1
  O  O229  1  0.97383781  0.76182080  0.64151022  1
  O  O230  1  -0.01112003  0.26243314  0.37622195  1
  O  O231  1  -0.00095722  0.26070922  0.86338503  1
  O  O232  1  0.00958900  0.74193539  0.37877949  1
  O  O233  1  0.01347402  0.74367848  0.86703262  1
  O  O234  1  0.51308296  0.24004814  0.37585931  1
  O  O235  1  0.51304998  0.25806777  0.86711285  1
  O  O236  1  0.50930339  0.73974714  0.36632845  1
  O  O237  1  0.50168007  0.75373564  0.86978959  1
  O  O238  1  0.24220860  0.13184613  0.48968771  1
  O  O239  1  0.25271511  0.13612135  0.98522941  1
  O  O240  1  0.23686759  0.62732243  0.49434904  1
  O  O241  1  0.25215637  0.62303275  0.98683752  1
  O  O242  1  0.74830283  0.11605788  0.48914980  1
  O  O243  1  0.75226580  0.14338242  0.99879599  1
  O  O244  1  0.74584144  0.63492714  0.48936958  1
  O  O245  1  0.74446612  0.63498714  1.00053162  1
  O  O246  1  0.25347374  0.36649300  0.00651059  1
  O  O247  1  0.25361136  0.37751891  0.50635119  1
  O  O248  1  0.25845660  0.87674288  -0.00981655  1
  O  O249  1  0.25075984  0.87083653  0.50732648  1
  O  O250  1  0.75227379  0.37573784  0.00773306  1
  O  O251  1  0.75226919  0.38286646  0.51472652  1
  O  O252  1  0.74975910  0.86520635  0.01067761  1
  O  O253  1  0.74495007  0.86515022  0.49748019  1
  O  O254  1  0.12323098  0.47622060  0.25339628  1
  O  O255  1  0.12975384  0.49531944  0.74332386  1
  O  O256  1  0.12258512  0.99484044  0.26692794  1
  O  O257  1  0.13422028  0.98794411  0.76630221  1
  O  O258  1  0.63891791  0.50089252  0.25753319  1
  O  O259  1  0.63459053  0.49332797  0.75111373  1
  O  O260  1  0.63045945  0.98519549  0.26472203  1
  O  O261  1  0.66032752  0.97098385  0.78186815  1
  O  O262  1  0.37632687  -0.00505702  0.26091213  1
  O  O263  1  0.35836430  -0.01028279  0.76783762  1
  O  O264  1  0.38219511  0.51015143  0.26413860  1
  O  O265  1  0.36284841  0.50486131  0.75016696  1
  O  O266  1  0.86391549  -0.01350079  0.26451407  1
  O  O267  1  0.88025538  0.01596655  0.75128342  1
  O  O268  1  0.86282214  0.50605264  0.26076785  1
  O  O269  1  0.87287835  0.50268390  0.75759812  1
  O  O270  1  0.11359816  0.37123760  0.36688255  1
  O  O271  1  0.11671029  0.38360694  0.86345599  1
  O  O272  1  0.12514107  0.86044415  0.36997994  1
  O  O273  1  0.13344198  0.85873931  0.86464816  1
  O  O274  1  0.63361553  0.35755269  0.37810040  1
  O  O275  1  0.61947698  0.36913816  0.86416173  1
  O  O276  1  0.62923185  0.86134384  0.36548988  1
  O  O277  1  0.61036138  0.86006057  0.89162823  1
  O  O278  1  0.37529995  0.13314024  0.12072877  1
  O  O279  1  0.33344080  0.13430278  0.63149714  1
  O  O280  1  0.38162231  0.62668902  0.13630826  1
  O  O281  1  0.37895345  0.62883514  0.62737480  1
  O  O282  1  0.88545381  0.11215611  0.12859837  1
  O  O283  1  0.89041795  0.12960023  0.63167090  1
  O  O284  1  0.88156386  0.63490056  0.12836344  1
  O  O285  1  0.87782698  0.61298346  0.63605761  1
  O  O286  1  0.25921715  0.25066528  0.10892751  1
  O  O287  1  0.24617808  0.27303685  0.62970856  1
  O  O288  1  0.25119996  0.76106620  0.12446942  1
  O  O289  1  0.25116845  0.75635334  0.61989743  1
  O  O290  1  0.75294081  0.26410926  0.10160099  1
  O  O291  1  0.76067585  0.25861473  0.63258375  1
  O  O292  1  0.75806106  0.75593614  0.11952766  1
  O  O293  1  0.77183519  0.73557862  0.60886917  1
  O  O294  1  0.26366223  0.23555717  0.36968730  1
  O  O295  1  0.26021012  0.24065698  0.88142266  1
  O  O296  1  0.23567296  0.73630819  0.38326194  1
  O  O297  1  0.23799978  0.73842116  0.87021716  1
  O  O298  1  0.75025355  0.23430613  0.37896667  1
  O  O299  1  0.74314795  0.26644165  0.88285022  1
  O  O300  1  0.74514933  0.74446626  0.37903339  1
  O  O301  1  0.73952259  0.75565144  0.88559418  1
  O  O302  1  0.01061670  0.17240693  0.03767303  1
  O  O303  1  0.01355293  0.12951919  0.51300804  1
  O  O304  1  -0.00224943  0.61418982  0.00689941  1
  O  O305  1  0.00685447  0.61036975  0.49596776  1
  O  O306  1  0.52388923  0.12920922  0.00090310  1
  O  O307  1  0.49610266  0.11226670  0.50721860  1
  O  O308  1  0.50621947  0.62142960  0.00710508  1
  O  O309  1  0.50827119  0.63597783  0.51051420  1
  O  O310  1  0.48865794  0.37630829  0.50876819  1
  O  O311  1  0.51515686  0.38689205  0.98825647  1
  O  O312  1  0.48107455  0.87480119  0.49803386  1
  O  O313  1  0.48588488  0.87029112  0.98927153  1
  O  O314  1  1.00002739  0.38329974  0.48759699  1
  O  O315  1  1.00466643  0.38631362  0.99347905  1
  O  O316  1  1.00182402  0.87649705  0.49360477  1
  O  O317  1  0.98619193  0.87739109  1.01208927  1
  O  O318  1  0.49293369  0.50552945  0.37997892  1
  O  O319  1  0.50001935  0.49444044  0.87969124  1
  O  O320  1  0.47777480  1.00353479  0.38759284  1
  O  O321  1  0.49021733  0.98849962  0.86443813  1
  O  O322  1  0.99027119  0.49160642  0.38037000  1
  O  O323  1  0.99709779  0.49594697  0.88492129  1
  O  O324  1  0.98486985  1.01575932  0.36784755  1
  O  O325  1  0.99620747  1.05680132  0.90961080  1
  O  O326  1  0.01047692  0.01599662  0.13229999  1
  O  O327  1  0.00851026  0.01486902  0.62921164  1
  O  O328  1  -0.00448440  0.50847002  0.11057776  1
  O  O329  1  0.00820819  0.49007275  0.61534321  1
  O  O330  1  0.52197081  -0.02416524  0.11938339  1
  O  O331  1  0.49146022  -0.01038080  0.61093733  1
  O  O332  1  0.49483115  0.51273732  0.11729706  1
  O  O333  1  0.50435392  0.51734940  0.63419835  1
  O  O334  1  0.24978458  0.37216856  0.23642315  1
  O  O335  1  0.24645946  0.38487168  0.74705451  1
  O  O336  1  0.22506866  0.86926237  0.25086737  1
  O  O337  1  0.24026751  0.87887530  0.74388563  1
  O  O338  1  0.74935801  0.39264148  0.24171868  1
  O  O339  1  0.74443906  0.38220283  0.74332265  1
  O  O340  1  0.74074585  0.87854558  0.24606711  1
  O  O341  1  0.79009698  0.85503730  0.71092255  1
  O  O342  1  0.24920999  0.12560210  0.25768660  1
  O  O343  1  0.24241420  0.11573371  0.76644648  1
  O  O344  1  0.26007420  0.62959064  0.25929330  1
  O  O345  1  0.25160900  0.61680047  0.75204199  1
  O  O346  1  0.74062429  0.10539643  0.26487360  1
  O  O347  1  0.76449867  0.12985956  0.75270278  1
  O  O348  1  0.74851345  0.61932381  0.26017928  1
  O  O349  1  0.76053435  0.61147133  0.75190059  1
  O  O350  1  0.36533476  0.11444708  0.37079278  1
  O  O351  1  0.38392942  0.11213424  0.87985344  1
  O  O352  1  0.36683309  0.61348194  0.37342301  1
  O  O353  1  0.35973196  0.62581111  0.86762502  1
  O  O354  1  0.86286066  0.11188045  0.38141682  1
  O  O355  1  0.87724186  0.13778229  0.85786992  1
  O  O356  1  0.86692280  0.61925248  0.37563385  1
  O  O357  1  0.87502472  0.61415371  0.86806377  1
  O  O358  1  0.14473561  0.37643401  0.12991820  1
  O  O359  1  0.13107580  0.38639868  0.63097722  1
  O  O360  1  0.12128340  0.89732902  0.13664943  1
  O  O361  1  0.13167118  0.86845238  0.63591188  1
  O  O362  1  0.64490472  0.37433231  0.13076885  1
  O  O363  1  0.63290813  0.37570116  0.63324114  1
  O  O364  1  0.63757079  0.86112592  0.13727521  1
  O  O365  1  0.63460002  0.83961249  0.63765436  1
  O  O366  1  0.12292507  0.27184035  0.24315530  1
  O  O367  1  0.12014916  0.26421153  0.74270301  1
  O  O368  1  0.11893614  0.74272162  0.26501884  1
  O  O369  1  0.11350163  0.75522043  0.75146241  1
  O  O370  1  0.62870866  0.24914341  0.26853012  1
  O  O371  1  0.62309529  0.25711274  0.75521684  1
  O  O372  1  0.61580964  0.75456763  0.25723544  1
  O  O373  1  0.61227562  0.74049336  0.76761156  1
  O  O374  1  0.37976837  0.24292278  0.22980356  1
  O  O375  1  0.39829389  0.24538755  0.75243759  1
  O  O376  1  0.38160027  0.73820179  0.26084090  1
  O  O377  1  0.37843514  0.74501842  0.74506045  1
  O  O378  1  0.81615277  0.23608349  0.22730803  1
  O  O379  1  0.88716541  0.24359217  0.74009540  1
  O  O380  1  0.87017645  0.75190987  0.23833947  1
  O  O381  1  0.88001107  0.73730117  0.75220961  1
  O  O382  1  0.37337587  0.49496178  0.48622251  1
  O  O383  1  0.39217533  0.50678211  0.99401764  1
  O  O384  1  0.37874776  0.99035059  0.49331772  1
  O  O385  1  0.37111317  0.98959044  0.98288546  1
  O  O386  1  0.88046399  0.49867186  0.48969278  1
  O  O387  1  0.88208302  0.49638885  0.98934058  1
  O  O388  1  0.87656155  0.98958932  0.48855805  1
  O  O389  1  0.85985522  0.98248931  0.99825088  1
  O  O390  1  0.11712056  0.00344433  0.00295476  1
  O  O391  1  0.13138499  0.01968345  0.49563453  1
  O  O392  1  0.11476606  0.50161433  -0.00275590  1
  O  O393  1  0.11664850  0.50486909  0.50595948  1
  O  O394  1  0.64740101  0.02544549  -0.00461978  1
  O  O395  1  0.60046775  -0.00508822  0.49136915  1
  O  O396  1  0.61826113  0.51428883  -0.00625614  1
  O  O397  1  0.63228182  0.51943261  0.50182137  1
  O  O398  1  0.36455518  0.36164758  0.12675254  1
  O  O399  1  0.36639192  0.39055089  0.60861948  1
  O  O400  1  0.36761294  0.87940723  0.10704990  1
  O  O401  1  0.36166126  0.86810042  0.61660757  1
  O  O402  1  0.85861491  0.38550186  0.12528979  1
  O  O403  1  0.86891999  0.36543420  0.62404381  1
  O  O404  1  0.86662760  0.86750731  0.11945446  1
  O  O405  1  0.88446560  0.88686787  0.60236067  1
  O  O406  1  0.13856141  0.12737686  0.38120068  1
  O  O407  1  0.13334240  0.13693856  0.87622290  1
  O  O408  1  0.12629412  0.62867949  0.38263093  1
  O  O409  1  0.13548559  0.63598949  0.87386269  1
  O  O410  1  0.63675595  0.12973674  0.38280351  1
  O  O411  1  0.63108620  0.13774258  0.88225838  1
  O  O412  1  0.63293043  0.63467183  0.38114277  1
  O  O413  1  0.62716311  0.63515741  0.88701109  1
