# generated using pymatgen
data_V79Zn79O256
_symmetry_space_group_name_H-M   'P 1'
_cell_length_a   16.87726305
_cell_length_b   16.89587824
_cell_length_c   16.92685226
_cell_angle_alpha   90.05362511
_cell_angle_beta   90.00954150
_cell_angle_gamma   90.02524779
_symmetry_Int_Tables_number   1
_chemical_formula_structural   V79Zn79O256
_chemical_formula_sum   'V79 Zn79 O256'
_cell_volume   4826.79390479
_cell_formula_units_Z   1
loop_
 _symmetry_equiv_pos_site_id
 _symmetry_equiv_pos_as_xyz
  1  'x, y, z'
loop_
 _atom_site_type_symbol
 _atom_site_label
 _atom_site_symmetry_multiplicity
 _atom_site_fract_x
 _atom_site_fract_y
 _atom_site_fract_z
 _atom_site_occupancy
  V  V0  1  0.37299817  0.37647845  0.50040383  1
  V  V1  1  0.24675958  0.25250938  0.47152926  1
  V  V2  1  0.48866427  0.88297375  0.87372943  1
  V  V3  1  0.24728279  0.87489103  0.11938184  1
  V  V4  1  0.87660927  0.74888760  0.13228104  1
  V  V5  1  0.00556613  0.26547837  0.75322962  1
  V  V6  1  0.37693688  0.62101307  0.73706580  1
  V  V7  1  0.62670113  0.23325239  0.37731013  1
  V  V8  1  0.74897341  0.50041129  0.75192626  1
  V  V9  1  0.13654047  0.37366292  0.24948196  1
  V  V10  1  0.38417003  0.50170932  0.89060681  1
  V  V11  1  0.74560870  0.24599086  -0.01039855  1
  V  V12  1  0.00416454  0.12743030  0.63286201  1
  V  V13  1  0.12915210  0.12843044  0.00288200  1
  V  V14  1  0.62448150  0.74880415  0.87193564  1
  V  V15  1  0.87313993  0.87837504  0.00031698  1
  V  V16  1  0.25167554  0.61710632  0.87091846  1
  V  V17  1  0.11599867  0.00188221  0.12261340  1
  V  V18  1  0.37875927  0.74839510  0.15058515  1
  V  V19  1  0.50447645  0.12158722  0.12393970  1
  V  V20  1  0.38390167  0.84745206  0.49971071  1
  V  V21  1  0.75672668  0.61965995  0.37305415  1
  V  V22  1  0.74679513  0.00096791  0.26087827  1
  V  V23  1  0.14286478  0.48874264  0.63691524  1
  V  V24  1  0.12047478  0.87217523  0.25023621  1
  V  V25  1  0.26125339  0.75217178  -0.00154412  1
  V  V26  1  -0.00541771  0.00252552  0.50018203  1
  V  V27  1  0.76825977  0.01358137  0.76543675  1
  V  V28  1  0.12407684  0.26253667  0.87274689  1
  V  V29  1  0.88360312  0.50272173  0.37061318  1
  V  V30  1  -0.00658648  0.87948634  0.37803541  1
  V  V31  1  0.50295935  0.37556851  0.89110176  1
  V  V32  1  0.50749128  0.24880260  0.74615025  1
  V  V33  1  -0.00534608  0.87710452  0.87377378  1
  V  V34  1  0.62460056  0.88738220  0.74448547  1
  V  V35  1  0.50625432  0.62008485  0.61483777  1
  V  V36  1  0.55919551  0.57140464  0.05970318  1
  V  V37  1  0.87948380  0.37997990  0.50347011  1
  V  V38  1  0.86608419  0.26005488  0.13258050  1
  V  V39  1  0.00145380  0.61270249  0.62146403  1
  V  V40  1  0.86909574  0.37861953  -0.01163831  1
  V  V41  1  0.75318745  0.75090223  0.50651754  1
  V  V42  1  0.48596866  -0.00358821  -0.01167855  1
  V  V43  1  0.86970077  0.12189632  0.26183493  1
  V  V44  1  0.13438463  0.12886395  0.48713922  1
  V  V45  1  -0.00468535  0.49500229  -0.00949071  1
  V  V46  1  0.12922869  0.61488112  0.50191650  1
  V  V47  1  0.12459268  0.74473132  0.87865678  1
  V  V48  1  0.50619830  0.38453194  0.38015208  1
  V  V49  1  -0.01599105  0.01982626  -0.01949249  1
  V  V50  1  0.36499550  0.49765246  0.35966491  1
  V  V51  1  0.62810960  0.61080290  0.50476900  1
  V  V52  1  -0.00119760  0.74661776  0.74840839  1
  V  V53  1  0.37574140  0.12042725  0.75379159  1
  V  V54  1  0.00561397  0.36606758  0.37665853  1
  V  V55  1  0.37768804  0.26084420  0.12261678  1
  V  V56  1  0.62718937  0.75750907  0.36674244  1
  V  V57  1  -0.00696575  0.62057018  0.13339419  1
  V  V58  1  0.87866890  0.24476982  0.63147960  1
  V  V59  1  0.37051851  0.11592010  0.25026438  1
  V  V60  1  0.13676738  0.49881750  0.13094843  1
  V  V61  1  0.74607939  0.23881043  0.50081753  1
  V  V62  1  0.87617305  0.61805346  0.75500533  1
  V  V63  1  0.74205899  0.37699107  0.62753078  1
  V  V64  1  0.25171745  0.85643966  0.61562801  1
  V  V65  1  0.75069849  0.88463509  0.62719832  1
  V  V66  1  0.74860790  0.62577554  0.87707869  1
  V  V67  1  0.12826284  0.74967901  0.38507140  1
  V  V68  1  0.62284055  0.37962925  0.75506370  1
  V  V69  1  0.63014068  0.38433969  0.24469032  1
  V  V70  1  0.32142194  0.30989883  0.67796317  1
  V  V71  1  0.62940734  0.12149355  -0.02066223  1
  V  V72  1  0.25521714  -0.00362485  0.76060240  1
  V  V73  1  0.12579118  0.87289908  0.74815318  1
  V  V74  1  0.13749262  0.00213462  0.62302594  1
  V  V75  1  0.25103984  0.62386778  0.36409135  1
  V  V76  1  0.36831306  0.00041027  0.39522301  1
  V  V77  1  0.74254593  0.87425625  0.12909826  1
  V  V78  1  0.25412980  0.26615711  0.00842968  1
  Zn  Zn79  1  0.49602506  0.75592262  0.73722180  1
  Zn  Zn80  1  0.87310760  0.88205256  0.50050261  1
  Zn  Zn81  1  0.12464122  0.62138398  0.00239920  1
  Zn  Zn82  1  0.74663221  0.74839407  0.00405669  1
  Zn  Zn83  1  0.25647109  0.11915695  0.88334134  1
  Zn  Zn84  1  -0.00404533  0.13069674  0.13052168  1
  Zn  Zn85  1  -0.00478701  0.74253311  0.25768117  1
  Zn  Zn86  1  0.87674506  0.75103939  0.62555065  1
  Zn  Zn87  1  0.56356819  0.81570026  0.21774149  1
  Zn  Zn88  1  0.00461120  0.24766902  0.25174310  1
  Zn  Zn89  1  0.75796980  0.49191394  0.22861789  1
  Zn  Zn90  1  0.24028231  0.00700227  0.25504715  1
  Zn  Zn91  1  0.50563609  0.24578355  0.24951567  1
  Zn  Zn92  1  0.62195871  -0.00880437  0.12468612  1
  Zn  Zn93  1  0.51377296  0.01476545  0.51014449  1
  Zn  Zn94  1  0.18916115  0.19242814  0.18823581  1
  Zn  Zn95  1  0.18879228  0.18208356  0.69109361  1
  Zn  Zn96  1  0.18431615  0.68850670  0.18680765  1
  Zn  Zn97  1  0.18585649  0.67703967  0.69038894  1
  Zn  Zn98  1  0.68934809  0.18998075  0.18810243  1
  Zn  Zn99  1  0.69361394  0.19235011  0.70235989  1
  Zn  Zn100  1  0.69930478  0.66202174  0.17712956  1
  Zn  Zn101  1  0.68466180  0.69162207  0.68871191  1
  Zn  Zn102  1  0.31790420  0.31134017  0.30414958  1
  Zn  Zn103  1  0.31836251  0.31220440  0.83942959  1
  Zn  Zn104  1  0.30504477  0.82154764  0.32023036  1
  Zn  Zn105  1  0.31132085  0.80446764  0.80472728  1
  Zn  Zn106  1  0.81009708  0.31394412  0.31832083  1
  Zn  Zn107  1  0.81611262  0.31057342  0.81186078  1
  Zn  Zn108  1  0.80684469  0.81268054  0.31366642  1
  Zn  Zn109  1  0.81182333  0.81407725  0.81003213  1
  Zn  Zn110  1  0.18682927  0.43981003  0.44163495  1
  Zn  Zn111  1  0.18813497  0.44223922  0.94243066  1
  Zn  Zn112  1  0.19044763  0.93971084  0.43856789  1
  Zn  Zn113  1  0.17699612  0.93553932  0.93972186  1
  Zn  Zn114  1  0.69442159  0.43306729  0.43925432  1
  Zn  Zn115  1  0.68519482  0.44321641  0.94328171  1
  Zn  Zn116  1  0.68696781  0.93774335  0.43688838  1
  Zn  Zn117  1  0.68545231  0.93676158  0.93632993  1
  Zn  Zn118  1  0.31044431  0.06416559  0.06804914  1
  Zn  Zn119  1  0.35796119  0.11582468  0.54560853  1
  Zn  Zn120  1  0.31905354  0.57280321  0.06573040  1
  Zn  Zn121  1  0.31181194  0.56366526  0.55386669  1
  Zn  Zn122  1  0.80909141  0.06663115  0.07147382  1
  Zn  Zn123  1  0.69131557  0.06129434  0.56737713  1
  Zn  Zn124  1  0.80934456  0.55955676  0.06096490  1
  Zn  Zn125  1  0.81560611  0.56063820  0.56622165  1
  Zn  Zn126  1  0.45040647  0.44216506  0.18739255  1
  Zn  Zn127  1  0.44386308  0.44609008  0.68973931  1
  Zn  Zn128  1  0.43394047  0.93536855  0.17555907  1
  Zn  Zn129  1  0.42933400  0.93588634  0.67889706  1
  Zn  Zn130  1  0.94108122  0.43480643  0.18857730  1
  Zn  Zn131  1  0.93687605  0.43708527  0.68974437  1
  Zn  Zn132  1  0.93383677  0.93917721  0.18582285  1
  Zn  Zn133  1  0.93743638  0.94251781  0.68367829  1
  Zn  Zn134  1  0.05672926  0.06243122  0.31140798  1
  Zn  Zn135  1  0.07057109  0.06779027  0.81296393  1
  Zn  Zn136  1  0.06459600  0.55794497  0.31359303  1
  Zn  Zn137  1  0.06488097  0.55487505  0.80893756  1
  Zn  Zn138  1  0.54345342  0.00501889  0.30152118  1
  Zn  Zn139  1  0.55700071  0.06532245  0.69583241  1
  Zn  Zn140  1  0.56241060  0.56617770  0.30795071  1
  Zn  Zn141  1  0.56056054  0.56156161  0.80923314  1
  Zn  Zn142  1  0.43652441  0.19328531  0.42367600  1
  Zn  Zn143  1  0.44175032  0.18743395  0.93451397  1
  Zn  Zn144  1  0.45255573  0.67882163  0.40643179  1
  Zn  Zn145  1  0.43583254  0.69255311  0.92653797  1
  Zn  Zn146  1  0.93715742  0.18548519  0.44555097  1
  Zn  Zn147  1  0.94239668  0.19570768  0.94375079  1
  Zn  Zn148  1  0.94163486  0.68974797  0.44200485  1
  Zn  Zn149  1  0.93456063  0.68519586  0.94303612  1
  Zn  Zn150  1  0.05815196  0.31523427  0.06719431  1
  Zn  Zn151  1  0.06841088  0.31342203  0.56095344  1
  Zn  Zn152  1  0.05675280  0.81312720  0.05899250  1
  Zn  Zn153  1  0.06334649  0.81130254  0.56208762  1
  Zn  Zn154  1  0.56874866  0.30816806  0.06550615  1
  Zn  Zn155  1  0.55319315  0.19480437  0.56333969  1
  Zn  Zn156  1  0.55113242  0.73854991  0.05546760  1
  Zn  Zn157  1  0.56320362  0.80638415  0.55950075  1
  O  O158  1  0.12761308  0.11550137  0.12295742  1
  O  O159  1  0.12370917  0.11876295  0.61693498  1
  O  O160  1  0.11433705  0.61459973  0.12405566  1
  O  O161  1  0.12078620  0.61440743  0.61986822  1
  O  O162  1  0.61170584  0.12860746  0.12317779  1
  O  O163  1  0.62580717  0.13312273  0.63077762  1
  O  O164  1  0.60535174  0.64919636  0.11414446  1
  O  O165  1  0.62082969  0.62472515  0.61465154  1
  O  O166  1  0.37886802  0.38191283  0.37514586  1
  O  O167  1  0.38741752  0.39315795  0.87797456  1
  O  O168  1  0.36581429  0.88553539  0.39621249  1
  O  O169  1  0.39100540  0.86769679  0.86285486  1
  O  O170  1  0.88326589  0.38278765  0.38264124  1
  O  O171  1  0.87783503  0.37228062  0.88986809  1
  O  O172  1  0.88988346  0.86843991  0.37815739  1
  O  O173  1  0.88573915  0.86611752  0.88467935  1
  O  O174  1  0.26145653  -0.00250737  0.36862781  1
  O  O175  1  0.24011474  -0.00532770  0.86451804  1
  O  O176  1  0.25529672  0.50663645  0.37216856  1
  O  O177  1  0.26123535  0.50969659  0.88307810  1
  O  O178  1  0.75512514  -0.00574446  0.35897206  1
  O  O179  1  0.75265017  -0.00634921  0.86340372  1
  O  O180  1  0.76150544  0.50951075  0.37965421  1
  O  O181  1  0.74331659  0.51182092  0.86292270  1
  O  O182  1  0.23471152  0.50866169  0.11632135  1
  O  O183  1  0.24212547  0.50326193  0.62274923  1
  O  O184  1  0.23354770  0.99041762  0.11969880  1
  O  O185  1  0.24091226  0.98885264  0.63548823  1
  O  O186  1  0.73454008  0.55263952  0.14033206  1
  O  O187  1  0.75879463  0.48884302  0.63946932  1
  O  O188  1  0.74514170  0.98810032  0.12889845  1
  O  O189  1  0.75025332  0.98917707  0.63888218  1
  O  O190  1  0.00357762  0.37334186  0.26485510  1
  O  O191  1  0.00364645  0.36513287  0.75012169  1
  O  O192  1  0.00780470  0.87842274  0.25829847  1
  O  O193  1  0.00421358  0.86499765  0.75367930  1
  O  O194  1  0.51006102  0.37115084  0.26388046  1
  O  O195  1  0.50732589  0.37270031  0.75609328  1
  O  O196  1  0.51039251  0.90682621  0.25074333  1
  O  O197  1  0.51018667  0.87865041  0.75490279  1
  O  O198  1  0.48886801  0.11932432  0.23777857  1
  O  O199  1  0.49623561  0.14422935  0.76134386  1
  O  O200  1  0.48517557  0.64107115  0.30306887  1
  O  O201  1  0.49395663  0.62524988  0.73665074  1
  O  O202  1  0.98656710  0.12946193  0.24945675  1
  O  O203  1  1.01278938  0.13471560  0.73748644  1
  O  O204  1  1.00185580  0.62265082  0.23748113  1
  O  O205  1  0.99484449  0.62896835  0.74618965  1
  O  O206  1  0.36507634  0.24585277  0.01050259  1
  O  O207  1  0.35906075  0.26151733  0.48673559  1
  O  O208  1  0.36245839  0.75372181  -0.00309440  1
  O  O209  1  0.38626750  0.75060472  0.48125704  1
  O  O210  1  0.86850016  0.26029441  0.00864021  1
  O  O211  1  0.86630456  0.25992310  0.50692176  1
  O  O212  1  0.87639629  0.76104266  0.01069356  1
  O  O213  1  0.86509441  0.75088723  0.50471424  1
  O  O214  1  0.13930028  0.24468664  0.49975015  1
  O  O215  1  0.13579426  0.24953350  1.00198386  1
  O  O216  1  0.12120423  0.74025827  0.48996803  1
  O  O217  1  0.12553906  0.74615404  0.98845784  1
  O  O218  1  0.63553958  0.24639829  0.49261932  1
  O  O219  1  0.63822734  0.24082225  1.00110184  1
  O  O220  1  0.64151240  0.74420117  0.49310522  1
  O  O221  1  0.63015853  0.76111745  0.97679656  1
  O  O222  1  0.49062412  0.24016803  0.12260683  1
  O  O223  1  0.50016944  0.25706641  0.64744171  1
  O  O224  1  0.48150065  0.77447249  0.13639019  1
  O  O225  1  0.50441655  0.73130635  0.62394079  1
  O  O226  1  0.98275813  0.25340795  0.13039195  1
  O  O227  1  1.00096733  0.24766912  0.63302653  1
  O  O228  1  0.99711086  0.73645532  0.12442699  1
  O  O229  1  1.00564823  0.74060555  0.63759355  1
  O  O230  1  -0.00398497  0.26295338  0.37399622  1
  O  O231  1  0.01471128  0.24764485  0.87009086  1
  O  O232  1  0.00954462  0.75764331  0.37498721  1
  O  O233  1  0.00589227  0.75302405  0.86832067  1
  O  O234  1  0.51425159  0.25900486  0.37152919  1
  O  O235  1  0.48963962  0.27150708  0.86727089  1
  O  O236  1  0.52939441  0.76508565  0.38565986  1
  O  O237  1  0.51181494  0.76279255  0.87116891  1
  O  O238  1  0.25065696  0.14593154  0.50080842  1
  O  O239  1  0.24099289  0.13189806  1.00390477  1
  O  O240  1  0.23669189  0.62364178  0.48825479  1
  O  O241  1  0.24647122  0.63545275  0.98931216  1
  O  O242  1  0.75819822  0.14162413  0.50923447  1
  O  O243  1  0.74017250  0.13316588  1.00255671  1
  O  O244  1  0.74483381  0.63013592  0.50303724  1
  O  O245  1  0.76135714  0.63024846  0.98006668  1
  O  O246  1  0.25217086  0.36502397  0.00326132  1
  O  O247  1  0.25763887  0.36273831  0.49153375  1
  O  O248  1  0.23449483  0.86426047  0.00949945  1
  O  O249  1  0.25378263  0.86949995  0.51161472  1
  O  O250  1  0.75904695  0.36646600  -0.00335506  1
  O  O251  1  0.75797284  0.36791614  0.51124449  1
  O  O252  1  0.75752478  0.87366829  0.00913355  1
  O  O253  1  0.75216488  0.86947269  0.51067060  1
  O  O254  1  0.12267341  0.49171418  0.23851202  1
  O  O255  1  0.13049344  0.50099275  0.73758462  1
  O  O256  1  0.12077129  0.99362787  0.23948245  1
  O  O257  1  0.13251831  0.99350302  0.74176464  1
  O  O258  1  0.62488680  0.48812726  0.25874189  1
  O  O259  1  0.63459479  0.49120884  0.74989481  1
  O  O260  1  0.64314990  1.00873911  0.24515360  1
  O  O261  1  0.63370282  0.98907463  0.75067212  1
  O  O262  1  0.36999364  0.00961453  0.24649071  1
  O  O263  1  0.36403495  0.00384979  0.74992208  1
  O  O264  1  0.37378587  0.49308662  0.26122194  1
  O  O265  1  0.38065687  0.51612718  0.76100098  1
  O  O266  1  0.86880673  0.01561537  0.24385551  1
  O  O267  1  0.86827073  -0.00212726  0.75360303  1
  O  O268  1  0.87167601  0.49224363  0.26714951  1
  O  O269  1  0.86786831  0.50897626  0.75161671  1
  O  O270  1  0.11228092  0.38635804  0.36505504  1
  O  O271  1  0.13011531  0.36150642  0.88285764  1
  O  O272  1  0.12138861  0.86751905  0.37000967  1
  O  O273  1  0.11760201  0.86008186  0.86877830  1
  O  O274  1  0.61352916  0.37661033  0.37668055  1
  O  O275  1  0.61187493  0.38549188  0.86877057  1
  O  O276  1  0.65464223  0.85509450  0.36641628  1
  O  O277  1  0.62031670  0.86925163  0.86076651  1
  O  O278  1  0.38579982  0.13007444  0.12910537  1
  O  O279  1  0.37326425  0.13322831  0.65369841  1
  O  O280  1  0.37171945  0.64984249  0.12920056  1
  O  O281  1  0.38147275  0.62050500  0.63092403  1
  O  O282  1  0.87563957  0.14005900  0.13273421  1
  O  O283  1  0.89403186  0.14179244  0.61749030  1
  O  O284  1  0.88807935  0.63290102  0.11890907  1
  O  O285  1  0.88455209  0.62638435  0.63553911  1
  O  O286  1  0.26359951  0.25067986  0.11701252  1
  O  O287  1  0.25449339  0.25354488  0.62752906  1
  O  O288  1  0.25328459  0.75531556  0.11837122  1
  O  O289  1  0.23936761  0.75859296  0.62810046  1
  O  O290  1  0.76065272  0.24847480  0.11301789  1
  O  O291  1  0.75956988  0.25742164  0.62155460  1
  O  O292  1  0.76065542  0.75417732  0.12469351  1
  O  O293  1  0.75139584  0.75904083  0.62080191  1
  O  O294  1  0.24501275  0.25027911  0.37287051  1
  O  O295  1  0.24138876  0.24769968  0.89368870  1
  O  O296  1  0.23918832  0.73732324  0.37199902  1
  O  O297  1  0.24221251  0.74340270  0.87978192  1
  O  O298  1  0.74013000  0.25554537  0.39177264  1
  O  O299  1  0.76025314  0.24636666  0.89042068  1
  O  O300  1  0.75609054  0.73571528  0.38735960  1
  O  O301  1  0.73957678  0.74463851  0.86946491  1
  O  O302  1  0.01967698  0.13419608  0.01426804  1
  O  O303  1  0.01347872  0.12266959  0.50903719  1
  O  O304  1  -0.00044535  0.61122349  0.00856478  1
  O  O305  1  0.01007661  0.62992361  0.51388037  1
  O  O306  1  0.51154238  0.11920190  -0.00049596  1
  O  O307  1  0.47304175  0.13174345  0.51108625  1
  O  O308  1  0.50275250  0.63678562  -0.00058520  1
  O  O309  1  0.51811571  0.62839836  0.50306526  1
  O  O310  1  0.47979250  0.36560882  0.48272756  1
  O  O311  1  0.50870551  0.37025124  0.98972218  1
  O  O312  1  0.48156865  0.87536801  0.51177339  1
  O  O313  1  0.50080086  0.88914715  0.98376035  1
  O  O314  1  0.99276156  0.36863040  0.48755512  1
  O  O315  1  0.98662850  0.38663897  1.00688536  1
  O  O316  1  1.00248033  0.88349280  0.49527249  1
  O  O317  1  0.99319315  0.88582176  0.99031457  1
  O  O318  1  0.48609578  0.48735773  0.37575197  1
  O  O319  1  0.49239015  0.49470343  0.87680787  1
  O  O320  1  0.47472014  1.00494611  0.39085346  1
  O  O321  1  0.49872882  0.99094618  0.88014871  1
  O  O322  1  0.98831693  0.49283740  0.37508572  1
  O  O323  1  1.00462125  0.50324072  0.89195534  1
  O  O324  1  1.01035383  0.98882830  0.38697620  1
  O  O325  1  1.01925027  0.98064764  0.87326697  1
  O  O326  1  0.00661208  0.00276802  0.11302782  1
  O  O327  1  0.01475205  0.00715883  0.62110771  1
  O  O328  1  0.00104633  0.51019950  0.12054679  1
  O  O329  1  0.00713802  0.50964850  0.63201939  1
  O  O330  1  0.50290599  0.00524530  0.10554152  1
  O  O331  1  0.49791929  0.00268610  0.62406422  1
  O  O332  1  0.50043649  0.51606982  0.12105006  1
  O  O333  1  0.49905318  0.51861764  0.62168997  1
  O  O334  1  0.23550325  0.37580388  0.25569316  1
  O  O335  1  0.27144023  0.36656932  0.74195709  1
  O  O336  1  0.23298217  0.87768171  0.24144551  1
  O  O337  1  0.24633095  0.87663930  0.73950830  1
  O  O338  1  0.73608410  0.38040852  0.26074169  1
  O  O339  1  0.74550468  0.38031540  0.75027556  1
  O  O340  1  0.76342467  0.88969095  0.23902525  1
  O  O341  1  0.74141401  0.87993024  0.74530545  1
  O  O342  1  0.26576227  0.12352526  0.23608098  1
  O  O343  1  0.25433082  0.11233052  0.75737602  1
  O  O344  1  0.24161411  0.62392784  0.26468359  1
  O  O345  1  0.26376737  0.62927547  0.76031965  1
  O  O346  1  0.76040683  0.11545335  0.24491396  1
  O  O347  1  0.75517201  0.11353220  0.75419176  1
  O  O348  1  0.75761181  0.62868962  0.27513328  1
  O  O349  1  0.75660681  0.61936465  0.75201801  1
  O  O350  1  0.37352291  0.11820617  0.35684780  1
  O  O351  1  0.37045454  0.13510810  0.86324522  1
  O  O352  1  0.35797443  0.60905459  0.38428031  1
  O  O353  1  0.37111764  0.61559020  0.86904702  1
  O  O354  1  0.87558671  0.13515559  0.36083910  1
  O  O355  1  0.92716284  0.08224929  0.92159151  1
  O  O356  1  0.87152691  0.61102333  0.38831783  1
  O  O357  1  0.86636022  0.63409078  0.86202565  1
  O  O358  1  0.11914426  0.38901666  0.13652320  1
  O  O359  1  0.12575846  0.39041023  0.61852887  1
  O  O360  1  0.12367683  0.88004568  0.13080691  1
  O  O361  1  0.13350920  0.88054062  0.62722664  1
  O  O362  1  0.61918473  0.36977269  0.14623287  1
  O  O363  1  0.64063814  0.37012016  0.63926743  1
  O  O364  1  0.63986556  0.86440806  0.12830491  1
  O  O365  1  0.63282321  0.86787634  0.63852267  1
  O  O366  1  0.12180993  0.26826421  0.23945911  1
  O  O367  1  0.12537767  0.24784605  0.76737274  1
  O  O368  1  0.11923890  0.75845005  0.25828514  1
  O  O369  1  0.11743680  0.74965686  0.75929486  1
  O  O370  1  0.63065369  0.26006492  0.26524314  1
  O  O371  1  0.61591507  0.26264200  0.75754086  1
  O  O372  1  0.63427967  0.73660788  0.26249755  1
  O  O373  1  0.62234336  0.76198852  0.75756026  1
  O  O374  1  0.37875013  0.23854730  0.23742626  1
  O  O375  1  0.37989225  0.25369264  0.75083173  1
  O  O376  1  0.36672062  0.75620623  0.24918044  1
  O  O377  1  0.38251169  0.72842108  0.75765675  1
  O  O378  1  0.86514559  0.24434312  0.24223153  1
  O  O379  1  0.88771012  0.25491495  0.74123060  1
  O  O380  1  0.87867863  0.75578622  0.23722030  1
  O  O381  1  0.88598076  0.74219515  0.74869007  1
  O  O382  1  0.36549523  0.48082539  0.48826404  1
  O  O383  1  0.37807099  0.50945738  0.98980366  1
  O  O384  1  0.35887259  1.00826284  0.49478210  1
  O  O385  1  0.38723261  1.00897215  0.99845777  1
  O  O386  1  0.87117723  0.48632958  0.49314724  1
  O  O387  1  0.88063635  0.48806294  1.00476407  1
  O  O388  1  0.89556306  1.00376912  0.50529294  1
  O  O389  1  0.87858991  0.98409772  1.01845898  1
  O  O390  1  0.11092445  0.01110939  0.00227034  1
  O  O391  1  0.12599751  0.00859976  0.50874685  1
  O  O392  1  0.11075753  0.49556295  0.01358322  1
  O  O393  1  0.12383733  0.50882288  0.50925272  1
  O  O394  1  0.62046545  0.01200778  -0.00035270  1
  O  O395  1  0.62617614  0.00898293  0.49325225  1
  O  O396  1  0.62240177  0.51394102  0.00494842  1
  O  O397  1  0.63318986  0.51242667  0.49794598  1
  O  O398  1  0.38721882  0.35887985  0.13248834  1
  O  O399  1  0.37901961  0.37523235  0.61292370  1
  O  O400  1  0.35351975  0.86746396  0.12920048  1
  O  O401  1  0.36065605  0.86561715  0.61401581  1
  O  O402  1  0.87201357  0.36545013  0.12356652  1
  O  O403  1  0.87232558  0.36675352  0.62015104  1
  O  O404  1  0.87103294  0.86566757  0.11874180  1
  O  O405  1  0.86625666  0.87192377  0.62390198  1
  O  O406  1  0.12332273  0.11903590  0.38824636  1
  O  O407  1  0.12941517  0.13586941  0.88882381  1
  O  O408  1  0.12969219  0.62703306  0.38123344  1
  O  O409  1  0.13330941  0.62963862  0.87289962  1
  O  O410  1  0.62176033  0.13813951  0.36954280  1
  O  O411  1  0.62626850  0.12689159  0.88476865  1
  O  O412  1  0.64279265  0.62956240  0.38910968  1
  O  O413  1  0.63137122  0.64040521  0.86200056  1
