# generated using pymatgen
data_V79Zn79O256
_symmetry_space_group_name_H-M   'P 1'
_cell_length_a   16.90641416
_cell_length_b   16.90484795
_cell_length_c   16.90420048
_cell_angle_alpha   89.93553487
_cell_angle_beta   90.06287713
_cell_angle_gamma   90.22393951
_symmetry_Int_Tables_number   1
_chemical_formula_structural   V79Zn79O256
_chemical_formula_sum   'V79 Zn79 O256'
_cell_volume   4831.18374815
_cell_formula_units_Z   1
loop_
 _symmetry_equiv_pos_site_id
 _symmetry_equiv_pos_as_xyz
  1  'x, y, z'
loop_
 _atom_site_type_symbol
 _atom_site_label
 _atom_site_symmetry_multiplicity
 _atom_site_fract_x
 _atom_site_fract_y
 _atom_site_fract_z
 _atom_site_occupancy
  V  V0  1  0.24871644  -0.00322552  0.75087631  1
  V  V1  1  0.48935607  0.62423141  0.13048996  1
  V  V2  1  0.49618294  -0.00430978  0.50352536  1
  V  V3  1  0.75028366  0.23942391  0.00601376  1
  V  V4  1  0.48771347  0.74819135  0.24701697  1
  V  V5  1  0.38511206  0.86854607  0.00913359  1
  V  V6  1  0.63464062  0.23059098  0.87156887  1
  V  V7  1  0.75633687  0.89634862  0.13566771  1
  V  V8  1  0.63205668  -0.01450641  0.62917390  1
  V  V9  1  0.74573773  0.72881799  0.50040854  1
  V  V10  1  0.25352371  0.51313332  0.25573468  1
  V  V11  1  0.50421564  0.38524358  0.87416369  1
  V  V12  1  0.12240558  -0.00177154  0.62546271  1
  V  V13  1  0.25015700  0.87435693  0.61571239  1
  V  V14  1  0.25982028  0.88302843  0.13324785  1
  V  V15  1  0.25347054  0.37418321  0.13066393  1
  V  V16  1  -0.00475013  0.74675358  0.75934828  1
  V  V17  1  0.62735904  0.37645300  0.74128096  1
  V  V18  1  0.62868459  0.73583670  0.37632348  1
  V  V19  1  0.85936630  0.60513156  0.26245830  1
  V  V20  1  0.37945422  0.74676635  0.62130620  1
  V  V21  1  0.51472204  0.00675026  -0.00098883  1
  V  V22  1  0.00132586  0.61589089  0.12783406  1
  V  V23  1  0.48507680  0.36356971  0.39079964  1
  V  V24  1  -0.00181156  0.50525928  0.50706082  1
  V  V25  1  0.51796522  0.12292315  0.12518881  1
  V  V26  1  0.37387332  0.24682013  0.13007771  1
  V  V27  1  0.25151112  0.12507446  0.87685868  1
  V  V28  1  0.86250890  0.87735852  0.50638281  1
  V  V29  1  0.12621944  0.25259551  0.87285620  1
  V  V30  1  -0.00335486  0.12526707  0.62348029  1
  V  V31  1  0.37919752  -0.00722243  0.87918188  1
  V  V32  1  0.62987035  0.25921489  0.38794652  1
  V  V33  1  0.55375745  0.30081037  0.20721627  1
  V  V34  1  0.85679182  0.26082483  0.61560135  1
  V  V35  1  0.23525765  0.74329366  0.00635330  1
  V  V36  1  0.74859459  -0.01648617  0.75389051  1
  V  V37  1  -0.00273447  -0.00083756  0.50037708  1
  V  V38  1  0.11871833  0.86934998  0.76414191  1
  V  V39  1  0.87594708  0.51501916  0.86770434  1
  V  V40  1  0.90628155  0.25769751  0.11561609  1
  V  V41  1  0.37650101  0.11811062  0.24769036  1
  V  V42  1  0.74958738  0.12560808  0.36865947  1
  V  V43  1  0.24566101  0.73203889  0.50078855  1
  V  V44  1  0.37414112  -0.00651488  0.37736120  1
  V  V45  1  0.24879176  0.25381594  0.00142363  1
  V  V46  1  0.87575640  0.73578433  0.62549351  1
  V  V47  1  0.37594724  0.12328216  0.75122202  1
  V  V48  1  0.00311318  0.09968267  0.12107925  1
  V  V49  1  0.86363257  0.12666455  0.75626897  1
  V  V50  1  0.13224214  0.88247035  0.25162746  1
  V  V51  1  0.12034640  0.36868178  0.24980688  1
  V  V52  1  0.62781751  0.51459889  0.62000707  1
  V  V53  1  -0.00790863  0.74329193  0.25205024  1
  V  V54  1  0.86896899  0.00005261  0.36003068  1
  V  V55  1  0.25176825  0.50488241  0.74783248  1
  V  V56  1  0.62538928  0.62568526  0.00727861  1
  V  V57  1  0.75737284  0.75882018  0.01098575  1
  V  V58  1  0.75025077  0.50388129  0.74866006  1
  V  V59  1  -0.00091306  0.25120644  0.74856075  1
  V  V60  1  0.87689261  0.38208879  -0.01072748  1
  V  V61  1  0.61935469  0.76209820  0.87056555  1
  V  V62  1  0.25087927  0.37838217  0.62001797  1
  V  V63  1  0.00042668  0.87296011  0.37545757  1
  V  V64  1  0.37355719  0.25162405  0.62245719  1
  V  V65  1  0.63142300  0.12634831  0.50499319  1
  V  V66  1  0.50359656  0.87462649  0.37955109  1
  V  V67  1  -0.00511681  0.37688994  0.38121230  1
  V  V68  1  0.37063384  0.51081615  0.38170503  1
  V  V69  1  0.38633268  0.63069083  0.75246859  1
  V  V70  1  0.12280427  0.10861996  0.00128750  1
  V  V71  1  0.11946956  0.24447656  0.36927406  1
  V  V72  1  0.48860903  0.51264171  0.51186400  1
  V  V73  1  0.88565930  -0.01380578  0.87855395  1
  V  V74  1  0.12589229  0.37895288  0.74044029  1
  V  V75  1  0.49748973  0.24833153  0.75320405  1
  V  V76  1  0.24941784  0.11739510  0.36859776  1
  V  V77  1  0.12914452  0.73456336  0.37953588  1
  V  V78  1  0.25302156  0.25146271  0.49670152  1
  Zn  Zn79  1  0.88522732  0.13344655  0.25132089  1
  Zn  Zn80  1  0.04735782  0.55582697  -0.03459868  1
  Zn  Zn81  1  0.01383556  0.62409754  0.62080966  1
  Zn  Zn82  1  0.50144509  0.12193190  0.62671598  1
  Zn  Zn83  1  0.50239579  0.49825521  0.01662655  1
  Zn  Zn84  1  0.12438383  0.12263273  0.49802270  1
  Zn  Zn85  1  0.37614756  0.50969530  0.88324713  1
  Zn  Zn86  1  0.63496553  0.88807824  0.24988833  1
  Zn  Zn87  1  0.23171809  0.63874695  0.87923080  1
  Zn  Zn88  1  0.13183020  0.50595746  0.11813567  1
  Zn  Zn89  1  0.70829370  0.43779357  0.17714469  1
  Zn  Zn90  1  0.00205707  0.38705381  0.86783798  1
  Zn  Zn91  1  0.37660631  0.37705865  -0.00306077  1
  Zn  Zn92  1  0.50805257  0.76469082  0.74679588  1
  Zn  Zn93  1  0.74921635  0.63210734  0.87397846  1
  Zn  Zn94  1  0.18390748  0.18043229  0.18619754  1
  Zn  Zn95  1  0.18742594  0.18685132  0.68625327  1
  Zn  Zn96  1  0.18707212  0.69413761  0.18526315  1
  Zn  Zn97  1  0.18988571  0.69185294  0.69458570  1
  Zn  Zn98  1  0.75527423  0.25960258  0.22594534  1
  Zn  Zn99  1  0.68347361  0.18236244  0.68932731  1
  Zn  Zn100  1  0.68211232  0.69327120  0.19103535  1
  Zn  Zn101  1  0.69176304  0.69139959  0.68746168  1
  Zn  Zn102  1  0.31217535  0.30871630  0.31153254  1
  Zn  Zn103  1  0.31260943  0.31779250  0.81234143  1
  Zn  Zn104  1  0.31335502  0.80956793  0.31802399  1
  Zn  Zn105  1  0.31051517  0.81157786  0.81737869  1
  Zn  Zn106  1  0.80222968  0.41906390  0.33946182  1
  Zn  Zn107  1  0.80815661  0.31795533  0.81164052  1
  Zn  Zn108  1  0.80960163  0.81192453  0.31308724  1
  Zn  Zn109  1  0.81185261  0.80702533  0.81627150  1
  Zn  Zn110  1  0.18446590  0.43378384  0.43355148  1
  Zn  Zn111  1  0.17583919  0.46185680  0.92182756  1
  Zn  Zn112  1  0.18531087  0.93526824  0.43869803  1
  Zn  Zn113  1  0.19591583  0.92870150  0.94106577  1
  Zn  Zn114  1  0.66368884  0.45788810  0.42768211  1
  Zn  Zn115  1  0.71577817  0.46063710  0.97727238  1
  Zn  Zn116  1  0.68550357  0.94107748  0.43536380  1
  Zn  Zn117  1  0.70086460  0.93930396  0.94125132  1
  Zn  Zn118  1  0.31337647  0.05955338  0.06282633  1
  Zn  Zn119  1  0.30962255  0.06377749  0.56088560  1
  Zn  Zn120  1  0.31730729  0.56241581  0.06398262  1
  Zn  Zn121  1  0.17739962  0.55548748  0.56479118  1
  Zn  Zn122  1  0.81389852  0.06732914  0.05873255  1
  Zn  Zn123  1  0.81129959  0.06424987  0.56355619  1
  Zn  Zn124  1  0.80898706  0.58063062  0.08151466  1
  Zn  Zn125  1  0.80768070  0.43788675  0.54588629  1
  Zn  Zn126  1  0.43349752  0.44311821  0.19319773  1
  Zn  Zn127  1  0.43405864  0.43956973  0.68751170  1
  Zn  Zn128  1  0.47766113  0.95628188  0.20630973  1
  Zn  Zn129  1  0.43466662  0.93364211  0.68269449  1
  Zn  Zn130  1  0.92977948  0.43661529  0.19032746  1
  Zn  Zn131  1  0.93501804  0.43944957  0.68222261  1
  Zn  Zn132  1  0.92644048  0.91709828  0.04828325  1
  Zn  Zn133  1  0.93527561  0.93421391  0.69073757  1
  Zn  Zn134  1  0.05811186  0.05992024  0.30970152  1
  Zn  Zn135  1  0.06243275  0.06378665  0.81173849  1
  Zn  Zn136  1  0.06407776  0.55460983  0.31288838  1
  Zn  Zn137  1  0.06570614  0.56765303  0.79721237  1
  Zn  Zn138  1  0.56704756  0.07187458  0.31270684  1
  Zn  Zn139  1  0.56159899  -0.06114067  0.81593650  1
  Zn  Zn140  1  0.55272899  0.55938580  0.31332489  1
  Zn  Zn141  1  0.57031187  0.56980422  0.81320314  1
  Zn  Zn142  1  0.43770312  0.17847937  0.44042256  1
  Zn  Zn143  1  0.44187826  0.18659130  0.93793162  1
  Zn  Zn144  1  0.43456679  0.69024921  0.43947802  1
  Zn  Zn145  1  0.44051538  0.68838456  0.93672736  1
  Zn  Zn146  1  0.93180829  0.19156183  0.43825567  1
  Zn  Zn147  1  0.93860626  0.18436971  0.93701112  1
  Zn  Zn148  1  0.93322361  0.67934797  0.43919701  1
  Zn  Zn149  1  0.96487731  0.74238567  0.97031638  1
  Zn  Zn150  1  0.07393752  0.34505946  0.04496120  1
  Zn  Zn151  1  0.06357182  0.30981715  0.55763830  1
  Zn  Zn152  1  0.07151398  0.81314800  0.07633229  1
  Zn  Zn153  1  0.06333526  0.81131978  0.56382776  1
  Zn  Zn154  1  0.57057353  0.30960191  0.04488565  1
  Zn  Zn155  1  0.55717714  0.31532752  0.56329363  1
  Zn  Zn156  1  0.57209422  0.81550985  0.06656115  1
  Zn  Zn157  1  0.56473453  0.80857443  0.55920308  1
  O  O158  1  0.11765874  0.12196389  0.11116343  1
  O  O159  1  0.11345308  0.11870367  0.62616712  1
  O  O160  1  0.10987656  0.62081272  0.13750073  1
  O  O161  1  0.12679250  0.63017782  0.62836142  1
  O  O162  1  0.61261581  0.13267293  0.12946698  1
  O  O163  1  0.62143900  0.11566118  0.61936114  1
  O  O164  1  0.61622755  0.63468409  0.11226077  1
  O  O165  1  0.62420874  0.61326258  0.62867325  1
  O  O166  1  0.38318577  0.37600804  0.37311704  1
  O  O167  1  0.39350649  0.37050942  0.87410365  1
  O  O168  1  0.38521504  0.88507102  0.37320289  1
  O  O169  1  0.36743425  0.88550034  0.89230799  1
  O  O170  1  0.89997312  0.35701813  0.36312006  1
  O  O171  1  0.87935102  0.38056902  0.87559617  1
  O  O172  1  0.88186070  0.88001684  0.38299996  1
  O  O173  1  0.87799831  0.88682519  0.86694974  1
  O  O174  1  0.26044589  0.00720815  0.38541469  1
  O  O175  1  0.25924918  0.00482463  0.87125725  1
  O  O176  1  0.26054944  0.49372499  0.36778859  1
  O  O177  1  0.26444140  0.48411330  0.85428076  1
  O  O178  1  0.75509571  0.01285137  0.37639970  1
  O  O179  1  0.76040372  -0.00320577  0.85883427  1
  O  O180  1  0.69664364  0.50994408  0.32775485  1
  O  O181  1  0.75988441  0.50272638  0.86978997  1
  O  O182  1  0.25563678  0.49163553  0.13883268  1
  O  O183  1  0.25176964  0.48641399  0.63204538  1
  O  O184  1  0.25019079  0.98290576  0.12253737  1
  O  O185  1  0.24533538  0.99382819  0.63004083  1
  O  O186  1  0.74282709  0.49081738  0.08772839  1
  O  O187  1  0.73256122  0.49435519  0.62715129  1
  O  O188  1  0.75294759  0.99664241  0.12166692  1
  O  O189  1  0.73843410  1.00371029  0.63348941  1
  O  O190  1  0.01617569  0.38171665  0.25658185  1
  O  O191  1  0.00789645  0.36633429  0.74380873  1
  O  O192  1  0.01539761  0.85830630  0.26398365  1
  O  O193  1  0.01197020  0.86594827  0.74387695  1
  O  O194  1  0.49704652  0.36725422  0.26082739  1
  O  O195  1  0.50090996  0.36476135  0.75517934  1
  O  O196  1  0.49848989  0.85673618  0.26313865  1
  O  O197  1  0.49073333  0.87567295  0.75775101  1
  O  O198  1  0.48904510  0.12623159  0.23504499  1
  O  O199  1  0.48560374  0.13579205  0.75062187  1
  O  O200  1  0.50789806  0.63647488  0.24116154  1
  O  O201  1  0.48835297  0.63332459  0.75327644  1
  O  O202  1  1.00291975  0.11552133  0.22675078  1
  O  O203  1  0.99221993  0.13148805  0.73954970  1
  O  O204  1  0.99418004  0.63041928  0.25394055  1
  O  O205  1  1.00459692  0.64377848  0.74073013  1
  O  O206  1  0.36721275  0.24738193  0.01137462  1
  O  O207  1  0.36607927  0.23841960  0.51155360  1
  O  O208  1  0.38329703  0.76839678  0.00026291  1
  O  O209  1  0.36110620  0.74501069  0.51159865  1
  O  O210  1  0.87128857  0.25287099  0.00331452  1
  O  O211  1  0.87265350  0.24599951  0.51771804  1
  O  O212  1  0.85335968  0.74139079  -0.00789481  1
  O  O213  1  0.86501346  0.75699091  0.50354038  1
  O  O214  1  0.13594319  0.24359596  0.48963665  1
  O  O215  1  0.13763834  0.25254545  0.99260237  1
  O  O216  1  0.13409462  0.75173170  0.49112252  1
  O  O217  1  0.13577838  0.74468081  1.00570538  1
  O  O218  1  0.61468975  0.24017472  0.49583287  1
  O  O219  1  0.63970309  0.24946393  0.98273103  1
  O  O220  1  0.63731301  0.75106054  0.49343237  1
  O  O221  1  0.63040480  0.74582697  0.99091281  1
  O  O222  1  0.49688760  0.24487196  0.12731369  1
  O  O223  1  0.49002030  0.24816931  0.63521151  1
  O  O224  1  0.50287698  0.74733911  0.14229112  1
  O  O225  1  0.48300188  0.75841369  0.62332019  1
  O  O226  1  1.00540939  0.25477113  0.11393644  1
  O  O227  1  0.99388820  0.24376650  0.63202421  1
  O  O228  1  1.01014834  0.73925864  0.14991455  1
  O  O229  1  0.98646366  0.75026589  0.62298780  1
  O  O230  1  0.01429149  0.25180967  0.38119666  1
  O  O231  1  0.00516523  0.24466874  0.85750215  1
  O  O232  1  0.01150201  0.75284612  0.37525050  1
  O  O233  1  -0.01164354  0.74553089  0.85707839  1
  O  O234  1  0.49909552  0.25893704  0.38412573  1
  O  O235  1  0.50991834  0.25483117  0.86865066  1
  O  O236  1  0.50819163  0.75602148  0.37760037  1
  O  O237  1  0.51597788  0.75278444  0.87628199  1
  O  O238  1  0.24754843  0.13213366  0.48881971  1
  O  O239  1  0.24025517  0.13307461  0.99868985  1
  O  O240  1  0.24607777  0.63430098  0.50217536  1
  O  O241  1  0.25802787  0.63994709  1.00490455  1
  O  O242  1  0.73762852  0.12156194  0.49242928  1
  O  O243  1  0.76084843  0.14093405  0.98983379  1
  O  O244  1  0.75042491  0.63390976  0.49513828  1
  O  O245  1  0.73590680  0.63476362  1.00120346  1
  O  O246  1  0.25447109  0.36527355  0.01376591  1
  O  O247  1  0.24655806  0.36051661  0.50601772  1
  O  O248  1  0.25918827  0.86583115  0.01407995  1
  O  O249  1  0.24566325  0.86938498  0.51201982  1
  O  O250  1  0.77020679  0.35696095  -0.01351182  1
  O  O251  1  0.76239758  0.41280404  0.44740622  1
  O  O252  1  0.74844558  0.86576503  0.01333845  1
  O  O253  1  0.76183715  0.87476294  0.49523316  1
  O  O254  1  0.14254758  0.48753130  0.25405990  1
  O  O255  1  0.13492491  0.48632227  0.74629732  1
  O  O256  1  0.12650626  0.98105832  0.26158568  1
  O  O257  1  0.12828527  0.99127535  0.74555881  1
  O  O258  1  0.64270889  0.50069424  0.26450522  1
  O  O259  1  0.62571843  0.49610950  0.73834908  1
  O  O260  1  0.58372138  0.98873568  0.24451356  1
  O  O261  1  0.63667411  0.99570812  0.74107223  1
  O  O262  1  0.38464889  0.00845460  0.26274925  1
  O  O263  1  0.36985570  0.00656146  0.75749073  1
  O  O264  1  0.36236297  0.49680265  0.26432117  1
  O  O265  1  0.37022884  0.51797273  0.74404304  1
  O  O266  1  0.87622867  0.00789549  0.26224738  1
  O  O267  1  0.86616261  0.00883897  0.75022871  1
  O  O268  1  0.86222679  0.49889381  0.25999282  1
  O  O269  1  0.86486078  0.49266260  0.75900254  1
  O  O270  1  0.12216717  0.36100260  0.36635185  1
  O  O271  1  0.12299549  0.36957144  0.85805737  1
  O  O272  1  0.11934560  0.86748561  0.37124988  1
  O  O273  1  0.12695592  0.88050044  0.86246297  1
  O  O274  1  0.60558440  0.36190211  0.38336436  1
  O  O275  1  0.60907571  0.37181633  0.85921804  1
  O  O276  1  0.61402736  0.87101686  0.37621648  1
  O  O277  1  0.62978017  0.86779781  0.87869821  1
  O  O278  1  0.37429912  0.13118054  0.13116837  1
  O  O279  1  0.37289096  0.13199247  0.63565395  1
  O  O280  1  0.39049845  0.63037058  0.12516103  1
  O  O281  1  0.36901431  0.64400245  0.64126947  1
  O  O282  1  0.89943602  0.13500211  0.10811138  1
  O  O283  1  0.88108408  0.13080913  0.63345588  1
  O  O284  1  0.89096810  0.62091933  0.14895565  1
  O  O285  1  0.87979695  0.63857294  0.62455703  1
  O  O286  1  0.25580883  0.25312936  0.12058422  1
  O  O287  1  0.25551100  0.25294989  0.61734022  1
  O  O288  1  0.24979648  0.76238026  0.11619045  1
  O  O289  1  0.25269803  0.75519654  0.61460924  1
  O  O290  1  0.75115854  0.24764161  0.10635222  1
  O  O291  1  0.75864124  0.24553903  0.62871330  1
  O  O292  1  0.74892780  0.74589285  0.11214976  1
  O  O293  1  0.76122300  0.74546125  0.61193534  1
  O  O294  1  0.24590000  0.23928787  0.38023315  1
  O  O295  1  0.24870408  0.24665328  0.88261186  1
  O  O296  1  0.24168439  0.75298577  0.39034310  1
  O  O297  1  0.25206973  0.75378712  0.89777884  1
  O  O298  1  0.72929007  0.24697853  0.38542649  1
  O  O299  1  0.73833986  0.24813175  0.87048410  1
  O  O300  1  0.73763550  0.75203728  0.38561466  1
  O  O301  1  0.73903641  0.75077037  0.88388396  1
  O  O302  1  0.01780657  0.12690330  0.00192665  1
  O  O303  1  -0.00227385  0.11966826  0.51053366  1
  O  O304  1  -0.00806019  0.63711751  0.02370463  1
  O  O305  1  0.00247788  0.61148784  0.49833853  1
  O  O306  1  0.50016484  0.11859779  0.01087578  1
  O  O307  1  0.51108712  0.11243917  0.50182324  1
  O  O308  1  0.50648820  0.63158509  0.01491933  1
  O  O309  1  0.49302800  0.61123191  0.50075413  1
  O  O310  1  0.49235223  0.38184093  0.49318950  1
  O  O311  1  0.50375785  0.37861899  0.98518770  1
  O  O312  1  0.50347512  0.88529707  0.49335833  1
  O  O313  1  0.49090457  0.89060085  1.01433451  1
  O  O314  1  1.00455372  0.37643759  0.48741497  1
  O  O315  1  0.98227626  0.36256913  0.98145089  1
  O  O316  1  0.99329112  0.87692778  0.48938921  1
  O  O317  1  0.99768205  0.84650042  1.00211518  1
  O  O318  1  0.48974133  0.48847961  0.38164319  1
  O  O319  1  0.49872456  0.48928912  0.86523075  1
  O  O320  1  0.49326169  0.99456391  0.38611844  1
  O  O321  1  0.49105482  1.00247335  0.88959856  1
  O  O322  1  1.00524017  0.48276569  0.38098464  1
  O  O323  1  0.98670933  0.50611689  0.86771647  1
  O  O324  1  0.99044547  0.99228414  0.37975873  1
  O  O325  1  0.98470738  1.00271844  0.86500072  1
  O  O326  1  -0.00658729  0.00327223  0.10950100  1
  O  O327  1  0.00071331  0.00728244  0.62190976  1
  O  O328  1  0.00265180  0.51180196  0.13502328  1
  O  O329  1  0.00324555  0.50011037  0.61446805  1
  O  O330  1  0.49598042  0.01542119  0.10954238  1
  O  O331  1  0.50945466  -0.00041068  0.61997934  1
  O  O332  1  0.50079757  0.51680135  0.13530809  1
  O  O333  1  0.50290887  0.49839099  0.61702466  1
  O  O334  1  0.24555393  0.37574905  0.24303926  1
  O  O335  1  0.24487713  0.37804350  0.73883195  1
  O  O336  1  0.24517323  0.86834948  0.24479880  1
  O  O337  1  0.23683070  0.87671179  0.74432377  1
  O  O338  1  0.74832953  0.36684028  0.25277480  1
  O  O339  1  0.73588273  0.38838036  0.75426512  1
  O  O340  1  0.75180135  0.87877343  0.24383868  1
  O  O341  1  0.75841398  0.88588163  0.74407745  1
  O  O342  1  0.25825087  0.12443675  0.26006690  1
  O  O343  1  0.25735928  0.12011624  0.75537550  1
  O  O344  1  0.24595094  0.61098139  0.24706803  1
  O  O345  1  0.25322752  0.61748019  0.75899616  1
  O  O346  1  0.75721054  0.14809139  0.26824815  1
  O  O347  1  0.76184967  0.11775663  0.74653465  1
  O  O348  1  0.76425974  0.63061099  0.24162517  1
  O  O349  1  0.74306490  0.60853048  0.75245274  1
  O  O350  1  0.36975617  0.11734966  0.36705351  1
  O  O351  1  0.37122000  0.11817881  0.86970198  1
  O  O352  1  0.37830942  0.60969154  0.37667149  1
  O  O353  1  0.37188752  0.62864271  0.86294477  1
  O  O354  1  0.86860222  0.11868312  0.37599777  1
  O  O355  1  0.87896219  0.12042691  0.85815503  1
  O  O356  1  0.87276324  0.62518290  0.36075941  1
  O  O357  1  0.87120148  0.61337899  0.87456536  1
  O  O358  1  0.13983993  0.37149855  0.13633339  1
  O  O359  1  0.13728781  0.36252018  0.63196724  1
  O  O360  1  0.13711848  0.87232840  0.14586623  1
  O  O361  1  0.13152388  0.88028204  0.63188969  1
  O  O362  1  0.61088765  0.35818799  0.14372331  1
  O  O363  1  0.61494715  0.38072841  0.63679033  1
  O  O364  1  0.64585389  0.86904927  0.13194557  1
  O  O365  1  0.62573729  0.88704254  0.61982006  1
  O  O366  1  0.13318568  0.25454594  0.25912032  1
  O  O367  1  0.11911823  0.25485897  0.75223237  1
  O  O368  1  0.12523631  0.75517659  0.26840197  1
  O  O369  1  0.11466024  0.76237222  0.75196974  1
  O  O370  1  0.61368048  0.24805513  0.27027237  1
  O  O371  1  0.61712631  0.25436796  0.75494184  1
  O  O372  1  0.61891331  0.75354833  0.26888378  1
  O  O373  1  0.62712856  0.74678670  0.76439909  1
  O  O374  1  0.37123593  0.23770881  0.23849579  1
  O  O375  1  0.37762063  0.24218648  0.74517640  1
  O  O376  1  0.38920857  0.74317861  0.26398123  1
  O  O377  1  0.37072948  0.74312662  0.74474490  1
  O  O378  1  0.87805726  0.24580050  0.21503277  1
  O  O379  1  0.87854064  0.24186533  0.74165806  1
  O  O380  1  0.89179818  0.74804423  0.26120524  1
  O  O381  1  0.88402574  0.76012461  0.73429893  1
  O  O382  1  0.38349160  0.49533809  0.48749438  1
  O  O383  1  0.38453837  0.49513845  0.99903697  1
  O  O384  1  0.38597967  1.00863780  0.49292838  1
  O  O385  1  0.37972147  0.99466100  0.99332548  1
  O  O386  1  0.89881297  0.49304080  0.49923424  1
  O  O387  1  0.87303123  0.48786396  0.98242466  1
  O  O388  1  0.87708707  0.98942138  0.49603524  1
  O  O389  1  0.87208412  0.99927143  0.98225595  1
  O  O390  1  0.13112132  0.01072503  -0.00751086  1
  O  O391  1  0.11521334  0.00077247  0.50633394  1
  O  O392  1  0.10783351  0.46562835  0.01153610  1
  O  O393  1  0.11437277  0.49261223  0.49655987  1
  O  O394  1  0.61247043  -0.00165441  -0.00870512  1
  O  O395  1  0.61959333  0.00552102  0.51123741  1
  O  O396  1  0.61568562  0.52184677  -0.01136478  1
  O  O397  1  0.60500318  0.49875473  0.51401340  1
  O  O398  1  0.37011157  0.36420396  0.12853582  1
  O  O399  1  0.36481529  0.36062402  0.63272506  1
  O  O400  1  0.36689285  0.87911789  0.11823757  1
  O  O401  1  0.35880739  0.86104734  0.63416977  1
  O  O402  1  0.88766093  0.36628708  0.10559686  1
  O  O403  1  0.86456894  0.36646290  0.62388403  1
  O  O404  1  0.85539282  0.87404551  0.12563040  1
  O  O405  1  0.87902791  0.87203497  0.60792683  1
  O  O406  1  0.13203979  0.12703317  0.37183606  1
  O  O407  1  0.13085014  0.13098115  0.88354527  1
  O  O408  1  0.12391285  0.63642259  0.37335606  1
  O  O409  1  0.13327493  0.57993271  0.88906666  1
  O  O410  1  0.62835231  0.13453214  0.38436650  1
  O  O411  1  0.62379753  0.13574719  0.86595516  1
  O  O412  1  0.61434226  0.63816604  0.37845020  1
  O  O413  1  0.62501227  0.63922902  0.88698561  1
