# generated using pymatgen
data_V79Zn79O256
_symmetry_space_group_name_H-M   'P 1'
_cell_length_a   16.90824785
_cell_length_b   16.89500202
_cell_length_c   16.90684888
_cell_angle_alpha   89.98013804
_cell_angle_beta   89.91182785
_cell_angle_gamma   90.11134195
_symmetry_Int_Tables_number   1
_chemical_formula_structural   V79Zn79O256
_chemical_formula_sum   'V79 Zn79 O256'
_cell_volume   4829.67785016
_cell_formula_units_Z   1
loop_
 _symmetry_equiv_pos_site_id
 _symmetry_equiv_pos_as_xyz
  1  'x, y, z'
loop_
 _atom_site_type_symbol
 _atom_site_label
 _atom_site_symmetry_multiplicity
 _atom_site_fract_x
 _atom_site_fract_y
 _atom_site_fract_z
 _atom_site_occupancy
  V  V0  1  0.63620335  0.49745195  0.63092475  1
  V  V1  1  0.88572396  0.37225511  0.49175850  1
  V  V2  1  0.64413859  0.62745640  0.50193097  1
  V  V3  1  0.62532073  0.00206927  0.11831120  1
  V  V4  1  0.12435650  0.75780157  0.38845391  1
  V  V5  1  0.24379069  0.85517357  0.11404174  1
  V  V6  1  0.76218202  0.74930642  0.00557545  1
  V  V7  1  0.75090806  0.24698575  -0.00051812  1
  V  V8  1  0.25026690  0.86938164  0.61775595  1
  V  V9  1  0.63462002  0.12774598  0.50010074  1
  V  V10  1  0.50859895  0.86516561  0.38207041  1
  V  V11  1  0.13144944  0.62716314  0.00058028  1
  V  V12  1  0.49959627  -0.00167771  0.00009125  1
  V  V13  1  0.62555885  0.24947147  0.37509196  1
  V  V14  1  0.75109521  0.12593167  0.36670114  1
  V  V15  1  0.37987968  0.13864874  0.74923429  1
  V  V16  1  0.87246153  0.14958964  0.23413667  1
  V  V17  1  0.50401320  -0.00092512  0.50198850  1
  V  V18  1  -0.01032268  0.62464176  0.13588213  1
  V  V19  1  0.37766681  0.48740019  0.86685701  1
  V  V20  1  0.49342077  0.24244010  0.24977698  1
  V  V21  1  0.61397442  0.36832170  0.75364846  1
  V  V22  1  0.36920324  0.24568587  0.12687556  1
  V  V23  1  -0.00418980  0.74486981  0.74460802  1
  V  V24  1  0.60361690  0.49404911  0.11639946  1
  V  V25  1  0.87158606  0.37742197  -0.01388859  1
  V  V26  1  0.62732589  0.74229595  0.87462128  1
  V  V27  1  0.37253226  0.37319002  0.50960099  1
  V  V28  1  0.26282964  0.12038418  0.36615634  1
  V  V29  1  0.26842301  0.24607143  0.51814142  1
  V  V30  1  0.13185710  0.13963917  0.50007845  1
  V  V31  1  -0.01331914  0.50168061  -0.00155390  1
  V  V32  1  0.37703370  0.87327330  0.50229046  1
  V  V33  1  0.49978841  0.13416736  0.63062983  1
  V  V34  1  0.25260511  0.63512917  0.39217553  1
  V  V35  1  0.26653882  0.52002209  0.23620931  1
  V  V36  1  0.37308100  -0.00521190  0.87620750  1
  V  V37  1  0.63262415  -0.00518591  0.62558822  1
  V  V38  1  -0.00620945  0.87142517  0.87823862  1
  V  V39  1  -0.00991510  0.24975414  0.74353687  1
  V  V40  1  0.12942696  0.49687885  0.12942098  1
  V  V41  1  0.37939586  0.75037154  0.62957009  1
  V  V42  1  0.24546729  0.25523684  0.00040804  1
  V  V43  1  -0.00436758  0.14172684  0.11394409  1
  V  V44  1  0.75813826  0.37805888  0.12430439  1
  V  V45  1  0.50241238  0.50173752  0.49906763  1
  V  V46  1  0.49805511  0.86600072  0.87300233  1
  V  V47  1  0.62339566  0.86750134  0.74910845  1
  V  V48  1  0.24443997  0.12542765  0.87736387  1
  V  V49  1  0.60920714  0.61786181  0.00014412  1
  V  V50  1  0.25205328  -0.00094813  0.75082171  1
  V  V51  1  0.13299206  0.37875931  0.72586589  1
  V  V52  1  0.75847788  0.00497394  0.24341422  1
  V  V53  1  0.63088702  0.87266154  0.25149775  1
  V  V54  1  0.74536060  0.12627521  0.88028093  1
  V  V55  1  0.00459007  0.00009255  -0.00306605  1
  V  V56  1  0.76270991  0.87186555  0.11910808  1
  V  V57  1  0.86840873  0.61091025  0.75170564  1
  V  V58  1  0.12616137  0.00119395  0.61993645  1
  V  V59  1  0.93739525  0.95970310  0.43512686  1
  V  V60  1  0.00324368  0.12060062  0.62676949  1
  V  V61  1  0.75005067  -0.00705933  0.75042755  1
  V  V62  1  0.49490570  0.11596549  0.12716353  1
  V  V63  1  0.12149290  0.00364311  0.13102317  1
  V  V64  1  0.13058898  0.74752000  0.87545155  1
  V  V65  1  0.65472959  0.75236494  0.38770483  1
  V  V66  1  0.38810852  0.37641388  0.00054684  1
  V  V67  1  0.11847507  0.25304313  0.88217302  1
  V  V68  1  0.75225791  0.35709405  0.62371410  1
  V  V69  1  0.87250723  -0.00491658  0.88001306  1
  V  V70  1  0.36587177  0.61807841  0.74631308  1
  V  V71  1  0.62471794  0.37929801  0.24691601  1
  V  V72  1  0.00743677  0.61641876  0.60715309  1
  V  V73  1  -0.00277615  0.75554663  0.24912758  1
  V  V74  1  0.86070596  0.76380763  0.61701850  1
  V  V75  1  0.12463676  0.87300686  0.74828381  1
  V  V76  1  0.85221515  0.51495153  0.37613324  1
  V  V77  1  0.61024466  0.24337850  0.87415726  1
  V  V78  1  0.50358562  0.62755537  0.63196067  1
  Zn  Zn79  1  0.87023676  0.12398344  0.74676817  1
  Zn  Zn80  1  0.38338269  -0.00443126  0.35767480  1
  Zn  Zn81  1  0.36925787  0.85513838  0.00148183  1
  Zn  Zn82  1  0.46333452  0.71302625  0.21643727  1
  Zn  Zn83  1  0.06397344  0.28965631  0.31978800  1
  Zn  Zn84  1  0.19398563  0.33648161  0.18597413  1
  Zn  Zn85  1  0.77401696  0.59324602  0.90282141  1
  Zn  Zn86  1  0.49670689  0.37570741  0.37351388  1
  Zn  Zn87  1  0.12325228  0.87777411  0.25117266  1
  Zn  Zn88  1  0.24287707  0.61330828  0.86369450  1
  Zn  Zn89  1  -0.00051462  0.38566526  0.86210624  1
  Zn  Zn90  1  0.27847172  -0.00194426  0.23130189  1
  Zn  Zn91  1  0.86622281  0.23155676  0.60372762  1
  Zn  Zn92  1  0.83432231  0.64440181  0.27076169  1
  Zn  Zn93  1  0.37616717  0.50556160  0.36985600  1
  Zn  Zn94  1  0.18276945  0.17096354  0.18885194  1
  Zn  Zn95  1  0.18856817  0.19395050  0.69446069  1
  Zn  Zn96  1  0.17633907  0.68414554  0.19539318  1
  Zn  Zn97  1  0.18591826  0.68746834  0.67999964  1
  Zn  Zn98  1  0.67956706  0.19073303  0.18090638  1
  Zn  Zn99  1  0.68454299  0.18251728  0.69479314  1
  Zn  Zn100  1  0.64388058  0.66823539  0.20853650  1
  Zn  Zn101  1  0.69147412  0.68399375  0.68915999  1
  Zn  Zn102  1  0.31032340  0.31401580  0.32387463  1
  Zn  Zn103  1  0.30583026  0.31776976  0.80990578  1
  Zn  Zn104  1  0.29897691  0.81379120  0.30459954  1
  Zn  Zn105  1  0.31337668  0.80861148  0.80647676  1
  Zn  Zn106  1  0.81174632  0.31851104  0.31219952  1
  Zn  Zn107  1  0.80409508  0.43541092  0.80106068  1
  Zn  Zn108  1  0.82502365  0.82854759  0.31562721  1
  Zn  Zn109  1  0.81065859  0.80477550  0.81162859  1
  Zn  Zn110  1  0.18075248  0.43172596  0.35735492  1
  Zn  Zn111  1  0.18777904  0.43758018  0.93637745  1
  Zn  Zn112  1  0.13986328  0.97086657  0.40652831  1
  Zn  Zn113  1  0.18311986  0.93521285  0.93852297  1
  Zn  Zn114  1  0.68782897  0.43339036  0.44266204  1
  Zn  Zn115  1  0.67713659  0.42955224  0.93883630  1
  Zn  Zn116  1  0.71419100  0.93753676  0.44096174  1
  Zn  Zn117  1  0.68691125  0.93100344  0.93663746  1
  Zn  Zn118  1  0.31276912  0.06063617  0.05654353  1
  Zn  Zn119  1  0.31647795  0.05887537  0.56658997  1
  Zn  Zn120  1  0.31788127  0.56762748  0.05083119  1
  Zn  Zn121  1  0.31800165  0.56618951  0.55604362  1
  Zn  Zn122  1  0.81522723  0.06046811  0.05870353  1
  Zn  Zn123  1  0.82329709  0.04071414  0.55187225  1
  Zn  Zn124  1  0.77825990  0.58714828  0.10931388  1
  Zn  Zn125  1  0.82700709  0.55800593  0.56880275  1
  Zn  Zn126  1  0.43295912  0.42714586  0.18757519  1
  Zn  Zn127  1  0.44218062  0.43722576  0.68728617  1
  Zn  Zn128  1  0.42979242  0.87988118  0.19789588  1
  Zn  Zn129  1  0.44114952  0.94282082  0.68885410  1
  Zn  Zn130  1  0.97477138  0.43996828  0.29996738  1
  Zn  Zn131  1  0.94624375  0.43326715  0.67227530  1
  Zn  Zn132  1  0.93957134  0.94242540  0.19035812  1
  Zn  Zn133  1  0.93792006  0.93784445  0.68984439  1
  Zn  Zn134  1  0.03573497  0.10137914  0.32943690  1
  Zn  Zn135  1  0.06374505  0.06132412  0.81062392  1
  Zn  Zn136  1  0.04197312  0.59411614  0.35964156  1
  Zn  Zn137  1  0.06026327  0.55987235  0.80674896  1
  Zn  Zn138  1  0.56472172  0.05600245  0.30914497  1
  Zn  Zn139  1  0.56067739  0.05889879  0.81318251  1
  Zn  Zn140  1  0.56781984  0.56764171  0.31848217  1
  Zn  Zn141  1  0.56157038  0.55414628  0.81538226  1
  Zn  Zn142  1  0.44040522  0.18196748  0.43841421  1
  Zn  Zn143  1  0.43018173  0.18093978  0.94153182  1
  Zn  Zn144  1  0.43993011  0.68842843  0.43937569  1
  Zn  Zn145  1  0.43935041  0.67653018  0.92407614  1
  Zn  Zn146  1  0.92890608  0.17476057  0.44176649  1
  Zn  Zn147  1  0.93066314  0.18782856  0.93442457  1
  Zn  Zn148  1  0.92669136  0.69744658  0.43801398  1
  Zn  Zn149  1  0.94160874  0.68218885  0.93551493  1
  Zn  Zn150  1  -0.00195696  0.35516660  0.12933572  1
  Zn  Zn151  1  0.09872169  0.35622343  0.51301601  1
  Zn  Zn152  1  0.05826468  0.81119920  0.06322771  1
  Zn  Zn153  1  0.04509078  0.82259967  0.55901800  1
  Zn  Zn154  1  0.56282821  0.30280555  0.06027226  1
  Zn  Zn155  1  0.56281593  0.31437547  0.56099799  1
  Zn  Zn156  1  0.56602250  0.80942302  0.06108043  1
  Zn  Zn157  1  0.56794871  0.80786499  0.56464232  1
  O  O158  1  0.10423889  0.11484964  0.12403223  1
  O  O159  1  0.12572555  0.11945395  0.62577150  1
  O  O160  1  0.11888083  0.62204280  0.11120636  1
  O  O161  1  0.10642303  0.63379305  0.62432743  1
  O  O162  1  0.61214286  0.11186208  0.12584729  1
  O  O163  1  0.62189633  0.11616868  0.61922017  1
  O  O164  1  0.62466617  0.60438165  0.10783966  1
  O  O165  1  0.62073271  0.61813647  0.62361083  1
  O  O166  1  0.37973566  0.38413746  0.38789869  1
  O  O167  1  0.37324249  0.37976591  0.88259547  1
  O  O168  1  0.38973693  0.87858569  0.39400541  1
  O  O169  1  0.38082159  0.87144503  0.87784243  1
  O  O170  1  0.87287411  0.38139417  0.38407406  1
  O  O171  1  0.88093631  0.38205019  0.88303125  1
  O  O172  1  0.89320286  0.90539459  0.36047286  1
  O  O173  1  0.88440633  0.88100082  0.86575658  1
  O  O174  1  0.24778728  0.01209000  0.37816579  1
  O  O175  1  0.25105775  0.00550664  0.87151435  1
  O  O176  1  0.24960930  0.52376277  0.35779366  1
  O  O177  1  0.26744076  0.50130974  0.88305157  1
  O  O178  1  0.73793960  0.01780461  0.35355964  1
  O  O179  1  0.75331201  0.00309775  0.87265906  1
  O  O180  1  0.75075458  0.49984842  0.37712183  1
  O  O181  1  0.74051867  0.49319069  0.87241907  1
  O  O182  1  0.24714366  0.51100342  0.12828959  1
  O  O183  1  0.21895111  0.49839731  0.59327902  1
  O  O184  1  0.22897073  1.01224944  0.11997356  1
  O  O185  1  0.24487831  0.99090719  0.63275573  1
  O  O186  1  0.73287799  0.47862148  0.11479172  1
  O  O187  1  0.73819938  0.49379536  0.62353159  1
  O  O188  1  0.74290073  0.99506432  0.12282038  1
  O  O189  1  0.74072584  1.00675202  0.63809624  1
  O  O190  1  0.00717786  0.35723209  0.24018139  1
  O  O191  1  0.00290327  0.36072006  0.74612942  1
  O  O192  1  0.00140484  0.85935571  0.23955229  1
  O  O193  1  0.00564493  0.86600192  0.75769209  1
  O  O194  1  0.50688668  0.36195322  0.25068528  1
  O  O195  1  0.51464860  0.36646652  0.73980954  1
  O  O196  1  0.52855499  0.89209026  0.27525857  1
  O  O197  1  0.51041312  0.88048867  0.76216404  1
  O  O198  1  0.50237076  0.13060192  0.24097029  1
  O  O199  1  0.49207383  0.11633490  0.74266744  1
  O  O200  1  0.53607509  0.63413533  0.23579999  1
  O  O201  1  0.48956115  0.61305040  0.73690404  1
  O  O202  1  0.97962795  0.12592932  0.22706862  1
  O  O203  1  1.00287067  0.13307637  0.74317773  1
  O  O204  1  1.00486436  0.62998322  0.23907432  1
  O  O205  1  0.99246993  0.63172763  0.74451442  1
  O  O206  1  0.36720767  0.25593915  0.00539650  1
  O  O207  1  0.37875907  0.25940086  0.50130797  1
  O  O208  1  0.37094509  0.72100330  0.01060680  1
  O  O209  1  0.38402264  0.76234308  0.51569286  1
  O  O210  1  0.86170496  0.26152712  -0.00857615  1
  O  O211  1  0.87150245  0.26266336  0.49305040  1
  O  O212  1  0.86084870  0.74356204  -0.00807609  1
  O  O213  1  0.87498861  0.75773751  0.51708643  1
  O  O214  1  0.15149818  0.24300225  0.50758738  1
  O  O215  1  0.13065468  0.24609233  0.98338225  1
  O  O216  1  0.11242575  0.76098004  0.48720497  1
  O  O217  1  0.11014303  0.73538394  0.98836937  1
  O  O218  1  0.61668204  0.23856968  0.48716420  1
  O  O219  1  0.63403279  0.25799272  0.98130750  1
  O  O220  1  0.63492271  0.74492519  0.49578572  1
  O  O221  1  0.62811295  0.73554101  0.99467487  1
  O  O222  1  0.49343024  0.23655702  0.12947509  1
  O  O223  1  0.50930969  0.23304079  0.62195609  1
  O  O224  1  0.49587977  0.79625183  0.14401967  1
  O  O225  1  0.49536657  0.73803805  0.62387593  1
  O  O226  1  1.00269335  0.23873033  0.10701894  1
  O  O227  1  0.99239070  0.23758715  0.63851459  1
  O  O228  1  1.00378085  0.73655127  0.13539475  1
  O  O229  1  0.99079230  0.74895248  0.63432193  1
  O  O230  1  0.00687683  0.20480697  0.36593645  1
  O  O231  1  0.00999931  0.24430978  0.86744965  1
  O  O232  1  0.01296319  0.73318021  0.36263892  1
  O  O233  1  0.00495906  0.75471514  0.86559706  1
  O  O234  1  0.50709088  0.24544750  0.36488706  1
  O  O235  1  0.51163767  0.23650498  0.88130186  1
  O  O236  1  0.51674878  0.76263434  0.38933007  1
  O  O237  1  0.51091722  0.75587822  0.87837790  1
  O  O238  1  0.25140678  0.13202666  0.50475137  1
  O  O239  1  0.25791563  0.13643469  0.98431356  1
  O  O240  1  0.24720756  0.62839338  0.49144021  1
  O  O241  1  0.23207784  0.62613602  0.99476702  1
  O  O242  1  0.73904455  0.11851216  0.48584216  1
  O  O243  1  0.75340023  0.13105045  0.99130570  1
  O  O244  1  0.74131243  0.61838404  0.51266055  1
  O  O245  1  0.74130984  0.63548577  1.00523948  1
  O  O246  1  0.25643834  0.35909593  -0.00490868  1
  O  O247  1  0.26667520  0.35623384  0.49818354  1
  O  O248  1  0.24425979  0.86973785  0.00646275  1
  O  O249  1  0.26551179  0.88309953  0.51502944  1
  O  O250  1  0.75503420  0.36756528  0.00365063  1
  O  O251  1  0.74332426  0.36903717  0.51932114  1
  O  O252  1  0.74490193  0.86073266  0.00526647  1
  O  O253  1  0.81298138  0.94255019  0.49202346  1
  O  O254  1  0.13992059  0.50827447  0.23101107  1
  O  O255  1  0.11220369  0.47594229  0.75220520  1
  O  O256  1  0.11353663  0.99976103  0.23164632  1
  O  O257  1  0.13241395  0.99345792  0.74287625  1
  O  O258  1  0.61665937  0.48541066  0.23580223  1
  O  O259  1  0.61747240  0.48392505  0.74211227  1
  O  O260  1  0.63714273  0.99623288  0.23672741  1
  O  O261  1  0.63112212  0.99021821  0.74582528  1
  O  O262  1  0.38854404  -0.02143394  0.24567800  1
  O  O263  1  0.36858126  0.00098177  0.75889775  1
  O  O264  1  0.36992440  0.50545940  0.24351399  1
  O  O265  1  0.37474061  0.49903546  0.75827595  1
  O  O266  1  0.86134818  0.01410884  0.23689374  1
  O  O267  1  0.86539319  -0.00112331  0.76017881  1
  O  O268  1  0.86977137  0.50069387  0.27557633  1
  O  O269  1  0.88178610  0.50601938  0.74419305  1
  O  O270  1  0.10453043  0.36876732  0.39977783  1
  O  O271  1  0.11917103  0.36141383  0.87466633  1
  O  O272  1  0.13046736  0.86195959  0.36885463  1
  O  O273  1  0.11556713  0.86674050  0.86833672  1
  O  O274  1  0.62349443  0.36597940  0.36585833  1
  O  O275  1  0.62288810  0.36084270  0.86129058  1
  O  O276  1  0.63405567  0.86853395  0.38336369  1
  O  O277  1  0.61671176  0.86435477  0.86940405  1
  O  O278  1  0.38144100  0.13383007  0.12043028  1
  O  O279  1  0.38774227  0.11641586  0.63711374  1
  O  O280  1  0.37296850  0.67145957  0.07569091  1
  O  O281  1  0.38258463  0.62936994  0.62704299  1
  O  O282  1  0.87962282  0.13007845  0.12476635  1
  O  O283  1  0.88603041  0.11666812  0.62583012  1
  O  O284  1  0.89119504  0.61676386  0.12702088  1
  O  O285  1  0.88543318  0.63380473  0.63563531  1
  O  O286  1  0.25450164  0.24376013  0.11744602  1
  O  O287  1  0.26313360  0.24191033  0.61742442  1
  O  O288  1  0.23209915  0.75743815  0.12330028  1
  O  O289  1  0.26123565  0.76068697  0.62898563  1
  O  O290  1  0.73309832  0.26216450  0.10776848  1
  O  O291  1  0.75249748  0.25170819  0.63047857  1
  O  O292  1  0.74691321  0.75860810  0.10959113  1
  O  O293  1  0.76116702  0.74994164  0.62968276  1
  O  O294  1  0.26547444  0.22732411  0.38833862  1
  O  O295  1  0.23906988  0.24469009  0.87839315  1
  O  O296  1  0.23924865  0.74514649  0.37450122  1
  O  O297  1  0.23331615  0.74504525  0.86449388  1
  O  O298  1  0.73318961  0.24088598  0.36125777  1
  O  O299  1  0.74069892  0.23492605  0.88270016  1
  O  O300  1  0.75368584  0.76149001  0.38292044  1
  O  O301  1  0.73764408  0.75026692  0.88748550  1
  O  O302  1  -0.01274249  0.11468869  0.00760564  1
  O  O303  1  0.02709195  0.14314647  0.51849477  1
  O  O304  1  0.00295195  0.61566805  0.00942136  1
  O  O305  1  -0.00498579  0.63396071  0.50842369  1
  O  O306  1  0.49369229  0.10852186  0.01009141  1
  O  O307  1  0.51090962  0.11509279  0.50810114  1
  O  O308  1  0.51090417  0.62576699  -0.00005972  1
  O  O309  1  0.50918347  0.61849888  0.51017954  1
  O  O310  1  0.49564995  0.38473191  0.49842005  1
  O  O311  1  0.48668544  0.36518701  0.99774954  1
  O  O312  1  0.50049234  0.88148731  0.50106669  1
  O  O313  1  0.49560183  0.87907266  0.98792233  1
  O  O314  1  0.98184879  0.37499210  0.51208161  1
  O  O315  1  0.98478386  0.38994471  1.01565527  1
  O  O316  1  0.98594111  0.90117419  0.50226556  1
  O  O317  1  1.00239525  0.88010268  0.98512570  1
  O  O318  1  0.50258737  0.50378442  0.38762576  1
  O  O319  1  0.47740220  0.50603415  0.87867933  1
  O  O320  1  0.50896773  0.99289342  0.39195834  1
  O  O321  1  0.49538804  0.98964051  0.88217074  1
  O  O322  1  0.97821942  0.50964420  0.38563183  1
  O  O323  1  1.00680915  0.49872114  0.89598900  1
  O  O324  1  1.02441599  0.99940087  0.37959391  1
  O  O325  1  0.99357960  0.99298375  0.87629101  1
  O  O326  1  0.00520539  0.00008581  0.11251567  1
  O  O327  1  0.01327735  0.00960340  0.63709652  1
  O  O328  1  0.01659457  0.51207345  0.11752520  1
  O  O329  1  -0.00235971  0.51598597  0.61602306  1
  O  O330  1  0.50718987  0.00108099  0.11696807  1
  O  O331  1  0.51461079  0.00543709  0.61998613  1
  O  O332  1  0.50494541  0.49131086  0.12061606  1
  O  O333  1  0.51034064  0.50675971  0.61607458  1
  O  O334  1  0.25140116  0.40014423  0.26414453  1
  O  O335  1  0.23291955  0.36846202  0.74158661  1
  O  O336  1  0.23971801  0.88264765  0.22894480  1
  O  O337  1  0.24440063  0.87870190  0.74126388  1
  O  O338  1  0.73714787  0.36392254  0.23175375  1
  O  O339  1  0.73667474  0.37488516  0.73083747  1
  O  O340  1  0.74850775  0.88640238  0.24386437  1
  O  O341  1  0.73756172  0.88444620  0.76169215  1
  O  O342  1  0.25454239  0.11505350  0.26216823  1
  O  O343  1  0.25934981  0.11950372  0.75761055  1
  O  O344  1  0.25956890  0.62249636  0.24426138  1
  O  O345  1  0.26113955  0.62058457  0.74005518  1
  O  O346  1  0.75425297  0.12476367  0.24177206  1
  O  O347  1  0.74863076  0.11033637  0.76136244  1
  O  O348  1  0.74508487  0.62251256  0.21288392  1
  O  O349  1  0.76783505  0.62035456  0.74785429  1
  O  O350  1  0.36836060  0.10934028  0.38470844  1
  O  O351  1  0.36718719  0.11561346  0.86753466  1
  O  O352  1  0.36117320  0.62872083  0.38112001  1
  O  O353  1  0.36822652  0.61612370  0.86020857  1
  O  O354  1  0.85699230  0.13770791  0.34595236  1
  O  O355  1  0.86471186  0.11235772  0.87106149  1
  O  O356  1  0.85914045  0.62178577  0.38171914  1
  O  O357  1  0.87778878  0.62392522  0.85850449  1
  O  O358  1  0.12573291  0.39537940  0.11400561  1
  O  O359  1  0.11835111  0.36710843  0.62671381  1
  O  O360  1  0.12844912  0.88894441  0.11744048  1
  O  O361  1  0.13037890  0.88085714  0.62703438  1
  O  O362  1  0.62217836  0.38025019  0.12600971  1
  O  O363  1  0.63171839  0.37610299  0.63145763  1
  O  O364  1  0.63810927  0.88258159  0.13518677  1
  O  O365  1  0.62042799  0.88290646  0.63622020  1
  O  O366  1  0.14985828  0.25645993  0.25138921  1
  O  O367  1  0.11611011  0.25992886  0.75730823  1
  O  O368  1  0.11107356  0.75380050  0.25681113  1
  O  O369  1  0.11463469  0.75225164  0.75515699  1
  O  O370  1  0.61209041  0.25564715  0.25301841  1
  O  O371  1  0.62645034  0.25590617  0.76206218  1
  O  O372  1  0.63921493  0.76590782  0.27401005  1
  O  O373  1  0.63301728  0.75667978  0.76009778  1
  O  O374  1  0.38354669  0.25872390  0.23987194  1
  O  O375  1  0.37258142  0.23728262  0.75935689  1
  O  O376  1  0.39691582  0.78496057  0.26682168  1
  O  O377  1  0.37596740  0.73700417  0.73825041  1
  O  O378  1  0.86589795  0.24821601  0.23450492  1
  O  O379  1  0.89044249  0.24470574  0.75731585  1
  O  O380  1  0.89134185  0.74681716  0.26356202  1
  O  O381  1  0.88160037  0.73930800  0.74593011  1
  O  O382  1  0.38487289  0.49217559  0.49893248  1
  O  O383  1  0.37350550  0.48105168  0.99800475  1
  O  O384  1  0.39264996  0.98886367  0.51207224  1
  O  O385  1  0.38283220  0.99401259  0.99195292  1
  O  O386  1  0.86198834  0.48235009  0.49145751  1
  O  O387  1  0.88508995  0.49836490  1.00269700  1
  O  O388  1  0.90939503  1.05737854  0.47077547  1
  O  O389  1  0.88287331  0.99725324  0.98618631  1
  O  O390  1  0.10980883  0.00203796  0.00101958  1
  O  O391  1  0.13406795  0.01601455  0.51681036  1
  O  O392  1  0.12151218  0.51217557  0.00498661  1
  O  O393  1  0.16783810  0.49219593  0.53921006  1
  O  O394  1  0.61381839  -0.01177145  0.00794514  1
  O  O395  1  0.62437765  0.00483376  0.50919989  1
  O  O396  1  0.61782827  0.50425705  0.00500790  1
  O  O397  1  0.61931464  0.50703786  0.50852872  1
  O  O398  1  0.37568987  0.35911608  0.11176562  1
  O  O399  1  0.37954138  0.38241740  0.60908626  1
  O  O400  1  0.34676340  0.87604055  0.11418698  1
  O  O401  1  0.37276403  0.86867279  0.62598447  1
  O  O402  1  0.85844505  0.37646440  0.11504521  1
  O  O403  1  0.86036443  0.37256472  0.61661768  1
  O  O404  1  0.86173397  0.88154459  0.12714515  1
  O  O405  1  0.87311136  0.86276989  0.63856651  1
  O  O406  1  0.14373093  0.12201100  0.39736026  1
  O  O407  1  0.13614581  0.13585217  0.86340840  1
  O  O408  1  0.14166558  0.64216532  0.37171810  1
  O  O409  1  0.12136232  0.62896910  0.88199452  1
  O  O410  1  0.62829331  0.13065536  0.37922407  1
  O  O411  1  0.63139220  0.13257281  0.86892835  1
  O  O412  1  0.63355025  0.64416866  0.38637537  1
  O  O413  1  0.62310805  0.62723353  0.88450705  1
