# generated using pymatgen
data_V79Zn79O256
_symmetry_space_group_name_H-M   'P 1'
_cell_length_a   16.89491222
_cell_length_b   16.87935071
_cell_length_c   16.91865496
_cell_angle_alpha   90.07129413
_cell_angle_beta   90.01105349
_cell_angle_gamma   90.19619058
_symmetry_Int_Tables_number   1
_chemical_formula_structural   V79Zn79O256
_chemical_formula_sum   'V79 Zn79 O256'
_cell_volume   4824.74782741
_cell_formula_units_Z   1
loop_
 _symmetry_equiv_pos_site_id
 _symmetry_equiv_pos_as_xyz
  1  'x, y, z'
loop_
 _atom_site_type_symbol
 _atom_site_label
 _atom_site_symmetry_multiplicity
 _atom_site_fract_x
 _atom_site_fract_y
 _atom_site_fract_z
 _atom_site_occupancy
  V  V0  1  0.00596704  0.36538236  0.87159642  1
  V  V1  1  -0.01166193  0.62656085  0.13736420  1
  V  V2  1  0.12244110  0.75793781  0.37648620  1
  V  V3  1  0.13246723  0.75829197  0.89252378  1
  V  V4  1  0.62645569  -0.00260080  0.63510894  1
  V  V5  1  0.62595397  0.12580630  0.50112216  1
  V  V6  1  0.37441578  0.62836851  0.24904638  1
  V  V7  1  0.62592216  0.12455347  -0.00192187  1
  V  V8  1  0.24594592  0.62613164  0.88126317  1
  V  V9  1  0.51133488  0.73973535  0.74848763  1
  V  V10  1  0.48492577  0.37200585  0.37873905  1
  V  V11  1  0.88938039  0.12377034  0.74572922  1
  V  V12  1  0.62529083  0.25417445  0.87593828  1
  V  V13  1  0.11706573  -0.00582328  0.63317870  1
  V  V14  1  0.25410509  0.62338178  0.37856572  1
  V  V15  1  0.74182999  0.88018422  0.63785066  1
  V  V16  1  0.87972705  -0.00664409  0.87868808  1
  V  V17  1  0.12303304  0.88513888  0.25389739  1
  V  V18  1  0.88487009  0.38248951  0.49502378  1
  V  V19  1  0.36848183  0.36817895  0.00009170  1
  V  V20  1  0.00055917  0.11918616  0.11048205  1
  V  V21  1  0.11646346  0.62309695  0.50231886  1
  V  V22  1  0.12388612  0.50320710  0.12870503  1
  V  V23  1  0.51207863  0.87263253  0.86522163  1
  V  V24  1  0.49866995  0.12603291  0.62709479  1
  V  V25  1  0.37081673  0.11735457  0.75573448  1
  V  V26  1  0.24780690  0.12600429  0.35759364  1
  V  V27  1  0.62352223  0.50160624  0.62407565  1
  V  V28  1  0.13279265  0.24397559  0.90562349  1
  V  V29  1  0.36894336  0.25540111  0.61573255  1
  V  V30  1  0.62163247  0.49386250  0.12755058  1
  V  V31  1  0.74956614  0.37560871  0.62661154  1
  V  V32  1  0.25766448  0.76280359  0.50239320  1
  V  V33  1  0.12404797  0.35901070  0.74416826  1
  V  V34  1  0.62227492  0.62036846  0.49759222  1
  V  V35  1  0.81244279  0.57966573  0.81184102  1
  V  V36  1  -0.00053315  0.51177536  -0.02082210  1
  V  V37  1  0.49633857  0.50380128  0.00585408  1
  V  V38  1  0.87301893  0.74947724  0.63645916  1
  V  V39  1  0.75066064  0.26018153  0.00411638  1
  V  V40  1  -0.00311235  0.00197548  0.49348845  1
  V  V41  1  0.49670211  -0.00122646  -0.00635643  1
  V  V42  1  0.63938315  -0.00946111  0.12336881  1
  V  V43  1  0.36918448  -0.00104713  0.34907827  1
  V  V44  1  0.61896899  0.36998194  0.25150228  1
  V  V45  1  0.62836597  0.62939632  -0.01694871  1
  V  V46  1  0.36917010  0.74799215  0.12500386  1
  V  V47  1  0.87578424  0.87984793  0.49468109  1
  V  V48  1  0.48301654  0.49612761  0.50155040  1
  V  V49  1  0.00198322  0.25042981  0.26240091  1
  V  V50  1  0.75490335  0.49222927  0.25317712  1
  V  V51  1  0.48046120  -0.00001818  0.50102580  1
  V  V52  1  0.37161287  0.50336391  0.87247292  1
  V  V53  1  0.12116201  0.37167877  0.26225036  1
  V  V54  1  0.02690645  0.75581557  0.74011848  1
  V  V55  1  0.11940255  0.00158310  0.10834720  1
  V  V56  1  0.55213478  0.67821322  0.18275250  1
  V  V57  1  0.61962996  0.24644280  0.37163699  1
  V  V58  1  0.24474831  0.87482644  0.12837230  1
  V  V59  1  0.75623243  0.11484367  0.37032135  1
  V  V60  1  0.11607830  0.50100260  0.62338364  1
  V  V61  1  0.24819024  0.50246770  0.74930416  1
  V  V62  1  0.74510740  0.74910821  0.49852082  1
  V  V63  1  0.36921693  0.87168890  -0.00753286  1
  V  V64  1  0.25467146  0.49882509  0.25518298  1
  V  V65  1  0.87918075  0.38400656  -0.00270581  1
  V  V66  1  0.74936137  0.12100483  0.86379757  1
  V  V67  1  0.88883737  0.25278494  0.63429111  1
  V  V68  1  0.24755901  0.36723300  0.12109569  1
  V  V69  1  0.25433911  0.12252799  0.89482317  1
  V  V70  1  0.50025290  0.12373154  0.14147897  1
  V  V71  1  0.87507969  0.25342893  0.12625923  1
  V  V72  1  0.37869578  0.24495476  0.13585337  1
  V  V73  1  0.63019544  0.38003273  0.75182244  1
  V  V74  1  -0.01188644  0.74765378  0.25760589  1
  V  V75  1  0.12492831  0.13229979  0.50265452  1
  V  V76  1  0.75487833  0.62254507  0.36992529  1
  V  V77  1  0.37954638  0.74784937  0.63863205  1
  V  V78  1  0.49541620  0.25417199  0.75350429  1
  Zn  Zn79  1  -0.01447785  0.61711327  0.62749180  1
  Zn  Zn80  1  0.49775605  0.85503950  0.36337131  1
  Zn  Zn81  1  0.24032071  -0.00238373  0.75798746  1
  Zn  Zn82  1  0.87622009  0.10912604  0.25243826  1
  Zn  Zn83  1  0.24679806  0.25730547  0.48517653  1
  Zn  Zn84  1  0.75326662  0.25049448  0.50028170  1
  Zn  Zn85  1  0.62777459  0.87526883  0.25874767  1
  Zn  Zn86  1  0.89839521  0.50128887  0.37825133  1
  Zn  Zn87  1  0.49925172  0.37666079  0.87824761  1
  Zn  Zn88  1  -0.05650929  0.93517319  0.31358145  1
  Zn  Zn89  1  0.81786907  0.81167883  0.04615556  1
  Zn  Zn90  1  0.13062305  0.63609330  0.01459545  1
  Zn  Zn91  1  0.25497742  0.38199038  0.61446891  1
  Zn  Zn92  1  0.00763726  0.88373283  0.86830852  1
  Zn  Zn93  1  0.25184216  0.88034245  0.63315764  1
  Zn  Zn94  1  0.18197047  0.18815170  0.18099363  1
  Zn  Zn95  1  0.18974319  0.17537623  0.68465075  1
  Zn  Zn96  1  0.18792665  0.69420274  0.19280485  1
  Zn  Zn97  1  0.19617124  0.68112008  0.68439903  1
  Zn  Zn98  1  0.68785279  0.18393253  0.18883698  1
  Zn  Zn99  1  0.68759871  0.19274412  0.68696874  1
  Zn  Zn100  1  0.72780888  0.74336051  0.19531866  1
  Zn  Zn101  1  0.68630044  0.68817266  0.68437019  1
  Zn  Zn102  1  0.30737707  0.30886780  0.30803792  1
  Zn  Zn103  1  0.30484887  0.31154827  0.81263653  1
  Zn  Zn104  1  0.31112340  0.81604249  0.31217424  1
  Zn  Zn105  1  0.30915547  0.81425108  0.80928528  1
  Zn  Zn106  1  0.80953364  0.30725878  0.31493547  1
  Zn  Zn107  1  0.81380688  0.31341082  0.81573952  1
  Zn  Zn108  1  0.80483084  0.81593216  0.32264407  1
  Zn  Zn109  1  0.81655903  0.78575959  0.87300896  1
  Zn  Zn110  1  0.18578836  0.43814173  0.44136056  1
  Zn  Zn111  1  0.17646222  0.43937583  0.93484417  1
  Zn  Zn112  1  0.18757178  0.94658758  0.43825857  1
  Zn  Zn113  1  0.19066279  0.93789441  0.93803283  1
  Zn  Zn114  1  0.68827111  0.43323719  0.43921112  1
  Zn  Zn115  1  0.69436575  0.45219427  0.93414236  1
  Zn  Zn116  1  0.68162918  0.93660008  0.44645659  1
  Zn  Zn117  1  0.70013206  0.92822368  0.93078481  1
  Zn  Zn118  1  0.31552324  0.05484127  0.07524882  1
  Zn  Zn119  1  0.30086722  0.07062938  0.56752852  1
  Zn  Zn120  1  0.31067941  0.55939167  0.06399975  1
  Zn  Zn121  1  0.30771586  0.57005561  0.56632609  1
  Zn  Zn122  1  0.81780601  0.06817901  0.05436059  1
  Zn  Zn123  1  0.81220374  0.06500836  0.56532606  1
  Zn  Zn124  1  0.78825761  0.60879462  0.09116879  1
  Zn  Zn125  1  0.80828074  0.56067172  0.56579136  1
  Zn  Zn126  1  0.43640942  0.43445691  0.19009491  1
  Zn  Zn127  1  0.43754527  0.44039009  0.68760397  1
  Zn  Zn128  1  0.44740021  0.93043994  0.18512862  1
  Zn  Zn129  1  0.43091129  0.93010701  0.68242860  1
  Zn  Zn130  1  0.93814274  0.43512955  0.18977116  1
  Zn  Zn131  1  0.93291951  0.44220067  0.70052779  1
  Zn  Zn132  1  0.81568460  0.93051652  0.18402792  1
  Zn  Zn133  1  0.93657227  0.93601127  0.68755259  1
  Zn  Zn134  1  0.06348101  0.07307189  0.31271737  1
  Zn  Zn135  1  0.06262381  0.07143143  0.81946969  1
  Zn  Zn136  1  0.06628993  0.56350340  0.31734851  1
  Zn  Zn137  1  0.05783797  0.56763592  0.81098041  1
  Zn  Zn138  1  0.57601938  0.03048470  0.32591052  1
  Zn  Zn139  1  0.55862922  0.06237692  0.81496303  1
  Zn  Zn140  1  0.56307362  0.55393315  0.32298809  1
  Zn  Zn141  1  0.55707674  0.56015321  0.81133672  1
  Zn  Zn142  1  0.43323548  0.18084818  0.42915497  1
  Zn  Zn143  1  0.43564340  0.18781615  0.94134239  1
  Zn  Zn144  1  0.43890169  0.68455433  0.43766416  1
  Zn  Zn145  1  0.43946325  0.68883986  0.93401250  1
  Zn  Zn146  1  0.93652061  0.19117569  0.44751361  1
  Zn  Zn147  1  0.93496427  0.18945206  0.93308973  1
  Zn  Zn148  1  0.93269782  0.68872696  0.44105909  1
  Zn  Zn149  1  0.94692800  0.68247351  0.92139919  1
  Zn  Zn150  1  0.05560442  0.31722904  0.06996654  1
  Zn  Zn151  1  0.06440243  0.31723845  0.56087079  1
  Zn  Zn152  1  -0.00672514  0.85110191  0.09903557  1
  Zn  Zn153  1  0.06204084  0.81671095  0.55853639  1
  Zn  Zn154  1  0.55704886  0.31257312  0.06420942  1
  Zn  Zn155  1  0.55901498  0.31375903  0.56122070  1
  Zn  Zn156  1  0.56247449  0.81221587  0.05263097  1
  Zn  Zn157  1  0.54377698  0.79992151  0.53867986  1
  O  O158  1  0.11512653  0.11300399  0.12454868  1
  O  O159  1  0.12621628  0.11440997  0.60913181  1
  O  O160  1  0.13012848  0.61419978  0.13249709  1
  O  O161  1  0.12805861  0.61661549  0.61593528  1
  O  O162  1  0.61820871  0.12011828  0.11425678  1
  O  O163  1  0.61674916  0.12416599  0.62142324  1
  O  O164  1  0.60706903  0.61470995  0.12232355  1
  O  O165  1  0.62974942  0.60993486  0.61393772  1
  O  O166  1  0.38629056  0.36574239  0.37133135  1
  O  O167  1  0.36809204  0.38233508  0.88569506  1
  O  O168  1  0.37780931  0.89377400  0.36612603  1
  O  O169  1  0.37558643  0.87017392  0.89106619  1
  O  O170  1  0.86527563  0.37385085  0.39300722  1
  O  O171  1  0.89261743  0.36624916  0.88358140  1
  O  O172  1  0.87267974  0.87699482  0.38966131  1
  O  O173  1  0.87026383  0.89443204  0.85679101  1
  O  O174  1  0.26264189  0.00714774  0.37425138  1
  O  O175  1  0.23965499  0.01922305  0.87561174  1
  O  O176  1  0.24457312  0.51148471  0.36606883  1
  O  O177  1  0.25103623  0.50404868  0.86924107  1
  O  O178  1  0.74650472  0.01651179  0.38606039  1
  O  O179  1  0.75763250  0.01434085  0.87583949  1
  O  O180  1  0.74568824  0.50587467  0.36550517  1
  O  O181  1  0.76784963  0.50854880  0.86992153  1
  O  O182  1  0.24326336  0.49074189  0.13438552  1
  O  O183  1  0.24365409  0.50178264  0.63487150  1
  O  O184  1  0.23182529  0.98989459  0.12174508  1
  O  O185  1  0.23245588  1.00180480  0.62729896  1
  O  O186  1  0.73326507  0.51277909  0.14565664  1
  O  O187  1  0.73763050  0.48659834  0.62401070  1
  O  O188  1  0.74343197  1.00096654  0.11205906  1
  O  O189  1  0.74163477  0.98975773  0.61923129  1
  O  O190  1  0.00708792  0.35991686  0.24415834  1
  O  O191  1  0.01076791  0.37605096  0.76092566  1
  O  O192  1  0.00912935  0.85739148  0.25368195  1
  O  O193  1  -0.00419258  0.85858754  0.75086850  1
  O  O194  1  0.50743022  0.38177390  0.26697621  1
  O  O195  1  0.50625348  0.36566744  0.75207237  1
  O  O196  1  0.51246241  0.86755113  0.24931943  1
  O  O197  1  0.49322117  0.87390372  0.76311966  1
  O  O198  1  0.51098455  0.11334332  0.23752651  1
  O  O199  1  0.49472463  0.13611647  0.74653260  1
  O  O200  1  0.49377673  0.62180160  0.25189271  1
  O  O201  1  0.49958705  0.64015418  0.75355608  1
  O  O202  1  0.99735509  0.13752967  0.24218813  1
  O  O203  1  0.98742371  0.13441955  0.75388860  1
  O  O204  1  1.01076753  0.63723079  0.24718104  1
  O  O205  1  1.01097257  0.64816657  0.73794616  1
  O  O206  1  0.37998574  0.26237182  0.01087692  1
  O  O207  1  0.37715096  0.24153986  0.51474169  1
  O  O208  1  0.38445343  0.76248844  0.01151306  1
  O  O209  1  0.35813722  0.74859203  0.49885357  1
  O  O210  1  0.86835008  0.25655170  0.00521721  1
  O  O211  1  0.87314945  0.25977029  0.51788092  1
  O  O212  1  0.91755402  0.78079985  -0.02410484  1
  O  O213  1  0.86583129  0.76076104  0.50626188  1
  O  O214  1  0.11747258  0.23477485  0.50235700  1
  O  O215  1  0.13213862  0.25483584  1.00401035  1
  O  O216  1  0.13264166  0.74533433  0.49470510  1
  O  O217  1  0.12567852  0.75197814  0.99106455  1
  O  O218  1  0.62085422  0.23883381  0.49398618  1
  O  O219  1  0.63029029  0.24626886  0.99728312  1
  O  O220  1  0.63983583  0.73476843  0.51672288  1
  O  O221  1  0.61519024  0.72814405  1.00129180  1
  O  O222  1  0.49728005  0.23197747  0.12302465  1
  O  O223  1  0.49331014  0.24377845  0.63354944  1
  O  O224  1  0.49288534  0.74344871  0.12714078  1
  O  O225  1  0.48924004  0.75859639  0.63612396  1
  O  O226  1  0.99255980  0.23874168  0.12920471  1
  O  O227  1  0.98699204  0.25582824  0.62830751  1
  O  O228  1  0.99927548  0.73781400  0.14534590  1
  O  O229  1  0.98705448  0.75815244  0.62954147  1
  O  O230  1  -0.00493315  0.24459365  0.36083180  1
  O  O231  1  0.02064803  0.25395048  0.88576948  1
  O  O232  1  0.01242974  0.74107830  0.36999633  1
  O  O233  1  0.02725022  0.74658282  0.85438421  1
  O  O234  1  0.50784636  0.25890055  0.38157642  1
  O  O235  1  0.50482587  0.25222601  0.86848973  1
  O  O236  1  0.51269953  0.76597653  0.42890723  1
  O  O237  1  0.49432108  0.76168914  0.86150516  1
  O  O238  1  0.23678576  0.13265677  0.49444385  1
  O  O239  1  0.26205386  0.12083311  0.99385907  1
  O  O240  1  0.24133529  0.63395493  0.49194686  1
  O  O241  1  0.24553175  0.61668758  0.98807497  1
  O  O242  1  0.73954380  0.12863055  0.49633144  1
  O  O243  1  0.74078010  0.13647435  0.99018837  1
  O  O244  1  0.74242082  0.62811173  0.49481324  1
  O  O245  1  0.72588720  0.60664740  0.99837401  1
  O  O246  1  0.25531116  0.38517249  0.01209965  1
  O  O247  1  0.24488810  0.36739684  0.50293362  1
  O  O248  1  0.26400378  0.87934992  0.00879453  1
  O  O249  1  0.24427779  0.86372119  0.49950597  1
  O  O250  1  0.76040367  0.36725051  -0.00859186  1
  O  O251  1  0.75656760  0.37167698  0.51192303  1
  O  O252  1  0.75350736  0.83313359  -0.04469968  1
  O  O253  1  0.75414863  0.86546343  0.50057260  1
  O  O254  1  0.13728229  0.49300734  0.24522409  1
  O  O255  1  0.13201836  0.49361110  0.74216706  1
  O  O256  1  0.11335772  0.98769705  0.24932913  1
  O  O257  1  0.11642702  1.01160768  0.73595599  1
  O  O258  1  0.62641305  0.49001958  0.24701223  1
  O  O259  1  0.60991446  0.48705488  0.73858186  1
  O  O260  1  0.63018795  1.00255770  0.22399130  1
  O  O261  1  0.61738005  1.00682349  0.73453589  1
  O  O262  1  0.37820427  0.00272046  0.25020287  1
  O  O263  1  0.38245045  0.01715428  0.74499788  1
  O  O264  1  0.36333360  0.51109494  0.24174400  1
  O  O265  1  0.36405164  0.49023074  0.76199205  1
  O  O266  1  0.87333452  -0.00334161  0.25384533  1
  O  O267  1  0.87687438  0.01914204  0.74884203  1
  O  O268  1  0.85677400  0.48727415  0.25312351  1
  O  O269  1  0.88337199  0.52827391  0.75608903  1
  O  O270  1  0.13380787  0.37297808  0.36041009  1
  O  O271  1  0.13206622  0.34868688  0.86627124  1
  O  O272  1  0.13267691  0.86724635  0.36898909  1
  O  O273  1  0.12768159  0.86309941  0.87892649  1
  O  O274  1  0.61856287  0.36429230  0.37065269  1
  O  O275  1  0.62572316  0.37407830  0.86764458  1
  O  O276  1  0.60487164  0.91948745  0.36602414  1
  O  O277  1  0.61017306  0.87772519  0.87340742  1
  O  O278  1  0.39150892  0.12799910  0.12196796  1
  O  O279  1  0.38212565  0.13595690  0.63584408  1
  O  O280  1  0.36542798  0.63526698  0.13416057  1
  O  O281  1  0.37137131  0.64763344  0.61854525  1
  O  O282  1  0.88530383  0.13251197  0.12644844  1
  O  O283  1  0.86880679  0.14064692  0.63564373  1
  O  O284  1  0.89183641  0.60856891  0.13957876  1
  O  O285  1  0.87115922  0.64489120  0.61541741  1
  O  O286  1  0.25743600  0.26020667  0.13001768  1
  O  O287  1  0.26558406  0.24580523  0.62629236  1
  O  O288  1  0.25551362  0.76128368  0.12376613  1
  O  O289  1  0.25500550  0.75177179  0.61265602  1
  O  O290  1  0.75986623  0.24138145  0.11362863  1
  O  O291  1  0.75372446  0.26302329  0.62427066  1
  O  O292  1  0.78066084  0.72116558  0.10487137  1
  O  O293  1  0.75678556  0.76063663  0.61870748  1
  O  O294  1  0.25446276  0.23193183  0.37137917  1
  O  O295  1  0.24050511  0.23849516  0.87916303  1
  O  O296  1  0.24365260  0.74536067  0.38364289  1
  O  O297  1  0.23942630  0.74075642  0.86838486  1
  O  O298  1  0.73386729  0.24167415  0.38006679  1
  O  O299  1  0.74470964  0.24437901  0.88460729  1
  O  O300  1  0.75131534  0.73352341  0.38629662  1
  O  O301  1  0.84224639  0.67122258  0.86589740  1
  O  O302  1  -0.00361533  0.12932455  0.01179478  1
  O  O303  1  0.01009519  0.11383719  0.49415825  1
  O  O304  1  0.00864458  0.62232468  0.03021922  1
  O  O305  1  0.01278718  0.63381527  0.50633555  1
  O  O306  1  0.51080123  0.11688868  -0.00382247  1
  O  O307  1  0.50362424  0.12251944  0.51159597  1
  O  O308  1  0.50354205  0.60917107  -0.00646956  1
  O  O309  1  0.50804550  0.60352561  0.49096358  1
  O  O310  1  0.49968180  0.38205390  0.48964511  1
  O  O311  1  0.48835766  0.38326662  0.99925685  1
  O  O312  1  0.49999949  0.90295035  0.50931485  1
  O  O313  1  0.49222697  0.87944797  0.98843473  1
  O  O314  1  0.98424073  0.37278908  0.50313925  1
  O  O315  1  0.99630695  0.38225358  0.99308073  1
  O  O316  1  0.98937667  0.88756830  0.50154066  1
  O  O317  1  0.98065439  0.83913230  0.97956059  1
  O  O318  1  0.49847546  0.48395492  0.38858650  1
  O  O319  1  0.48652675  0.49565006  0.88196227  1
  O  O320  1  0.47559374  1.01773227  0.39117660  1
  O  O321  1  0.50043827  0.98951640  0.88415232  1
  O  O322  1  1.00660715  0.48855280  0.36756632  1
  O  O323  1  1.04961232  0.46499796  0.88370468  1
  O  O324  1  1.00464860  1.00021646  0.38834845  1
  O  O325  1  0.98708816  1.00052053  0.86873443  1
  O  O326  1  0.00859362  0.01345567  0.12434681  1
  O  O327  1  0.00900325  -0.00185346  0.61400980  1
  O  O328  1  0.01224109  0.51023983  0.14005693  1
  O  O329  1  0.01190942  0.50188688  0.63381741  1
  O  O330  1  0.51067987  0.00958562  0.11233078  1
  O  O331  1  0.50265758  0.01272363  0.62161979  1
  O  O332  1  0.50625182  0.49388658  0.11795088  1
  O  O333  1  0.50880352  0.48789155  0.60986690  1
  O  O334  1  0.24442241  0.38122813  0.24222355  1
  O  O335  1  0.23955081  0.38354968  0.74628748  1
  O  O336  1  0.23704183  0.87184408  0.23782823  1
  O  O337  1  0.25493364  0.88735887  0.74821608  1
  O  O338  1  0.73619889  0.38554894  0.25766944  1
  O  O339  1  0.73782300  0.37015483  0.74518952  1
  O  O340  1  0.73953824  0.85261221  0.23863285  1
  O  O341  1  0.74583924  0.87255739  0.73318016  1
  O  O342  1  0.23707801  0.12225926  0.25851934  1
  O  O343  1  0.25865062  0.12048007  0.75862213  1
  O  O344  1  0.25536735  0.61957431  0.25889126  1
  O  O345  1  0.24505084  0.61120877  0.76247166  1
  O  O346  1  0.75215404  0.12781334  0.26525054  1
  O  O347  1  0.75361531  0.13488068  0.76052772  1
  O  O348  1  0.74769990  0.61692844  0.26736795  1
  O  O349  1  0.74354063  0.61487688  0.74761901  1
  O  O350  1  0.35885581  0.11449250  0.37306415  1
  O  O351  1  0.36248012  0.13283237  0.87023376  1
  O  O352  1  0.36480963  0.63306976  0.36395858  1
  O  O353  1  0.36484144  0.61119909  0.88325147  1
  O  O354  1  0.85795423  0.13544242  0.38096425  1
  O  O355  1  0.86941349  0.12352195  0.86203330  1
  O  O356  1  0.85938298  0.61447131  0.38783503  1
  O  O357  1  0.97135634  0.57431208  0.89816960  1
  O  O358  1  0.13074394  0.38304194  0.13374814  1
  O  O359  1  0.12651597  0.38500325  0.63031859  1
  O  O360  1  0.11926065  0.88683605  0.13216874  1
  O  O361  1  0.12669959  0.89058393  0.62017536  1
  O  O362  1  0.61834930  0.38164800  0.13663809  1
  O  O363  1  0.63014410  0.37768137  0.63173819  1
  O  O364  1  0.62530437  0.88969670  0.11086085  1
  O  O365  1  0.63566740  0.88453599  0.61455050  1
  O  O366  1  0.11032763  0.25620051  0.24343437  1
  O  O367  1  0.12859388  0.25903353  0.73471032  1
  O  O368  1  0.12247843  0.75984655  0.26169385  1
  O  O369  1  0.12661278  0.76149450  0.73183016  1
  O  O370  1  0.62791291  0.25821711  0.25754667  1
  O  O371  1  0.61475203  0.25889859  0.75493949  1
  O  O372  1  0.62004029  0.73187496  0.23531677  1
  O  O373  1  0.61011373  0.75271397  0.73958072  1
  O  O374  1  0.37890083  0.25310199  0.23500181  1
  O  O375  1  0.38212198  0.24419291  0.74715024  1
  O  O376  1  0.36941929  0.74032970  0.24063254  1
  O  O377  1  0.37900597  0.74829880  0.74232576  1
  O  O378  1  0.88378693  0.25341482  0.24103520  1
  O  O379  1  0.87197685  0.24542684  0.74104179  1
  O  O380  1  0.88992030  0.74942609  0.26988342  1
  O  O381  1  0.86920283  0.75687765  0.73366445  1
  O  O382  1  0.38426870  0.50254962  0.50876075  1
  O  O383  1  0.37905253  0.49058698  0.99690863  1
  O  O384  1  0.38112264  1.00831854  0.51409521  1
  O  O385  1  0.38708042  0.98341424  1.01187319  1
  O  O386  1  0.87189633  0.48609928  0.50531717  1
  O  O387  1  0.89184871  0.48812992  1.00823109  1
  O  O388  1  0.88853114  0.99734032  0.50874870  1
  O  O389  1  0.87306275  1.00330325  0.97879686  1
  O  O390  1  0.11616797  -0.00824923  0.01002094  1
  O  O391  1  0.11329013  0.00561573  0.50712655  1
  O  O392  1  0.11269708  0.50168764  0.01488109  1
  O  O393  1  0.13053883  0.51133726  0.51107885  1
  O  O394  1  0.62174911  0.00892875  0.00172061  1
  O  O395  1  0.61285805  0.01546880  0.51157739  1
  O  O396  1  0.61485926  0.49916337  0.00950798  1
  O  O397  1  0.62114919  0.50190447  0.50765278  1
  O  O398  1  0.36765362  0.36803982  0.12047790  1
  O  O399  1  0.37599603  0.35869972  0.63089025  1
  O  O400  1  0.36574951  0.86723374  0.12255716  1
  O  O401  1  0.36856912  0.85743391  0.62150020  1
  O  O402  1  0.88409788  0.36229146  0.11276797  1
  O  O403  1  0.86898991  0.36922488  0.62826434  1
  O  O404  1  0.88304462  0.87237582  0.11576034  1
  O  O405  1  0.86137979  0.87091760  0.61563454  1
  O  O406  1  0.13977918  0.11391551  0.38794028  1
  O  O407  1  0.13507597  0.13812468  0.88083289  1
  O  O408  1  0.13612632  0.63563264  0.38220776  1
  O  O409  1  0.13335132  0.63571403  0.87878502  1
  O  O410  1  0.62809385  0.12737334  0.38232485  1
  O  O411  1  0.62977653  0.13139358  0.88028540  1
  O  O412  1  0.63711501  0.61632531  0.38896212  1
  O  O413  1  0.62210348  0.61778858  0.88307942  1
