# generated using pymatgen
data_V79Zn79O256
_symmetry_space_group_name_H-M   'P 1'
_cell_length_a   16.94099693
_cell_length_b   16.98278003
_cell_length_c   16.91371095
_cell_angle_alpha   90.06427161
_cell_angle_beta   90.26167567
_cell_angle_gamma   90.02829374
_symmetry_Int_Tables_number   1
_chemical_formula_structural   V79Zn79O256
_chemical_formula_sum   'V79 Zn79 O256'
_cell_volume   4866.10858553
_cell_formula_units_Z   1
loop_
 _symmetry_equiv_pos_site_id
 _symmetry_equiv_pos_as_xyz
  1  'x, y, z'
loop_
 _atom_site_type_symbol
 _atom_site_label
 _atom_site_symmetry_multiplicity
 _atom_site_fract_x
 _atom_site_fract_y
 _atom_site_fract_z
 _atom_site_occupancy
  V  V0  1  0.00178483  0.48616796  0.49326853  1
  V  V1  1  0.11174709  0.25570174  0.37230983  1
  V  V2  1  0.75455057  0.25199475  0.49810495  1
  V  V3  1  0.88069886  0.23390007  0.61715624  1
  V  V4  1  0.49619179  0.63942809  0.61932614  1
  V  V5  1  0.25843843  0.75398954  0.51152398  1
  V  V6  1  0.25121710  0.62313561  0.87476186  1
  V  V7  1  0.12586931  0.75057887  0.87147290  1
  V  V8  1  0.12635025  -0.00730239  0.12511684  1
  V  V9  1  0.37622811  0.37520691  0.50166579  1
  V  V10  1  0.62074037  0.24267210  0.37868654  1
  V  V11  1  0.62216734  0.13804199  -0.01484702  1
  V  V12  1  0.11669317  0.11079314  0.50326613  1
  V  V13  1  0.88043645  0.47872872  0.37545835  1
  V  V14  1  0.37316705  0.14430386  0.24428302  1
  V  V15  1  0.12821439  0.24778354  0.87143194  1
  V  V16  1  0.12810376  0.75278064  0.37251941  1
  V  V17  1  0.36714274  0.88144546  0.00774975  1
  V  V18  1  0.87335679  0.61283688  0.74463526  1
  V  V19  1  0.75256555  0.37536302  0.12388398  1
  V  V20  1  0.61337743  0.87154250  0.25915857  1
  V  V21  1  -0.00325248  0.62562764  0.12259351  1
  V  V22  1  -0.00058399  0.37778733  0.87200684  1
  V  V23  1  -0.00051845  0.75222742  0.24933875  1
  V  V24  1  0.12857887  0.37450652  0.74419666  1
  V  V25  1  0.00088101  0.62738305  0.62085990  1
  V  V26  1  0.13186104  0.49398002  0.62050381  1
  V  V27  1  0.87067495  0.86957754  -0.00521270  1
  V  V28  1  0.86736276  0.74751488  0.12006604  1
  V  V29  1  0.87159020  0.62819194  0.26116602  1
  V  V30  1  0.75405552  0.12128349  0.37731194  1
  V  V31  1  0.38317221  0.75418826  0.12732323  1
  V  V32  1  -0.00331641  0.23961373  0.74377019  1
  V  V33  1  0.37416140  0.49319376  0.87858562  1
  V  V34  1  0.12366516  0.62458420  -0.00059214  1
  V  V35  1  0.77711324  0.88031489  0.62628163  1
  V  V36  1  0.87087984  0.36576921  0.00294664  1
  V  V37  1  0.61963123  0.00473792  0.12335743  1
  V  V38  1  0.25263862  0.49390290  0.24565191  1
  V  V39  1  0.76202919  0.38385885  0.62598921  1
  V  V40  1  0.88134546  -0.00379545  0.39224966  1
  V  V41  1  0.62205925  0.73467862  0.37656888  1
  V  V42  1  0.24853696  0.75373682  0.00832798  1
  V  V43  1  0.36719505  0.12561794  0.75068007  1
  V  V44  1  0.51024917  0.25240797  0.75739122  1
  V  V45  1  0.25646781  -0.00748427  0.24374741  1
  V  V46  1  0.38378783  0.62935381  0.24965476  1
  V  V47  1  0.76539679  0.75698251  0.49477205  1
  V  V48  1  0.12767964  0.62356428  0.49678851  1
  V  V49  1  0.50261805  0.37667921  0.37768507  1
  V  V50  1  0.11425107  0.37723152  0.25502341  1
  V  V51  1  0.25234635  0.89985611  0.63581694  1
  V  V52  1  0.49871056  0.14175742  0.13223826  1
  V  V53  1  0.62708398  0.37219095  0.25409264  1
  V  V54  1  0.25163326  0.62617556  0.37357962  1
  V  V55  1  0.51231315  0.12517099  0.61943870  1
  V  V56  1  -0.00278767  -0.00114095  0.00230032  1
  V  V57  1  0.37187771  0.25440583  0.62639484  1
  V  V58  1  0.25215152  0.25037600  0.49826989  1
  V  V59  1  -0.00296026  0.49985375  -0.00318254  1
  V  V60  1  0.74591614  0.87130526  0.11967897  1
  V  V61  1  0.75824860  0.00566269  0.77379724  1
  V  V62  1  0.36703500  -0.00161106  0.86677835  1
  V  V63  1  -0.00252791  0.74805487  0.74351198  1
  V  V64  1  0.60695355  0.49640634  0.61609635  1
  V  V65  1  -0.00589029  0.87364115  0.87332437  1
  V  V66  1  0.25076270  0.25454212  0.02010739  1
  V  V67  1  0.12791955  0.49672792  0.12537309  1
  V  V68  1  0.37955843  0.50103179  0.38072300  1
  V  V69  1  0.25343584  0.49859626  0.74675670  1
  V  V70  1  -0.00023890  0.87805300  0.38493287  1
  V  V71  1  0.49680979  0.50033366  0.00678696  1
  V  V72  1  0.62938306  0.62739406  -0.00699633  1
  V  V73  1  0.49139453  0.00360235  -0.00274674  1
  V  V74  1  0.12086090  0.12527870  0.00835718  1
  V  V75  1  0.25199014  0.12694424  0.36802388  1
  V  V76  1  0.75024774  0.50547587  0.25806877  1
  V  V77  1  0.75608916  0.00082049  0.24816199  1
  V  V78  1  0.50530106  0.37191399  0.88009337  1
  Zn  Zn79  1  0.50400287  0.63363871  0.12685847  1
  Zn  Zn80  1  0.38265483  0.63612771  0.74860882  1
  Zn  Zn81  1  0.39052624  -0.00518407  0.37319258  1
  Zn  Zn82  1  0.73865087  0.62106445  0.85642920  1
  Zn  Zn83  1  0.62397985  0.50456257  0.12968071  1
  Zn  Zn84  1  0.24593506  0.12298343  0.87479193  1
  Zn  Zn85  1  0.37240735  0.36487210  0.02912820  1
  Zn  Zn86  1  0.51476608  0.00053424  0.49393721  1
  Zn  Zn87  1  0.12641283  0.88583639  0.74595855  1
  Zn  Zn88  1  0.12872567  0.87321780  0.24505514  1
  Zn  Zn89  1  0.85690280  0.49580485  0.87019147  1
  Zn  Zn90  1  0.78203225  0.20271525  0.06699444  1
  Zn  Zn91  1  0.38647047  0.87891523  0.50030070  1
  Zn  Zn92  1  0.65321742  0.78256157  -0.11171468  1
  Zn  Zn93  1  0.63813766  0.38225254  0.75736355  1
  Zn  Zn94  1  -0.00220899  0.23857515  0.23064330  1
  Zn  Zn95  1  0.18690668  0.18426524  0.68189236  1
  Zn  Zn96  1  0.18980298  0.68200217  0.18868929  1
  Zn  Zn97  1  0.18564024  0.68219114  0.68835910  1
  Zn  Zn98  1  0.88040321  0.12438075  0.22795290  1
  Zn  Zn99  1  0.69477603  0.18915156  0.69028695  1
  Zn  Zn100  1  0.68237465  0.68702703  0.18830836  1
  Zn  Zn101  1  0.70315840  0.66973418  0.63730921  1
  Zn  Zn102  1  0.30777237  0.31586935  0.30954195  1
  Zn  Zn103  1  0.31497890  0.31398537  0.81315871  1
  Zn  Zn104  1  0.32302207  0.81328771  0.31583772  1
  Zn  Zn105  1  0.31120950  0.82149064  0.81580251  1
  Zn  Zn106  1  0.81174868  0.30416819  0.30083325  1
  Zn  Zn107  1  0.82425592  0.31798135  0.80273481  1
  Zn  Zn108  1  0.80953795  0.81611320  0.31301823  1
  Zn  Zn109  1  0.80833954  0.80398878  0.79911147  1
  Zn  Zn110  1  0.19259805  0.43592953  0.43457621  1
  Zn  Zn111  1  0.18758365  0.43423909  0.93742662  1
  Zn  Zn112  1  0.19880183  0.93449273  0.43290955  1
  Zn  Zn113  1  0.18579059  0.93802720  0.93487128  1
  Zn  Zn114  1  0.69369500  0.43728380  0.44215255  1
  Zn  Zn115  1  0.68772185  0.44746715  0.93746039  1
  Zn  Zn116  1  0.68949278  0.93479125  0.44507887  1
  Zn  Zn117  1  0.66267429  0.95706177  0.90407462  1
  Zn  Zn118  1  0.30719742  0.07390836  0.06493870  1
  Zn  Zn119  1  0.32220831  0.06542245  0.55827160  1
  Zn  Zn120  1  0.31557706  0.56283502  0.06471877  1
  Zn  Zn121  1  0.31907620  0.56813368  0.56367796  1
  Zn  Zn122  1  0.80220838  0.04364103  0.04324895  1
  Zn  Zn123  1  0.79970096  0.05925900  0.56760200  1
  Zn  Zn124  1  0.81043110  0.55588767  0.06306707  1
  Zn  Zn125  1  0.81620775  0.56445844  0.54949110  1
  Zn  Zn126  1  0.43971330  0.43133208  0.19211340  1
  Zn  Zn127  1  0.44004312  0.43707405  0.68996178  1
  Zn  Zn128  1  0.43535556  0.93757800  0.18347256  1
  Zn  Zn129  1  0.45735811  0.91930969  0.65207744  1
  Zn  Zn130  1  0.93643235  0.43876039  0.18527707  1
  Zn  Zn131  1  0.94222263  0.43457352  0.67697107  1
  Zn  Zn132  1  0.94060178  0.93477005  0.18718581  1
  Zn  Zn133  1  0.93687221  0.94659146  0.69635535  1
  Zn  Zn134  1  0.06307523  0.06582447  0.30960239  1
  Zn  Zn135  1  0.05012792  0.06577753  0.82363417  1
  Zn  Zn136  1  0.05936792  0.56421181  0.31067815  1
  Zn  Zn137  1  0.06338353  0.56209814  0.80937981  1
  Zn  Zn138  1  0.56617013  0.06402862  0.30676486  1
  Zn  Zn139  1  0.56242224  0.05765666  0.79948903  1
  Zn  Zn140  1  0.56241040  0.55956610  0.32067650  1
  Zn  Zn141  1  0.56729355  0.56203943  0.80013973  1
  Zn  Zn142  1  0.43887105  0.18302871  0.43417386  1
  Zn  Zn143  1  0.43258247  0.18699347  0.94029306  1
  Zn  Zn144  1  0.44206855  0.68580408  0.44029890  1
  Zn  Zn145  1  0.43403068  0.68363230  0.93883695  1
  Zn  Zn146  1  0.93615594  0.17995730  0.43518817  1
  Zn  Zn147  1  0.94898385  0.17691180  1.06509170  1
  Zn  Zn148  1  0.94373925  0.68904685  0.44015113  1
  Zn  Zn149  1  0.93188276  0.68582928  0.93107001  1
  Zn  Zn150  1  0.07131373  0.31837411  0.05990570  1
  Zn  Zn151  1  0.06539467  0.30492510  0.56006377  1
  Zn  Zn152  1  0.06037004  0.81191692  0.06264967  1
  Zn  Zn153  1  0.07312204  0.81722095  0.56413341  1
  Zn  Zn154  1  0.56789033  0.31799118  0.06555438  1
  Zn  Zn155  1  0.56762526  0.31169018  0.56414145  1
  Zn  Zn156  1  0.56938039  0.82784410  0.03840074  1
  Zn  Zn157  1  0.56054287  0.80202925  0.53904450  1
  O  O158  1  0.12169969  0.11080281  0.10828109  1
  O  O159  1  0.13266886  0.12906247  0.60191061  1
  O  O160  1  0.11614526  0.61914423  0.11940959  1
  O  O161  1  0.11974011  0.61208601  0.61829202  1
  O  O162  1  0.60693765  0.11322384  0.12978530  1
  O  O163  1  0.61022966  0.14355198  0.62769976  1
  O  O164  1  0.61915799  0.62127190  0.11858321  1
  O  O165  1  0.60822599  0.60675039  0.62876222  1
  O  O166  1  0.38283549  0.38109665  0.37839711  1
  O  O167  1  0.38158844  0.38358971  0.87772876  1
  O  O168  1  0.35928152  0.88607418  0.38831141  1
  O  O169  1  0.36991613  0.89420187  0.88729459  1
  O  O170  1  0.87961504  0.38163910  0.36874033  1
  O  O171  1  0.88372530  0.37712342  0.88026494  1
  O  O172  1  0.88386619  0.88858852  0.36872265  1
  O  O173  1  0.88556408  0.85577103  0.88345601  1
  O  O174  1  0.24517298  0.01463166  0.35715839  1
  O  O175  1  0.26080184  0.00528557  0.87781131  1
  O  O176  1  0.25802120  0.50654865  0.36672240  1
  O  O177  1  0.25336456  0.50244234  0.86801900  1
  O  O178  1  0.76482079  -0.00023095  0.36926970  1
  O  O179  1  0.76537337  0.00092886  0.87717561  1
  O  O180  1  0.76820915  0.49373823  0.36957725  1
  O  O181  1  0.74489904  0.50776962  0.86267553  1
  O  O182  1  0.23626398  0.51495765  0.13474637  1
  O  O183  1  0.24063299  0.50611061  0.63177914  1
  O  O184  1  0.24236944  1.00778270  0.13655316  1
  O  O185  1  0.25257017  0.99833744  0.62392195  1
  O  O186  1  0.74836268  0.49434349  0.14137161  1
  O  O187  1  0.76293160  0.48383257  0.61830873  1
  O  O188  1  0.73731463  0.99171890  0.12878835  1
  O  O189  1  0.74245068  0.97903252  0.61977774  1
  O  O190  1  0.01268279  0.38137117  0.24901302  1
  O  O191  1  0.01157762  0.37381192  0.75277000  1
  O  O192  1  0.00447422  0.86707046  0.25820299  1
  O  O193  1  0.00010829  0.86293716  0.75815303  1
  O  O194  1  0.51231129  0.38172455  0.26643338  1
  O  O195  1  0.49660125  0.36216684  0.76009683  1
  O  O196  1  0.51491983  0.87924075  0.24426063  1
  O  O197  1  0.51154472  0.87075203  0.74747568  1
  O  O198  1  0.48678175  0.12406981  0.24022731  1
  O  O199  1  0.49179986  0.14038869  0.74885816  1
  O  O200  1  0.48648709  0.61702797  0.25003562  1
  O  O201  1  0.49348515  0.60934203  0.73010185  1
  O  O202  1  0.99586240  0.12269045  0.24271180  1
  O  O203  1  1.00149346  0.14238230  0.75418919  1
  O  O204  1  0.99055699  0.63181633  0.24272888  1
  O  O205  1  0.99976215  0.62866356  0.73948883  1
  O  O206  1  0.35665150  0.24963959  -0.00096867  1
  O  O207  1  0.37065648  0.25536531  0.50435553  1
  O  O208  1  0.36592145  0.75882215  0.00638426  1
  O  O209  1  0.35916324  0.75158047  0.49201966  1
  O  O210  1  0.86716990  0.26496482  0.00354005  1
  O  O211  1  0.87314712  0.24620077  0.50957688  1
  O  O212  1  0.87959555  0.75436775  0.01075169  1
  O  O213  1  0.86625126  0.75271174  0.49049193  1
  O  O214  1  0.13632706  0.24813146  0.48936862  1
  O  O215  1  0.13050837  0.24442144  0.98912259  1
  O  O216  1  0.13500583  0.74266646  0.48913160  1
  O  O217  1  0.12923122  0.74561407  0.99185282  1
  O  O218  1  0.63733255  0.25435174  0.48555300  1
  O  O219  1  0.61720018  0.23732810  1.00228273  1
  O  O220  1  0.64048728  0.75339633  0.48234128  1
  O  O221  1  0.61509492  0.72765212  1.00265198  1
  O  O222  1  0.50479246  0.23978559  0.12724823  1
  O  O223  1  0.49242422  0.24944721  0.63867168  1
  O  O224  1  0.48441963  0.75453326  0.11632898  1
  O  O225  1  0.51000459  0.73834466  0.62161893  1
  O  O226  1  1.00413801  0.25533451  0.11865680  1
  O  O227  1  0.99222050  0.25217346  0.63129405  1
  O  O228  1  0.99054531  0.74571984  0.12958554  1
  O  O229  1  1.01661253  0.73780245  0.63127399  1
  O  O230  1  0.01326457  0.25119540  0.38402513  1
  O  O231  1  0.01128616  0.26440242  0.85653884  1
  O  O232  1  0.01063293  0.75532588  0.36929288  1
  O  O233  1  0.00940821  0.75314024  0.86831971  1
  O  O234  1  0.51575315  0.25499649  0.37797490  1
  O  O235  1  0.48977374  0.25751602  0.86515660  1
  O  O236  1  0.52071040  0.74765590  0.38464318  1
  O  O237  1  0.45881258  0.75221406  0.84824028  1
  O  O238  1  0.25188841  0.13520525  0.48578325  1
  O  O239  1  0.23869513  0.13840534  0.99677617  1
  O  O240  1  0.24720369  0.63206384  0.49198691  1
  O  O241  1  0.24448645  0.63277688  0.99373517  1
  O  O242  1  0.75560639  0.13427313  0.48678910  1
  O  O243  1  0.72548797  0.12267882  1.00530444  1
  O  O244  1  0.75167225  0.65328738  0.52896003  1
  O  O245  1  0.73071404  0.61330983  1.00197860  1
  O  O246  1  0.24567202  0.35841094  -0.00373078  1
  O  O247  1  0.26397929  0.36160755  0.48954892  1
  O  O248  1  0.25483553  0.86432490  -0.00573564  1
  O  O249  1  0.24365962  0.86077978  0.51306841  1
  O  O250  1  0.75694530  0.38734683  0.01113011  1
  O  O251  1  0.75335557  0.35992790  0.51085865  1
  O  O252  1  0.76098724  0.87941551  0.01399834  1
  O  O253  1  0.75609684  0.86745891  0.50833932  1
  O  O254  1  0.13137218  0.49892621  0.24533354  1
  O  O255  1  0.13269440  0.49419812  0.74096127  1
  O  O256  1  0.13567015  1.00061818  0.24055690  1
  O  O257  1  0.08956532  1.00193729  0.72962798  1
  O  O258  1  0.63630827  0.49228392  0.25983000  1
  O  O259  1  0.62171361  0.49108059  0.72790201  1
  O  O260  1  0.63243623  0.99025166  0.24144393  1
  O  O261  1  0.64079281  0.97995890  0.78829836  1
  O  O262  1  0.36365930  0.00462333  0.24761830  1
  O  O263  1  0.38203783  0.00901586  0.76541612  1
  O  O264  1  0.36804082  0.50798622  0.26235692  1
  O  O265  1  0.36202438  0.49043972  0.75749461  1
  O  O266  1  0.86358411  0.00022791  0.24243488  1
  O  O267  1  0.85937799  0.00498250  0.75125657  1
  O  O268  1  0.87275408  0.50698510  0.26151902  1
  O  O269  1  0.88854405  0.50982682  0.74777521  1
  O  O270  1  0.12848963  0.36441040  0.37088567  1
  O  O271  1  0.11817378  0.36858282  0.86501083  1
  O  O272  1  0.12226724  0.86474531  0.37048202  1
  O  O273  1  0.11710535  0.86500346  0.87089841  1
  O  O274  1  0.61928774  0.37285369  0.37622462  1
  O  O275  1  0.60898885  0.38056717  0.87617054  1
  O  O276  1  0.62899308  0.87727797  0.35948365  1
  O  O277  1  0.60517752  0.86789354  0.93291906  1
  O  O278  1  0.38541265  0.12616191  0.13471503  1
  O  O279  1  0.38310889  0.13849828  0.63360731  1
  O  O280  1  0.37746669  0.63433099  0.13318615  1
  O  O281  1  0.38528459  0.62706853  0.63131733  1
  O  O282  1  0.85817775  0.12467291  0.10842868  1
  O  O283  1  0.87334796  0.13547769  0.62118435  1
  O  O284  1  0.87743960  0.63125537  0.13004422  1
  O  O285  1  0.89600974  0.61477408  0.62803467  1
  O  O286  1  0.24196536  0.25002915  0.11515652  1
  O  O287  1  0.26186488  0.24611608  0.61236261  1
  O  O288  1  0.25387381  0.74265832  0.11249925  1
  O  O289  1  0.24896855  0.73772861  0.61077395  1
  O  O290  1  0.74085275  0.27683322  0.13749969  1
  O  O291  1  0.76468450  0.24957047  0.61704291  1
  O  O292  1  0.75841138  0.75791898  0.13115175  1
  O  O293  1  0.73873985  0.77757408  0.61570890  1
  O  O294  1  0.24625783  0.24324233  0.37889316  1
  O  O295  1  0.23340849  0.24923831  0.86531694  1
  O  O296  1  0.24166015  0.74532806  0.37892028  1
  O  O297  1  0.24171659  0.74529302  0.88197886  1
  O  O298  1  0.74830204  0.24276121  0.38157783  1
  O  O299  1  0.78213174  0.21523749  0.86372685  1
  O  O300  1  0.74474718  0.75652793  0.38609618  1
  O  O301  1  0.74553491  0.73338447  0.85889142  1
  O  O302  1  0.00572949  0.10742885  -0.00966304  1
  O  O303  1  0.01730077  0.12250029  0.49182173  1
  O  O304  1  0.00355064  0.62019538  0.00152383  1
  O  O305  1  0.00946060  0.61724730  0.50375964  1
  O  O306  1  0.50093943  0.12346326  0.01446079  1
  O  O307  1  0.49602677  0.13285313  0.51807071  1
  O  O308  1  0.50172702  0.61432450  0.00174921  1
  O  O309  1  0.49051042  0.61911257  0.51804299  1
  O  O310  1  0.48865117  0.36457926  0.48797462  1
  O  O311  1  0.49422018  0.38090204  0.99694194  1
  O  O312  1  0.49793103  0.89147485  0.54289524  1
  O  O313  1  0.47544372  0.89252352  1.01110056  1
  O  O314  1  1.00673554  0.38798036  0.50351973  1
  O  O315  1  0.99401828  0.37976346  0.98945350  1
  O  O316  1  1.00886677  0.86790915  0.48409303  1
  O  O317  1  0.99268899  0.87563557  0.99175481  1
  O  O318  1  0.48831621  0.49223618  0.37824333  1
  O  O319  1  0.48984600  0.49055194  0.88338140  1
  O  O320  1  0.50139491  1.01539320  0.37990398  1
  O  O321  1  0.48191053  1.01290075  0.89129973  1
  O  O322  1  0.99000561  0.50272372  0.37889763  1
  O  O323  1  1.00746281  0.48759459  0.87829873  1
  O  O324  1  0.98891686  0.99262046  0.37005012  1
  O  O325  1  1.00476190  0.98161235  0.88519049  1
  O  O326  1  0.00892168  -0.00888707  0.11086660  1
  O  O327  1  0.03520593  0.00400081  0.66878711  1
  O  O328  1  0.00730335  0.50697924  0.11793430  1
  O  O329  1  0.01312103  0.50570627  0.61349116  1
  O  O330  1  0.50303002  0.00666688  0.11760613  1
  O  O331  1  0.50137428  0.02630784  0.64023383  1
  O  O332  1  0.49835356  0.50058340  0.11498172  1
  O  O333  1  0.50629887  0.48397901  0.61072817  1
  O  O334  1  0.23680423  0.39027555  0.25776479  1
  O  O335  1  0.23728260  0.38405558  0.75444083  1
  O  O336  1  0.25044199  0.89075346  0.25285727  1
  O  O337  1  0.24813547  0.88003259  0.74250220  1
  O  O338  1  0.74734702  0.38756089  0.24721564  1
  O  O339  1  0.74937540  0.36166442  0.73249697  1
  O  O340  1  0.74357425  0.88279547  0.23787121  1
  O  O341  1  0.75964302  0.88492924  0.73528541  1
  O  O342  1  0.26607579  0.12051219  0.25359226  1
  O  O343  1  0.26349368  0.13006594  0.74873286  1
  O  O344  1  0.25945900  0.61557032  0.25582442  1
  O  O345  1  0.25247118  0.61373180  0.75611662  1
  O  O346  1  0.74976479  0.10789317  0.26510722  1
  O  O347  1  0.73615589  0.10204917  0.74586754  1
  O  O348  1  0.75971525  0.61464537  0.24460235  1
  O  O349  1  0.77455433  0.62688676  0.72535691  1
  O  O350  1  0.36941089  0.12731490  0.36007288  1
  O  O351  1  0.36954558  0.11885720  0.86841041  1
  O  O352  1  0.37253713  0.61903883  0.36993118  1
  O  O353  1  0.36810116  0.60762022  0.87248267  1
  O  O354  1  0.86964700  0.10758184  0.37262088  1
  O  O355  1  0.83350464  0.16263840  0.87129863  1
  O  O356  1  0.88038925  0.62762660  0.36183609  1
  O  O357  1  0.87745380  0.61943295  0.85445185  1
  O  O358  1  0.12380500  0.39232918  0.13391203  1
  O  O359  1  0.12127536  0.38406332  0.63113209  1
  O  O360  1  0.12522544  0.88632085  0.12376624  1
  O  O361  1  0.14565831  0.87079927  0.63052647  1
  O  O362  1  0.63003043  0.38441122  0.13778516  1
  O  O363  1  0.64010131  0.37984729  0.62399029  1
  O  O364  1  0.62976765  0.88245575  0.12762879  1
  O  O365  1  0.57586299  0.83251678  0.71957285  1
  O  O366  1  0.11824588  0.26164445  0.26594451  1
  O  O367  1  0.11754048  0.25654652  0.74690188  1
  O  O368  1  0.12143112  0.74790581  0.25698231  1
  O  O369  1  0.11870636  0.74484495  0.76087146  1
  O  O370  1  0.63669515  0.27009123  0.27140234  1
  O  O371  1  0.61137625  0.25430278  0.75171717  1
  O  O372  1  0.63315686  0.76301375  0.26146678  1
  O  O373  1  0.60582548  0.77808794  0.76424230  1
  O  O374  1  0.37250858  0.24288078  0.24965788  1
  O  O375  1  0.37895612  0.24624220  0.74307702  1
  O  O376  1  0.36625763  0.74010870  0.24096521  1
  O  O377  1  0.39973916  0.74963842  0.79026465  1
  O  O378  1  0.88401034  0.23742073  0.25376259  1
  O  O379  1  0.89097242  0.25204662  0.73582133  1
  O  O380  1  0.87791739  0.74492915  0.24144914  1
  O  O381  1  0.89345590  0.73460811  0.74776713  1
  O  O382  1  0.36173342  0.48868922  0.48862892  1
  O  O383  1  0.37889801  0.49880819  0.99192041  1
  O  O384  1  0.38967863  1.00180783  0.49567401  1
  O  O385  1  0.37230397  1.00031362  0.99984567  1
  O  O386  1  0.88515596  0.50231694  0.48202656  1
  O  O387  1  0.88341074  0.49458449  0.99380429  1
  O  O388  1  0.87540269  1.00177335  0.48994463  1
  O  O389  1  0.88589262  0.97965449  1.00197976  1
  O  O390  1  0.11984251  0.00430804  0.00348013  1
  O  O391  1  0.13595038  0.01364570  0.48688711  1
  O  O392  1  0.12032327  0.50424797  0.00649075  1
  O  O393  1  0.12396174  0.50295987  0.50186751  1
  O  O394  1  0.60939802  0.01494239  0.00752467  1
  O  O395  1  0.62645350  0.01324272  0.48841907  1
  O  O396  1  0.60998126  0.50714262  0.00326119  1
  O  O397  1  0.63760952  0.49713178  0.51796353  1
  O  O398  1  0.35521054  0.39655551  0.13378535  1
  O  O399  1  0.38086933  0.36504747  0.61419482  1
  O  O400  1  0.36658377  0.86770509  0.11933879  1
  O  O401  1  0.35358005  0.87422862  0.62260978  1
  O  O402  1  0.86508558  0.38561806  0.11539221  1
  O  O403  1  0.86684322  0.36333628  0.62581809  1
  O  O404  1  0.86909136  0.86418987  0.11835863  1
  O  O405  1  0.87764487  0.88091695  0.62204002  1
  O  O406  1  0.13375888  0.13963377  0.37809522  1
  O  O407  1  0.12371575  0.13262254  0.88226052  1
  O  O408  1  0.12978315  0.63315942  0.37617169  1
  O  O409  1  0.12926137  0.63166076  0.87943034  1
  O  O410  1  0.63424332  0.14057473  0.36605954  1
  O  O411  1  0.60951372  0.12663546  0.88756115  1
  O  O412  1  0.63223350  0.63570435  0.36577271  1
  O  O413  1  0.61651601  0.62082429  0.88713392  1
