# generated using pymatgen
data_V79Zn79O256
_symmetry_space_group_name_H-M   'P 1'
_cell_length_a   16.87695814
_cell_length_b   16.88247975
_cell_length_c   16.88878932
_cell_angle_alpha   90.08824857
_cell_angle_beta   89.96543636
_cell_angle_gamma   90.08610016
_symmetry_Int_Tables_number   1
_chemical_formula_structural   V79Zn79O256
_chemical_formula_sum   'V79 Zn79 O256'
_cell_volume   4812.02466381
_cell_formula_units_Z   1
loop_
 _symmetry_equiv_pos_site_id
 _symmetry_equiv_pos_as_xyz
  1  'x, y, z'
loop_
 _atom_site_type_symbol
 _atom_site_label
 _atom_site_symmetry_multiplicity
 _atom_site_fract_x
 _atom_site_fract_y
 _atom_site_fract_z
 _atom_site_occupancy
  V  V0  1  0.89029517  0.24831978  0.63037968  1
  V  V1  1  0.38187958  0.87068888  0.48815977  1
  V  V2  1  0.50652430  0.88049992  0.88557832  1
  V  V3  1  0.87338860  0.49825175  0.37456529  1
  V  V4  1  0.62555269  0.50392183  0.14736966  1
  V  V5  1  0.87845789  0.37350884  0.50189899  1
  V  V6  1  0.43862168  0.21498314  0.19947334  1
  V  V7  1  0.12729687  0.13071440  -0.00245493  1
  V  V8  1  -0.00272135  0.75286693  0.25421336  1
  V  V9  1  0.75195893  0.24767715  0.50722278  1
  V  V10  1  0.87211111  0.00404692  0.87498656  1
  V  V11  1  0.37613399  0.49813480  0.36633736  1
  V  V12  1  0.49468857  0.25300757  0.74131651  1
  V  V13  1  0.26450195  0.12699833  0.86706549  1
  V  V14  1  0.36294503  0.75150266  0.12082002  1
  V  V15  1  0.62150494  0.12305818  0.51409970  1
  V  V16  1  0.00391904  0.36126916  0.86926061  1
  V  V17  1  0.74472800  0.63147130  0.87059775  1
  V  V18  1  0.62185631  0.25554464  0.36974255  1
  V  V19  1  0.36523850  0.37467004  0.00523080  1
  V  V20  1  0.74582572  0.87313683  0.12636141  1
  V  V21  1  0.88737148  -0.00580040  0.37777707  1
  V  V22  1  0.61735308  0.86450368  0.26510109  1
  V  V23  1  0.24992877  0.62192320  0.36962212  1
  V  V24  1  0.49950983  -0.00603400  0.47943632  1
  V  V25  1  0.01476709  0.62236016  0.62349179  1
  V  V26  1  0.74744936  -0.00361259  0.25369126  1
  V  V27  1  0.61823637  0.63524219  -0.00451413  1
  V  V28  1  0.86997566  0.61633368  0.24741749  1
  V  V29  1  0.61406275  -0.00207639  0.62911971  1
  V  V30  1  0.74752359  0.62306253  0.37419725  1
  V  V31  1  0.01035405  0.00028791  0.51739652  1
  V  V32  1  0.00213639  0.35739254  0.37040456  1
  V  V33  1  0.88193507  0.87316209  0.49783500  1
  V  V34  1  0.74895493  0.12189601  0.37946050  1
  V  V35  1  0.60914475  0.00404079  0.11985357  1
  V  V36  1  0.36146834  0.50849643  0.86367803  1
  V  V37  1  0.12309949  0.74231440  0.37655537  1
  V  V38  1  0.25136675  0.74198740  0.50196857  1
  V  V39  1  0.25048273  0.49946481  0.24108512  1
  V  V40  1  0.11937199  0.87717930  0.25573492  1
  V  V41  1  0.12292584  0.49878806  0.11663599  1
  V  V42  1  0.87115188  0.75038629  0.12447129  1
  V  V43  1  0.25404932  0.25627843  0.00560692  1
  V  V44  1  0.24840900  0.64306614  0.86844763  1
  V  V45  1  0.62121430  0.62250625  0.50374993  1
  V  V46  1  0.00720049  0.86894232  0.87761607  1
  V  V47  1  0.13140598  0.64462571  -0.00201649  1
  V  V48  1  0.75214652  0.87223174  0.62587825  1
  V  V49  1  0.49598194  0.37174568  0.87204025  1
  V  V50  1  0.00844271  0.75011059  0.75339418  1
  V  V51  1  0.49220545  0.74330384  0.74784165  1
  V  V52  1  0.48701593  0.63162405  0.13047979  1
  V  V53  1  0.88271007  0.49896863  0.88021459  1
  V  V54  1  0.49467827  0.50579278  -0.00245969  1
  V  V55  1  0.62236280  0.37229376  0.75513532  1
  V  V56  1  0.88346413  0.12940696  0.25056587  1
  V  V57  1  0.00038226  0.13580455  0.13012494  1
  V  V58  1  0.36159388  0.26168830  0.61905663  1
  V  V59  1  0.75249066  0.37195002  0.62920780  1
  V  V60  1  0.37871135  0.11794852  0.73837044  1
  V  V61  1  0.25483432  0.88786814  0.62506714  1
  V  V62  1  -0.00153464  0.00239784  0.00164131  1
  V  V63  1  0.12247122  0.36231607  0.24346182  1
  V  V64  1  0.74461061  0.74811551  0.49647625  1
  V  V65  1  0.12946250  0.00506656  0.12663235  1
  V  V66  1  0.12830718  0.14216842  0.50710066  1
  V  V67  1  0.87100387  0.87689424  0.00168518  1
  V  V68  1  0.75101724  0.00283438  0.75190682  1
  V  V69  1  0.25930083  0.00034856  0.26558576  1
  V  V70  1  0.61986821  0.49835556  0.62390164  1
  V  V71  1  0.01175344  0.50760149  0.49951526  1
  V  V72  1  -0.00250405  0.62163682  0.11561794  1
  V  V73  1  0.89101468  0.12601463  0.74418968  1
  V  V74  1  0.62432649  0.86921795  0.75481613  1
  V  V75  1  0.14241391  0.38619828  0.73922699  1
  V  V76  1  0.25415702  0.14682814  0.38154091  1
  V  V77  1  0.35852869  0.88637209  -0.00078238  1
  V  V78  1  0.50010175  0.49067878  0.49352604  1
  Zn  Zn79  1  0.66485774  0.18944616  -0.05390587  1
  Zn  Zn80  1  0.13093839  0.88499691  0.73767628  1
  Zn  Zn81  1  0.38249630  0.71764598  0.62321996  1
  Zn  Zn82  1  0.87655880  0.62420182  0.74735590  1
  Zn  Zn83  1  0.49656641  0.36626282  0.35172545  1
  Zn  Zn84  1  0.87710934  0.74213467  0.62362475  1
  Zn  Zn85  1  0.75086610  0.49780098  0.75332329  1
  Zn  Zn86  1  0.79489371  0.32342122  0.09636986  1
  Zn  Zn87  1  0.74118153  0.75636818  -0.00819509  1
  Zn  Zn88  1  -0.05351178  0.44671096  0.04135688  1
  Zn  Zn89  1  0.38048253  0.00449003  0.87893812  1
  Zn  Zn90  1  0.12590516  0.24496474  0.85982291  1
  Zn  Zn91  1  0.48370970  0.75952198  0.27316935  1
  Zn  Zn92  1  0.36706052  0.36825082  0.49711642  1
  Zn  Zn93  1  0.24209633  0.87260625  0.11939090  1
  Zn  Zn94  1  0.22586202  0.19715642  0.20163678  1
  Zn  Zn95  1  0.18124022  0.19434592  0.68423569  1
  Zn  Zn96  1  0.18544041  0.68379570  0.18877141  1
  Zn  Zn97  1  0.18874108  0.68957142  0.68712045  1
  Zn  Zn98  1  0.67949893  0.18218249  0.18713925  1
  Zn  Zn99  1  0.66549923  0.16367178  0.73675336  1
  Zn  Zn100  1  0.68130517  0.68301429  0.18740174  1
  Zn  Zn101  1  0.68258836  0.68773828  0.68629388  1
  Zn  Zn102  1  0.32117782  0.31989786  0.30011746  1
  Zn  Zn103  1  0.31109881  0.31230337  0.81293390  1
  Zn  Zn104  1  0.30580077  0.81380635  0.30686779  1
  Zn  Zn105  1  0.31817634  0.81543330  0.81093523  1
  Zn  Zn106  1  0.79850407  0.30915056  0.30833140  1
  Zn  Zn107  1  0.81799512  0.31289156  0.81543577  1
  Zn  Zn108  1  0.81027681  0.80913120  0.31405236  1
  Zn  Zn109  1  0.82136144  0.81044301  0.81052936  1
  Zn  Zn110  1  0.18367661  0.43447351  0.42524708  1
  Zn  Zn111  1  0.17869391  0.44128810  0.92870899  1
  Zn  Zn112  1  0.18799559  0.92750046  0.44096042  1
  Zn  Zn113  1  0.17891983  0.95125205  0.91202162  1
  Zn  Zn114  1  0.68975433  0.43571700  0.43647486  1
  Zn  Zn115  1  0.68532038  0.44633629  0.94147339  1
  Zn  Zn116  1  0.68788411  0.93672822  0.44117983  1
  Zn  Zn117  1  0.68471299  0.94563476  0.93864411  1
  Zn  Zn118  1  0.32067994  0.07257970  0.07191245  1
  Zn  Zn119  1  0.31758882  0.06704638  0.55295688  1
  Zn  Zn120  1  0.30709252  0.56243451  0.05549439  1
  Zn  Zn121  1  0.30842603  0.55514408  0.55561399  1
  Zn  Zn122  1  0.80822106  0.06549455  0.06722228  1
  Zn  Zn123  1  0.81560004  0.06000580  0.56787370  1
  Zn  Zn124  1  0.80031199  0.56481021  0.06095952  1
  Zn  Zn125  1  0.81719774  0.55989660  0.56413732  1
  Zn  Zn126  1  0.44513896  0.42513146  0.18557943  1
  Zn  Zn127  1  0.42892477  0.44818746  0.68141219  1
  Zn  Zn128  1  0.43511784  0.93213430  0.19008954  1
  Zn  Zn129  1  0.43370143  0.92642629  0.68470759  1
  Zn  Zn130  1  0.90001723  0.39929364  0.20619692  1
  Zn  Zn131  1  0.94252046  0.44282734  0.69224645  1
  Zn  Zn132  1  0.93763321  0.94179009  0.18754615  1
  Zn  Zn133  1  0.93854332  0.93246802  0.69021863  1
  Zn  Zn134  1  0.07131423  0.06999972  0.32005756  1
  Zn  Zn135  1  0.06786213  0.05526654  0.80735708  1
  Zn  Zn136  1  0.05917990  0.55961836  0.30569517  1
  Zn  Zn137  1  0.06908222  0.56499737  0.81274165  1
  Zn  Zn138  1  0.55863133  0.07178374  0.30117006  1
  Zn  Zn139  1  0.54271208  0.09426232  0.86813094  1
  Zn  Zn140  1  0.54608172  0.59003140  0.32315817  1
  Zn  Zn141  1  0.56078181  0.55800711  0.81213329  1
  Zn  Zn142  1  0.43837018  0.18170922  0.43857153  1
  Zn  Zn143  1  0.49350328  0.14471227  1.05700311  1
  Zn  Zn144  1  0.43518709  0.68236549  0.43716614  1
  Zn  Zn145  1  0.43198851  0.69875374  0.93439890  1
  Zn  Zn146  1  0.93964015  0.17943935  0.44570427  1
  Zn  Zn147  1  0.93233241  0.18673185  0.93868439  1
  Zn  Zn148  1  0.93476062  0.68651775  0.43855031  1
  Zn  Zn149  1  0.93199750  0.68724271  0.93682615  1
  Zn  Zn150  1  0.05866232  0.31410883  0.05725962  1
  Zn  Zn151  1  0.07040017  0.32153963  0.56456979  1
  Zn  Zn152  1  0.05773260  0.81638140  0.06662946  1
  Zn  Zn153  1  0.06808308  0.81083663  0.56381469  1
  Zn  Zn154  1  0.56216062  0.32734778  0.06858703  1
  Zn  Zn155  1  0.56133876  0.31116211  0.56195372  1
  Zn  Zn156  1  0.55794978  0.81616462  0.07005673  1
  Zn  Zn157  1  0.56072701  0.81115775  0.56358192  1
  O  O158  1  0.11922047  0.11926431  0.11621309  1
  O  O159  1  0.13627558  0.12274033  0.60687658  1
  O  O160  1  0.11699638  0.62111432  0.11605219  1
  O  O161  1  0.11418060  0.62380073  0.62329873  1
  O  O162  1  0.60842979  0.10381096  0.14577641  1
  O  O163  1  0.63307033  0.11362869  0.62147744  1
  O  O164  1  0.60518437  0.62287541  0.11693872  1
  O  O165  1  0.63575105  0.60959954  0.61493409  1
  O  O166  1  0.37166899  0.38398728  0.38081683  1
  O  O167  1  0.37737720  0.39048671  0.87959806  1
  O  O168  1  0.37475316  0.86174670  0.38750279  1
  O  O169  1  0.38018335  0.88087163  0.88759346  1
  O  O170  1  0.88458735  0.37946712  0.37815234  1
  O  O171  1  0.88848258  0.38926037  0.87223697  1
  O  O172  1  0.86558013  0.88207938  0.38730308  1
  O  O173  1  0.88079082  0.88321766  0.88250302  1
  O  O174  1  0.25062905  -0.01116596  0.36600999  1
  O  O175  1  0.26406059  0.02446068  0.88900621  1
  O  O176  1  0.25303552  0.50453771  0.36375391  1
  O  O177  1  0.25875636  0.50965939  0.87891594  1
  O  O178  1  0.75672492  0.00574600  0.37284259  1
  O  O179  1  0.76155498  -0.01023344  0.86468437  1
  O  O180  1  0.76544803  0.50519698  0.38110196  1
  O  O181  1  0.75690280  0.50968713  0.87519670  1
  O  O182  1  0.24059615  0.50717879  0.13281123  1
  O  O183  1  0.24214545  0.45953852  0.57382871  1
  O  O184  1  0.23812131  1.00978169  0.13573894  1
  O  O185  1  0.25940903  0.98678129  0.61332821  1
  O  O186  1  0.72515433  0.50762577  0.12456114  1
  O  O187  1  0.74477547  0.48540257  0.62502687  1
  O  O188  1  0.74661823  0.99055211  0.13876760  1
  O  O189  1  0.74529053  0.98720151  0.62947758  1
  O  O190  1  0.00307640  0.37451965  0.26380357  1
  O  O191  1  0.00464070  0.38198347  0.76592214  1
  O  O192  1  0.00509474  0.86338305  0.24333969  1
  O  O193  1  0.00278478  0.86899601  0.76061355  1
  O  O194  1  0.45753862  0.32823749  0.24743236  1
  O  O195  1  0.50307207  0.37529387  0.75241447  1
  O  O196  1  0.51270268  0.87381910  0.25450058  1
  O  O197  1  0.50799820  0.87016430  0.75746058  1
  O  O198  1  0.48463799  0.15066180  0.26267385  1
  O  O199  1  0.48396755  0.14101071  0.76203926  1
  O  O200  1  0.47880291  0.61948916  0.22746771  1
  O  O201  1  0.51063669  0.64564654  0.76199157  1
  O  O202  1  0.99092819  0.11671507  0.24882544  1
  O  O203  1  0.99067668  0.11637370  0.75104295  1
  O  O204  1  0.99030149  0.63284725  0.23848230  1
  O  O205  1  1.00450223  0.63063946  0.73835816  1
  O  O206  1  0.36286643  0.26758775  -0.00377372  1
  O  O207  1  0.38498337  0.24998085  0.51543492  1
  O  O208  1  0.37756769  0.76966633  0.01137220  1
  O  O209  1  0.37013755  0.75012905  0.50172891  1
  O  O210  1  0.83997152  0.25385962  -0.03472421  1
  O  O211  1  0.87161392  0.25143768  0.51017466  1
  O  O212  1  0.86950330  0.75798137  0.00852444  1
  O  O213  1  0.86579045  0.75730223  0.50103936  1
  O  O214  1  0.11859134  0.24164443  0.50063643  1
  O  O215  1  0.13243925  0.24301410  0.99358583  1
  O  O216  1  0.13536417  0.75607399  0.48444872  1
  O  O217  1  0.12604839  0.74337526  1.00973061  1
  O  O218  1  0.63288987  0.23863010  0.50048720  1
  O  O219  1  0.65016293  0.29923357  0.99894449  1
  O  O220  1  0.63543961  0.73812791  0.50838271  1
  O  O221  1  0.62035418  0.73981765  1.00531398  1
  O  O222  1  0.50803383  0.24543691  0.12412002  1
  O  O223  1  0.49226052  0.25406130  0.63615931  1
  O  O224  1  0.48958450  0.74073209  0.12651325  1
  O  O225  1  0.50014384  0.75304432  0.64044989  1
  O  O226  1  1.00484012  0.23462194  0.12214320  1
  O  O227  1  0.98811508  0.25975829  0.62233342  1
  O  O228  1  0.99161278  0.74285798  0.13415280  1
  O  O229  1  1.00160122  0.73749031  0.62711352  1
  O  O230  1  -0.00531146  0.25942471  0.38087808  1
  O  O231  1  -0.00169232  0.25845707  0.87507260  1
  O  O232  1  0.00612310  0.73955456  0.36296612  1
  O  O233  1  -0.01054207  0.75623058  0.86485349  1
  O  O234  1  0.51962327  0.24840761  0.38863193  1
  O  O235  1  0.48966368  0.27156353  0.86135074  1
  O  O236  1  0.51282109  0.69755496  0.35925050  1
  O  O237  1  0.49225803  0.77061372  0.86367787  1
  O  O238  1  0.24075834  0.12682271  0.49164327  1
  O  O239  1  0.24791891  0.13851958  0.99548475  1
  O  O240  1  0.25023952  0.63163451  0.48271481  1
  O  O241  1  0.23590323  0.62997268  0.99532114  1
  O  O242  1  0.74439713  0.12437650  0.49681182  1
  O  O243  1  0.73937064  0.15420362  1.03997881  1
  O  O244  1  0.74807571  0.63031203  0.49540900  1
  O  O245  1  0.73657318  0.63159118  0.99022049  1
  O  O246  1  0.25443041  0.36812275  -0.01233873  1
  O  O247  1  0.24788458  0.40141746  0.51695589  1
  O  O248  1  0.25636240  0.88541663  -0.00391589  1
  O  O249  1  0.26104353  0.86206894  0.50421404  1
  O  O250  1  0.71399982  0.35706490  0.01188878  1
  O  O251  1  0.75814531  0.36857675  0.50871184  1
  O  O252  1  0.75111959  0.87564730  0.01055120  1
  O  O253  1  0.75516420  0.86764002  0.50769213  1
  O  O254  1  0.12961505  0.49750079  0.23734706  1
  O  O255  1  0.12758431  0.48692748  0.75992043  1
  O  O256  1  0.12537492  0.99275012  0.24592959  1
  O  O257  1  0.14386502  0.97692332  0.79896707  1
  O  O258  1  0.61586398  0.53142996  0.24388481  1
  O  O259  1  0.62495223  0.49145276  0.73885475  1
  O  O260  1  0.63260902  0.98985610  0.24807509  1
  O  O261  1  0.63752378  0.98654398  0.74198548  1
  O  O262  1  0.35737204  -0.00595179  0.24619612  1
  O  O263  1  0.38247497  0.01606510  0.74522972  1
  O  O264  1  0.36262748  0.48489468  0.25489916  1
  O  O265  1  0.37751171  0.50388275  0.76547687  1
  O  O266  1  0.86610405  -0.00002820  0.26086921  1
  O  O267  1  0.87206013  0.00439136  0.75479919  1
  O  O268  1  0.88360474  0.50987955  0.25865626  1
  O  O269  1  0.87045752  0.50456475  0.76315134  1
  O  O270  1  0.10976666  0.37567484  0.36091649  1
  O  O271  1  0.11638266  0.37036249  0.86431054  1
  O  O272  1  0.12767838  0.86060755  0.36166270  1
  O  O273  1  0.10494278  0.86232990  0.89788574  1
  O  O274  1  0.62972773  0.35948714  0.37617829  1
  O  O275  1  0.61150861  0.39136975  0.86190198  1
  O  O276  1  0.63415702  0.87288175  0.36408387  1
  O  O277  1  0.61535086  0.88187768  0.86987423  1
  O  O278  1  0.40078450  0.13787529  0.12188774  1
  O  O279  1  0.37176881  0.13522994  0.63510769  1
  O  O280  1  0.37795514  0.64145464  0.10755230  1
  O  O281  1  0.37109436  0.60579968  0.62884329  1
  O  O282  1  0.88485772  0.11348040  0.14351893  1
  O  O283  1  0.87865178  0.13121016  0.63457259  1
  O  O284  1  0.87693524  0.62752494  0.12917491  1
  O  O285  1  0.88615448  0.62378280  0.62846961  1
  O  O286  1  0.24078109  0.25249467  0.10353209  1
  O  O287  1  0.26308220  0.25181939  0.62185591  1
  O  O288  1  0.25867631  0.75080284  0.12768001  1
  O  O289  1  0.25314631  0.74492895  0.60872192  1
  O  O290  1  0.75254395  0.21146657  0.10498352  1
  O  O291  1  0.76099711  0.26243921  0.62353484  1
  O  O292  1  0.75164670  0.76032155  0.12637834  1
  O  O293  1  0.75085150  0.75798200  0.61740625  1
  O  O294  1  0.25098360  0.24596924  0.37064101  1
  O  O295  1  0.24927030  0.23949660  0.88378641  1
  O  O296  1  0.24397996  0.74052106  0.37551784  1
  O  O297  1  0.25760906  0.74255363  0.87660597  1
  O  O298  1  0.74567525  0.24088419  0.38647662  1
  O  O299  1  0.78321641  0.24560191  0.90599304  1
  O  O300  1  0.75473401  0.73749227  0.38673364  1
  O  O301  1  0.75425518  0.73694483  0.87371690  1
  O  O302  1  0.00471533  0.12278541  0.00684140  1
  O  O303  1  0.01399168  0.10932778  0.49871129  1
  O  O304  1  0.00930338  0.63438356  0.00908654  1
  O  O305  1  -0.00287439  0.61711483  0.50851650  1
  O  O306  1  0.55339686  0.15013837  -0.03182085  1
  O  O307  1  0.51297404  0.10806431  0.49729803  1
  O  O308  1  0.49983318  0.62289741  -0.00139052  1
  O  O309  1  0.51464599  0.60809675  0.49557457  1
  O  O310  1  0.50500047  0.38438957  0.49083574  1
  O  O311  1  0.48591461  0.38594508  0.99152497  1
  O  O312  1  0.50010998  0.88523137  0.49871875  1
  O  O313  1  0.49974432  0.87390176  0.98765728  1
  O  O314  1  0.99885922  0.38621305  0.48757018  1
  O  O315  1  1.01587538  0.38348373  0.97577173  1
  O  O316  1  0.98837053  0.88033036  0.50652531  1
  O  O317  1  0.98825003  0.88207341  1.00001043  1
  O  O318  1  0.49267570  0.49296732  0.37233239  1
  O  O319  1  0.48712288  0.49911473  0.88235017  1
  O  O320  1  0.50871562  1.00019804  0.38098750  1
  O  O321  1  0.49564458  0.98704814  0.87127792  1
  O  O322  1  0.98968427  0.50328809  0.38409191  1
  O  O323  1  0.98344458  0.51330297  0.87695643  1
  O  O324  1  0.98943893  1.00063386  0.38062825  1
  O  O325  1  0.98991815  0.99045853  0.88326040  1
  O  O326  1  0.00939013  0.00786667  0.12108404  1
  O  O327  1  0.00080503  -0.00367917  0.61705917  1
  O  O328  1  0.00570600  0.51357280  0.12195734  1
  O  O329  1  -0.00192901  0.50931278  0.61070521  1
  O  O330  1  0.50993577  -0.01449848  0.12177783  1
  O  O331  1  0.51286259  -0.00751566  0.62425662  1
  O  O332  1  0.49029129  0.51560019  0.11359932  1
  O  O333  1  0.51356392  0.49035682  0.61240441  1
  O  O334  1  0.22954547  0.38665441  0.25429186  1
  O  O335  1  0.24399364  0.37895064  0.75127605  1
  O  O336  1  0.23678409  0.88566869  0.24358362  1
  O  O337  1  0.26058145  0.86933568  0.72822791  1
  O  O338  1  0.78813856  0.36146772  0.21240778  1
  O  O339  1  0.74155218  0.37173703  0.74677811  1
  O  O340  1  0.74383034  0.87925978  0.24578040  1
  O  O341  1  0.74823616  0.87805841  0.74324507  1
  O  O342  1  0.23714086  0.10819178  0.27119666  1
  O  O343  1  0.26163199  0.13252920  0.76002052  1
  O  O344  1  0.24762880  0.61365232  0.25697904  1
  O  O345  1  0.23695098  0.62922984  0.76961652  1
  O  O346  1  0.75892011  0.11311445  0.26087830  1
  O  O347  1  0.76687063  0.10568978  0.73790053  1
  O  O348  1  0.76124940  0.63289227  0.25870927  1
  O  O349  1  0.74464935  0.62379308  0.76199458  1
  O  O350  1  0.35443699  0.12554051  0.38671078  1
  O  O351  1  0.36875275  0.13036506  0.86387725  1
  O  O352  1  0.36288061  0.60801256  0.37411967  1
  O  O353  1  0.36018321  0.61888950  0.88384399  1
  O  O354  1  0.86837257  0.11410146  0.37229857  1
  O  O355  1  0.87980206  0.11106905  0.86245100  1
  O  O356  1  0.86828986  0.61786379  0.36816484  1
  O  O357  1  0.86023953  0.61823762  0.87421045  1
  O  O358  1  0.10901109  0.38544575  0.13639441  1
  O  O359  1  0.12043171  0.38365997  0.63913281  1
  O  O360  1  0.12386031  0.88699338  0.13260734  1
  O  O361  1  0.14729291  0.87091871  0.62085726  1
  O  O362  1  0.59389380  0.40629011  0.14589206  1
  O  O363  1  0.63409500  0.38004416  0.63071034  1
  O  O364  1  0.63180034  0.88241196  0.13619341  1
  O  O365  1  0.63469250  0.87973100  0.63117002  1
  O  O366  1  0.13257913  0.26435269  0.23780936  1
  O  O367  1  0.12707349  0.26738172  0.74870296  1
  O  O368  1  0.11659581  0.75600730  0.25258673  1
  O  O369  1  0.11242053  0.75946876  0.74418842  1
  O  O370  1  0.63362387  0.24189124  0.27074191  1
  O  O371  1  0.61241348  0.26569722  0.74258301  1
  O  O372  1  0.62451843  0.76330865  0.24658655  1
  O  O373  1  0.62036010  0.76465130  0.74679455  1
  O  O374  1  0.33779552  0.23386159  0.22676393  1
  O  O375  1  0.37769805  0.24830613  0.73728255  1
  O  O376  1  0.37639860  0.76653669  0.22834454  1
  O  O377  1  0.38837165  0.75120766  0.74460977  1
  O  O378  1  0.87457523  0.22640692  0.26192883  1
  O  O379  1  0.87183100  0.23259041  0.74670197  1
  O  O380  1  0.88000658  0.74192255  0.24634316  1
  O  O381  1  0.88986376  0.74716780  0.74281436  1
  O  O382  1  0.38753043  0.49602518  0.48558335  1
  O  O383  1  0.37694216  0.49533604  0.98988868  1
  O  O384  1  0.39482465  0.99274040  0.49984444  1
  O  O385  1  0.37693566  0.98932692  1.00831739  1
  O  O386  1  0.88355838  0.49235319  0.49218311  1
  O  O387  1  0.86575735  0.50611390  0.98701873  1
  O  O388  1  0.88499155  0.99382172  0.49712347  1
  O  O389  1  0.87448732  0.99980864  0.99463431  1
  O  O390  1  0.12044972  0.01091267  0.00674481  1
  O  O391  1  0.10897469  -0.01308462  0.49758465  1
  O  O392  1  0.13087927  0.50734171  0.01289355  1
  O  O393  1  0.10948308  0.50199451  0.48791464  1
  O  O394  1  0.63567370  0.00399438  0.02137116  1
  O  O395  1  0.61824238  0.00246373  0.50820268  1
  O  O396  1  0.60778749  0.51236214  0.00657332  1
  O  O397  1  0.62267025  0.50183255  0.50541851  1
  O  O398  1  0.36899969  0.38779906  0.10329012  1
  O  O399  1  0.37609397  0.36650906  0.62023515  1
  O  O400  1  0.36884125  0.87054652  0.11301334  1
  O  O401  1  0.36797733  0.86772874  0.60870274  1
  O  O402  1  0.90287594  0.36138156  0.09986475  1
  O  O403  1  0.87109956  0.37090657  0.62427062  1
  O  O404  1  0.86451460  0.87291815  0.12320061  1
  O  O405  1  0.86540572  0.87398296  0.61657844  1
  O  O406  1  0.13861973  0.12020365  0.39321979  1
  O  O407  1  0.13283924  0.12486082  0.88563478  1
  O  O408  1  0.13209219  0.63388784  0.36431673  1
  O  O409  1  0.13213364  0.62685654  0.89084988  1
  O  O410  1  0.63651062  0.12847356  0.38539662  1
  O  O411  1  0.64811396  0.13314731  0.84534743  1
  O  O412  1  0.64374904  0.60987263  0.39037682  1
  O  O413  1  0.63576481  0.61725838  0.88295184  1
