# generated using pymatgen
data_V79Zn79O256
_symmetry_space_group_name_H-M   'P 1'
_cell_length_a   16.91633596
_cell_length_b   16.91278138
_cell_length_c   16.90988038
_cell_angle_alpha   89.97629713
_cell_angle_beta   90.00496899
_cell_angle_gamma   90.02420552
_symmetry_Int_Tables_number   1
_chemical_formula_structural   V79Zn79O256
_chemical_formula_sum   'V79 Zn79 O256'
_cell_volume   4837.95466696
_cell_formula_units_Z   1
loop_
 _symmetry_equiv_pos_site_id
 _symmetry_equiv_pos_as_xyz
  1  'x, y, z'
loop_
 _atom_site_type_symbol
 _atom_site_label
 _atom_site_symmetry_multiplicity
 _atom_site_fract_x
 _atom_site_fract_y
 _atom_site_fract_z
 _atom_site_occupancy
  V  V0  1  0.24517626  0.49850902  0.74350983  1
  V  V1  1  0.12642535  0.25173499  0.87401150  1
  V  V2  1  0.62551816  0.37467283  0.75450557  1
  V  V3  1  0.13030073  0.13037771  0.00180943  1
  V  V4  1  0.37747089  0.50015434  0.36304839  1
  V  V5  1  0.49581874  0.50776465  0.50764556  1
  V  V6  1  0.88432918  -0.00225641  0.37948084  1
  V  V7  1  0.00030591  0.12192647  0.11812590  1
  V  V8  1  0.73512446  0.12502279  0.38507563  1
  V  V9  1  0.25347608  0.00293988  0.26082088  1
  V  V10  1  0.74825031  -0.01328858  0.24629157  1
  V  V11  1  0.11969333  -0.00373299  0.11887746  1
  V  V12  1  0.00401196  0.25441408  0.24648188  1
  V  V13  1  0.25017499  0.74920612  0.00023444  1
  V  V14  1  0.86091664  0.62109260  0.25008824  1
  V  V15  1  0.48931876  0.88509538  0.87247120  1
  V  V16  1  0.38223429  0.11809607  0.75373395  1
  V  V17  1  0.87815909  0.87605421  0.51003049  1
  V  V18  1  0.25387189  -0.00065957  0.75271752  1
  V  V19  1  0.63853318  0.13817655  -0.00465544  1
  V  V20  1  0.13561273  0.37673801  0.25243131  1
  V  V21  1  0.62537281  0.74855907  0.36290111  1
  V  V22  1  0.37707271  0.62382404  0.74394699  1
  V  V23  1  0.50163361  0.87430891  0.36480428  1
  V  V24  1  0.75222013  0.51325753  0.75153783  1
  V  V25  1  0.37755405  0.23073836  0.12648284  1
  V  V26  1  0.24320675  0.24825847  0.48186663  1
  V  V27  1  0.61532810  0.63298888  0.51166503  1
  V  V28  1  0.61885444  0.88115070  0.74793827  1
  V  V29  1  0.52623088  0.12255681  0.62371430  1
  V  V30  1  0.37773880  0.74712680  0.62196373  1
  V  V31  1  0.00323873  0.89047987  0.88560521  1
  V  V32  1  0.63802396  0.74808381  0.87180516  1
  V  V33  1  0.37464277  0.88557541  0.49931612  1
  V  V34  1  0.38186091  0.37583216  0.49899342  1
  V  V35  1  0.36681812  0.88395818  -0.00791318  1
  V  V36  1  0.25059368  0.86894539  0.12539491  1
  V  V37  1  0.49896366  0.00844603  -0.00262070  1
  V  V38  1  0.11966660  0.60247714  0.50748880  1
  V  V39  1  0.12401114  0.37072297  0.75205741  1
  V  V40  1  0.24636879  0.87552753  0.62447415  1
  V  V41  1  0.00061670  0.86442233  0.37866152  1
  V  V42  1  0.37474259  0.24637152  0.62453238  1
  V  V43  1  0.87528062  0.12567887  0.25186137  1
  V  V44  1  0.12992574  0.49665426  0.12542457  1
  V  V45  1  0.75544764  0.74355791  0.50543508  1
  V  V46  1  0.50667842  0.25175431  0.75309612  1
  V  V47  1  0.75004929  -0.00416235  0.78563567  1
  V  V48  1  0.52513449  -0.00227644  0.50749610  1
  V  V49  1  0.24793679  0.62341504  0.87221470  1
  V  V50  1  0.12227820  0.62121906  -0.00196835  1
  V  V51  1  0.73161212  0.25151648  0.49238472  1
  V  V52  1  -0.00131676  0.49257608  -0.00215590  1
  V  V53  1  0.10977518  0.01110590  0.62407191  1
  V  V54  1  0.86877071  0.75293339  0.11484991  1
  V  V55  1  0.49662407  0.51367496  0.00466407  1
  V  V56  1  0.24327713  0.37438201  0.62522901  1
  V  V57  1  0.37571348  0.50034953  0.87216226  1
  V  V58  1  0.23841495  0.74850886  0.49780580  1
  V  V59  1  0.11779218  0.87323042  0.74911957  1
  V  V60  1  0.25725605  0.36696335  0.11709468  1
  V  V61  1  0.11827141  0.74631383  0.87020568  1
  V  V62  1  0.85493961  0.50491376  0.37313754  1
  V  V63  1  0.75101719  0.36676599  0.62114519  1
  V  V64  1  0.86273654  0.25285296  0.12353950  1
  V  V65  1  0.12195892  0.86380851  0.25448354  1
  V  V66  1  0.63918701  0.63074920  -0.00336594  1
  V  V67  1  -0.00332499  0.38296499  0.36928108  1
  V  V68  1  0.87430780  0.36757995  0.49244934  1
  V  V69  1  0.86585592  0.50918652  0.87231302  1
  V  V70  1  0.50491713  0.37621680  0.87843085  1
  V  V71  1  0.25615778  0.12844411  0.87791118  1
  V  V72  1  0.37686368  0.64430990  0.24539185  1
  V  V73  1  0.49560434  0.74791159  0.75562004  1
  V  V74  1  0.24063483  0.62361552  0.36972377  1
  V  V75  1  -0.01099744  0.61244188  0.63095569  1
  V  V76  1  0.87413990  0.88854048  0.00211622  1
  V  V77  1  0.74569541  0.89078270  0.62358824  1
  V  V78  1  0.85934591  0.36710602  0.00078490  1
  Zn  Zn79  1  -0.05640168  0.20227477  0.69109777  1
  Zn  Zn80  1  0.50685054  0.64320202  0.13749601  1
  Zn  Zn81  1  -0.02047141  0.75085249  0.73817641  1
  Zn  Zn82  1  -0.00091010  0.62181892  0.12769332  1
  Zn  Zn83  1  0.60494067  0.37279615  0.26569224  1
  Zn  Zn84  1  -0.00935119  0.36848369  0.86594601  1
  Zn  Zn85  1  -0.00020565  0.74162645  0.25087843  1
  Zn  Zn86  1  0.12819034  0.11548098  0.47713660  1
  Zn  Zn87  1  0.67748305  0.46915691  0.16977362  1
  Zn  Zn88  1  0.50531281  0.11490822  0.13940798  1
  Zn  Zn89  1  0.62282407  0.50541191  0.62934283  1
  Zn  Zn90  1  0.53227520  0.22490337  0.28624982  1
  Zn  Zn91  1  0.37497681  0.36645460  -0.00370628  1
  Zn  Zn92  1  0.62655146  -0.01301670  0.12872537  1
  Zn  Zn93  1  0.37296594  0.12496644  0.28094548  1
  Zn  Zn94  1  0.19125266  0.19009186  0.19527753  1
  Zn  Zn95  1  0.19044922  0.18853232  0.68945935  1
  Zn  Zn96  1  0.18793076  0.68267445  0.18506143  1
  Zn  Zn97  1  0.18315841  0.68535982  0.68206798  1
  Zn  Zn98  1  0.68628384  0.16800281  0.18517213  1
  Zn  Zn99  1  0.75187246  0.11557251  0.63434118  1
  Zn  Zn100  1  0.68890932  0.69219576  0.17944118  1
  Zn  Zn101  1  0.81442610  0.69485365  0.68391196  1
  Zn  Zn102  1  0.39527535  0.30851414  0.31512580  1
  Zn  Zn103  1  0.31537099  0.30972356  0.81169079  1
  Zn  Zn104  1  0.31032056  0.81619094  0.31889936  1
  Zn  Zn105  1  0.30787199  0.80998556  0.81218031  1
  Zn  Zn106  1  0.77051441  0.33271299  0.31889361  1
  Zn  Zn107  1  0.79572898  0.32732550  0.82458895  1
  Zn  Zn108  1  0.81476008  0.80304908  0.31800108  1
  Zn  Zn109  1  0.81829308  0.82940478  0.81506074  1
  Zn  Zn110  1  0.19462001  0.43235462  0.43288798  1
  Zn  Zn111  1  0.19088834  0.43689392  0.93737241  1
  Zn  Zn112  1  0.18146505  0.93449291  0.44144342  1
  Zn  Zn113  1  0.18369843  0.94101001  0.93587716  1
  Zn  Zn114  1  0.67237540  0.44705061  0.42629994  1
  Zn  Zn115  1  0.69554029  0.45229994  0.97097098  1
  Zn  Zn116  1  0.69381436  0.93059864  0.42912829  1
  Zn  Zn117  1  0.67296025  0.91720602  0.96485614  1
  Zn  Zn118  1  0.30464281  0.05503051  0.06474839  1
  Zn  Zn119  1  0.30551993  0.06808780  0.56211472  1
  Zn  Zn120  1  0.31140786  0.56100418  0.06403426  1
  Zn  Zn121  1  0.30733750  0.56239821  0.55974699  1
  Zn  Zn122  1  0.81128746  0.06182195  0.05999003  1
  Zn  Zn123  1  0.93269273  0.07710694  0.55219087  1
  Zn  Zn124  1  0.81182684  0.56310835  0.06632029  1
  Zn  Zn125  1  0.81247826  0.55308248  0.56089704  1
  Zn  Zn126  1  0.46995408  0.42442217  0.17574903  1
  Zn  Zn127  1  0.43623908  0.43733759  0.68483120  1
  Zn  Zn128  1  0.43069144  0.93312751  0.18155759  1
  Zn  Zn129  1  0.43889377  0.93823278  0.68055131  1
  Zn  Zn130  1  0.93305844  0.43934003  0.18590366  1
  Zn  Zn131  1  0.97241604  0.40179080  0.64643301  1
  Zn  Zn132  1  0.93652877  0.93443270  0.19053808  1
  Zn  Zn133  1  0.92315069  1.03972723  0.71219316  1
  Zn  Zn134  1  0.06782151  0.05137632  0.30419661  1
  Zn  Zn135  1  0.06828315  0.06932303  0.81046852  1
  Zn  Zn136  1  0.05658020  0.56044828  0.31057445  1
  Zn  Zn137  1  0.05515958  0.55522991  0.80950434  1
  Zn  Zn138  1  0.55777060  0.04677800  0.31370584  1
  Zn  Zn139  1  0.61230873  0.09935089  0.79220542  1
  Zn  Zn140  1  0.55927990  0.56899505  0.31618911  1
  Zn  Zn141  1  0.56526913  0.56543961  0.81365493  1
  Zn  Zn142  1  0.43302563  0.16868121  0.44371533  1
  Zn  Zn143  1  0.43666721  0.19458524  0.94052219  1
  Zn  Zn144  1  0.43607718  0.69102424  0.43152691  1
  Zn  Zn145  1  0.46302885  0.72323420  0.97647725  1
  Zn  Zn146  1  0.98325266  0.16720030  0.40670148  1
  Zn  Zn147  1  0.94672389  0.19284756  0.93865373  1
  Zn  Zn148  1  0.93892913  0.68168089  0.43914954  1
  Zn  Zn149  1  0.93646059  0.68687711  0.93520875  1
  Zn  Zn150  1  0.06248616  0.31179236  0.06176327  1
  Zn  Zn151  1  0.04146293  0.26314506  0.54421189  1
  Zn  Zn152  1  0.05850108  0.80534618  0.06615869  1
  Zn  Zn153  1  0.05506185  0.80718799  0.56705122  1
  Zn  Zn154  1  0.58726107  0.29107854  0.11193456  1
  Zn  Zn155  1  0.56145476  0.31571223  0.56547011  1
  Zn  Zn156  1  0.56534133  0.81474751  0.07569896  1
  Zn  Zn157  1  0.56293122  0.81164654  0.56696686  1
  O  O158  1  0.12054037  0.11939393  0.11989718  1
  O  O159  1  0.12664094  0.11044218  0.63647015  1
  O  O160  1  0.12590807  0.61254333  0.11693155  1
  O  O161  1  0.12331306  0.61683707  0.61146294  1
  O  O162  1  0.62068549  0.10547904  0.11193455  1
  O  O163  1  0.62441867  0.12950582  0.62808730  1
  O  O164  1  0.62186024  0.63625101  0.10281192  1
  O  O165  1  0.62263860  0.62475666  0.61028442  1
  O  O166  1  0.36344158  0.39376595  0.38803054  1
  O  O167  1  0.38075855  0.38497007  0.87270366  1
  O  O168  1  0.39053769  0.86508427  0.38929212  1
  O  O169  1  0.37424088  0.87406577  0.87983331  1
  O  O170  1  0.86929180  0.38699017  0.37406128  1
  O  O171  1  0.87609398  0.38078653  0.88857090  1
  O  O172  1  0.87957544  0.88074556  0.38447134  1
  O  O173  1  0.89688912  0.87275381  0.88936446  1
  O  O174  1  0.24098387  -0.01249098  0.35956138  1
  O  O175  1  0.24168934  0.01012807  0.86065570  1
  O  O176  1  0.26411990  0.51617278  0.38328084  1
  O  O177  1  0.25893092  0.50243369  0.86622639  1
  O  O178  1  0.76155694  0.01122421  0.37155360  1
  O  O179  1  0.73225917  -0.01300978  0.88270947  1
  O  O180  1  0.75691545  0.50716578  0.37003506  1
  O  O181  1  0.75637725  0.49311094  0.86832511  1
  O  O182  1  0.23686748  0.48813898  0.11924365  1
  O  O183  1  0.25871102  0.48823677  0.63461802  1
  O  O184  1  0.23681588  0.98652471  0.13140889  1
  O  O185  1  0.24324422  0.99482093  0.63701015  1
  O  O186  1  0.73376618  0.48617196  0.07775292  1
  O  O187  1  0.74757877  0.49096976  0.63765506  1
  O  O188  1  0.75819921  1.00312835  0.14533671  1
  O  O189  1  0.74563452  0.99019331  0.62393248  1
  O  O190  1  0.00514790  0.37066325  0.24806664  1
  O  O191  1  0.02229174  0.39231103  0.75495331  1
  O  O192  1  0.00671180  0.86955728  0.25775589  1
  O  O193  1  0.01347634  0.87017677  0.76628329  1
  O  O194  1  0.48752062  0.35991127  0.26557826  1
  O  O195  1  0.50534019  0.37167553  0.75405435  1
  O  O196  1  0.49468087  0.88680161  0.26618065  1
  O  O197  1  0.49841095  0.86916543  0.75432884  1
  O  O198  1  0.49042801  0.11539964  0.25477785  1
  O  O199  1  0.50127454  0.13209502  0.74291200  1
  O  O200  1  0.48200763  0.62916804  0.25018217  1
  O  O201  1  0.48701631  0.63408235  0.75493144  1
  O  O202  1  0.99195764  0.13283001  0.23785259  1
  O  O203  1  0.98516758  0.12112281  0.76131622  1
  O  O204  1  0.98893392  0.62417736  0.24679085  1
  O  O205  1  1.00403514  0.62287636  0.73486151  1
  O  O206  1  0.37391812  0.25259892  0.01709108  1
  O  O207  1  0.36739465  0.25566536  0.51164417  1
  O  O208  1  0.35275042  0.76109808  -0.01060640  1
  O  O209  1  0.36847557  0.75389385  0.50938085  1
  O  O210  1  0.88408744  0.25849160  0.01053660  1
  O  O211  1  0.85608223  0.26946517  0.48787704  1
  O  O212  1  0.88200366  0.75140176  0.01148512  1
  O  O213  1  0.85989202  0.75617799  0.48942072  1
  O  O214  1  0.14211989  0.26573983  0.49240707  1
  O  O215  1  0.12702093  0.23753242  0.99486958  1
  O  O216  1  0.13687937  0.74714882  0.50390069  1
  O  O217  1  0.13023673  0.74199031  0.98984070  1
  O  O218  1  0.63221054  0.25770722  0.49544075  1
  O  O219  1  0.61908974  0.23500508  1.02048421  1
  O  O220  1  0.63020863  0.74339729  0.50081300  1
  O  O221  1  0.61560271  0.73934253  0.98016281  1
  O  O222  1  0.48012858  0.23588302  0.13000738  1
  O  O223  1  0.49404696  0.24180052  0.62978196  1
  O  O224  1  0.48548885  0.74315990  0.08948630  1
  O  O225  1  0.48548945  0.75678423  0.63889249  1
  O  O226  1  0.99578125  0.24127607  0.12961453  1
  O  O227  1  0.98809559  0.28868087  0.63665403  1
  O  O228  1  0.98969519  0.74117360  0.12950359  1
  O  O229  1  1.00463344  0.72786416  0.62738041  1
  O  O230  1  -0.01368552  0.26927914  0.35296418  1
  O  O231  1  0.02011060  0.25406182  0.87760274  1
  O  O232  1  -0.00849874  0.76057492  0.37129062  1
  O  O233  1  0.01296167  0.74932494  0.87202914  1
  O  O234  1  0.47337331  0.24753247  0.37774340  1
  O  O235  1  0.48972057  0.26588390  0.86515138  1
  O  O236  1  0.51047831  0.76430004  0.38020737  1
  O  O237  1  0.49050457  0.76143519  0.86513745  1
  O  O238  1  0.23988846  0.14326819  0.50788548  1
  O  O239  1  0.24292118  0.11635926  0.98786062  1
  O  O240  1  0.23773115  0.62914761  0.49474008  1
  O  O241  1  0.24368147  0.63017478  0.99298051  1
  O  O242  1  0.74599220  0.13992390  0.49361064  1
  O  O243  1  0.73833209  0.12195672  1.00005592  1
  O  O244  1  0.74083058  0.63853103  0.50496585  1
  O  O245  1  0.73709235  0.62736014  0.99355772  1
  O  O246  1  0.25354091  0.37722631  0.01258604  1
  O  O247  1  0.26089515  0.36847674  0.50812742  1
  O  O248  1  0.24761698  0.87025073  0.00368996  1
  O  O249  1  0.25575020  0.86606153  0.50264080  1
  O  O250  1  0.76150193  0.35704057  -0.01333852  1
  O  O251  1  0.74794745  0.37085636  0.50230705  1
  O  O252  1  0.77797382  0.87273646  -0.01019563  1
  O  O253  1  0.75606518  0.87013986  0.50588895  1
  O  O254  1  0.11564786  0.48729400  0.23565887  1
  O  O255  1  0.14137792  0.49123105  0.75971869  1
  O  O256  1  0.13263520  0.98482488  0.23808244  1
  O  O257  1  0.13179231  0.99124774  0.74171714  1
  O  O258  1  0.62115525  0.49460424  0.26447682  1
  O  O259  1  0.63580175  0.49471438  0.75196705  1
  O  O260  1  0.64329161  0.99871122  0.25085598  1
  O  O261  1  0.61900589  0.98220119  0.76381852  1
  O  O262  1  0.35489626  -0.00449071  0.24282631  1
  O  O263  1  0.36769352  0.00856706  0.74216900  1
  O  O264  1  0.38066463  0.50196903  0.26453440  1
  O  O265  1  0.36766262  0.50495437  0.75239557  1
  O  O266  1  0.87024125  0.00786686  0.25672289  1
  O  O267  1  0.85034773  -0.01451515  0.77587386  1
  O  O268  1  0.87336539  0.51069368  0.25449397  1
  O  O269  1  0.86042868  0.49518122  0.76570261  1
  O  O270  1  0.11732872  0.38561351  0.35798009  1
  O  O271  1  0.13437702  0.36498813  0.86836251  1
  O  O272  1  0.11218956  0.87813295  0.36728021  1
  O  O273  1  0.12042066  0.86643012  0.87075994  1
  O  O274  1  0.66241604  0.35784536  0.36242905  1
  O  O275  1  0.61478048  0.38281692  0.86348398  1
  O  O276  1  0.61178545  0.86460942  0.37969765  1
  O  O277  1  0.60801831  0.86222124  0.87351412  1
  O  O278  1  0.36773083  0.12803286  0.12326109  1
  O  O279  1  0.37858893  0.13275647  0.63530388  1
  O  O280  1  0.35907784  0.62249913  0.14667595  1
  O  O281  1  0.36534685  0.63374155  0.63412711  1
  O  O282  1  0.88258383  0.13201921  0.12807226  1
  O  O283  1  0.86889457  0.11898354  0.63741923  1
  O  O284  1  0.87531162  0.63067407  0.13223192  1
  O  O285  1  0.88315193  0.62345292  0.61851925  1
  O  O286  1  0.25194619  0.26231356  0.12482007  1
  O  O287  1  0.26189084  0.25792886  0.62850454  1
  O  O288  1  0.23668080  0.75830623  0.11130395  1
  O  O289  1  0.25658305  0.75495469  0.61803035  1
  O  O290  1  0.76626938  0.23791267  0.12497180  1
  O  O291  1  0.74869717  0.26000860  0.60585614  1
  O  O292  1  0.76911519  0.75300731  0.12562703  1
  O  O293  1  0.75254503  0.76270408  0.60971835  1
  O  O294  1  0.26163801  0.25534595  0.38697760  1
  O  O295  1  0.24578447  0.23716820  0.87068089  1
  O  O296  1  0.25653861  0.73470351  0.38694215  1
  O  O297  1  0.23712404  0.74369166  0.87935403  1
  O  O298  1  0.75448249  0.23171748  0.38065473  1
  O  O299  1  0.78240488  0.21825502  0.87112361  1
  O  O300  1  0.73245190  0.76127388  0.39124589  1
  O  O301  1  0.73468869  0.76252963  0.86926055  1
  O  O302  1  0.00945614  0.12661084  0.00961449  1
  O  O303  1  0.01259105  0.15070967  0.51581608  1
  O  O304  1  0.00543780  0.60977304  -0.00152638  1
  O  O305  1  0.01572722  0.62472315  0.50329896  1
  O  O306  1  0.48467101  0.11003315  0.00130151  1
  O  O307  1  0.50423393  0.10603902  0.51046296  1
  O  O308  1  0.49380802  0.61368783  -0.01885224  1
  O  O309  1  0.50640947  0.62524228  0.50146391  1
  O  O310  1  0.48796083  0.38511074  0.50489524  1
  O  O311  1  0.49579477  0.39795461  0.98592678  1
  O  O312  1  0.49351665  0.88681155  0.50777684  1
  O  O313  1  0.48291244  0.88156537  0.98917020  1
  O  O314  1  0.98125154  0.36441852  0.48356813  1
  O  O315  1  0.99593446  0.38206651  0.99515092  1
  O  O316  1  0.98977249  0.86617470  0.49262732  1
  O  O317  1  1.00459900  0.87295808  0.98915356  1
  O  O318  1  0.48202144  0.51164440  0.39132980  1
  O  O319  1  0.48875550  0.49426149  0.86849284  1
  O  O320  1  0.50653840  0.98338406  0.39656431  1
  O  O321  1  0.49183995  0.98843716  0.88444826  1
  O  O322  1  0.98746317  0.48643505  0.36841094  1
  O  O323  1  0.98557103  0.49545872  0.88150335  1
  O  O324  1  0.98927392  0.98418519  0.36468230  1
  O  O325  1  1.01509171  0.98827134  0.87855975  1
  O  O326  1  0.00982683  0.01060820  0.13588714  1
  O  O327  1  0.00779446  0.00314270  0.62958246  1
  O  O328  1  0.00773262  0.49674882  0.11231758  1
  O  O329  1  -0.00424938  0.51136894  0.62164617  1
  O  O330  1  0.49681632  -0.00687551  0.10787273  1
  O  O331  1  0.50527812  0.00705003  0.61702751  1
  O  O332  1  0.48398074  0.51967338  0.10572440  1
  O  O333  1  0.50229038  0.49979252  0.61397378  1
  O  O334  1  0.23465973  0.37695450  0.23894254  1
  O  O335  1  0.24906485  0.38090340  0.74444980  1
  O  O336  1  0.24214344  0.87574444  0.24312961  1
  O  O337  1  0.24133487  0.88144677  0.74682141  1
  O  O338  1  0.73819846  0.37908988  0.22365794  1
  O  O339  1  0.74067202  0.37791135  0.74157105  1
  O  O340  1  0.76099048  0.88896516  0.26140741  1
  O  O341  1  0.73766878  0.88502844  0.74623727  1
  O  O342  1  0.24287203  0.10532340  0.24878141  1
  O  O343  1  0.26165242  0.11831271  0.75628708  1
  O  O344  1  0.25323357  0.63002211  0.26570598  1
  O  O345  1  0.25401181  0.61666244  0.75098825  1
  O  O346  1  0.76200218  0.11916424  0.26403772  1
  O  O347  1  0.72558821  0.09338186  0.75188689  1
  O  O348  1  0.76136260  0.62443502  0.24293078  1
  O  O349  1  0.74954681  0.61063031  0.74155233  1
  O  O350  1  0.36302045  0.10225385  0.39054108  1
  O  O351  1  0.37147432  0.13167639  0.86124194  1
  O  O352  1  0.36635840  0.62056878  0.36554429  1
  O  O353  1  0.36473677  0.61463451  0.85842333  1
  O  O354  1  0.88413667  0.11585175  0.36468543  1
  O  O355  1  0.85156255  0.18966527  0.84018428  1
  O  O356  1  0.87699437  0.61452277  0.36357856  1
  O  O357  1  0.87103047  0.60757918  0.88513217  1
  O  O358  1  0.13287998  0.37819810  0.12856771  1
  O  O359  1  0.14113371  0.36993025  0.63686244  1
  O  O360  1  0.12801891  0.87890581  0.12972060  1
  O  O361  1  0.12642057  0.88070107  0.63302468  1
  O  O362  1  0.58179136  0.39807626  0.14123664  1
  O  O363  1  0.63183997  0.38006652  0.63528635  1
  O  O364  1  0.64260147  0.88874029  0.07645808  1
  O  O365  1  0.63195483  0.86789899  0.63891671  1
  O  O366  1  0.11548932  0.26563394  0.24087687  1
  O  O367  1  0.13280673  0.25949649  0.76013768  1
  O  O368  1  0.12536900  0.76072310  0.24549962  1
  O  O369  1  0.13134608  0.75843317  0.75720685  1
  O  O370  1  0.62014308  0.25125034  0.22289858  1
  O  O371  1  0.61031202  0.26128630  0.74860873  1
  O  O372  1  0.63113678  0.74609850  0.26324972  1
  O  O373  1  0.60896917  0.75997398  0.76306562  1
  O  O374  1  0.35740149  0.23591554  0.23381139  1
  O  O375  1  0.38609985  0.24250980  0.74223290  1
  O  O376  1  0.36940715  0.74366544  0.25139396  1
  O  O377  1  0.37483151  0.74274358  0.74304685  1
  O  O378  1  0.88234829  0.24253681  0.23381142  1
  O  O379  1  0.87672505  0.24771111  0.78033243  1
  O  O380  1  0.87433744  0.73637802  0.24417587  1
  O  O381  1  0.87110477  0.74691695  0.76332573  1
  O  O382  1  0.37951513  0.49424746  0.50170397  1
  O  O383  1  0.37925597  0.50281594  0.98580848  1
  O  O384  1  0.36947941  0.98622431  0.51103890  1
  O  O385  1  0.37427542  0.98914398  0.99902073  1
  O  O386  1  0.86643301  0.49240350  0.47992257  1
  O  O387  1  0.87814748  0.48531681  0.99472137  1
  O  O388  1  0.88120379  0.99282744  0.48888057  1
  O  O389  1  0.88343782  0.98849890  1.01151496  1
  O  O390  1  0.12861702  0.01072533  0.01157849  1
  O  O391  1  0.13079026  0.00188310  0.52000241  1
  O  O392  1  0.11773490  0.50098948  0.00254881  1
  O  O393  1  0.12902008  0.50396962  0.49839366  1
  O  O394  1  0.60223162  0.01444608  -0.01037337  1
  O  O395  1  0.62310947  -0.00796989  0.50388585  1
  O  O396  1  0.60525841  0.52133309  -0.01732797  1
  O  O397  1  0.61499537  0.51686046  0.49494321  1
  O  O398  1  0.36235369  0.37375681  0.12804283  1
  O  O399  1  0.36970177  0.36498903  0.62024822  1
  O  O400  1  0.35656937  0.87479619  0.11206262  1
  O  O401  1  0.36652023  0.86558725  0.61968445  1
  O  O402  1  0.87515881  0.36339397  0.11380181  1
  O  O403  1  0.86160905  0.38802630  0.60026121  1
  O  O404  1  0.88806317  0.86294298  0.11366731  1
  O  O405  1  0.86487622  0.87863327  0.61058228  1
  O  O406  1  0.09072767  0.13359204  0.37268729  1
  O  O407  1  0.13554027  0.13256287  0.88179322  1
  O  O408  1  0.13607432  0.61467646  0.38216031  1
  O  O409  1  0.12828829  0.62744396  0.87636955  1
  O  O410  1  0.63773895  0.11753870  0.37356031  1
  O  O411  1  0.61311022  0.13962450  0.89604678  1
  O  O412  1  0.61589745  0.64486804  0.38663394  1
  O  O413  1  0.62506440  0.64025573  0.87583663  1
