# generated using pymatgen
data_V79Zn79O256
_symmetry_space_group_name_H-M   'P 1'
_cell_length_a   16.96050589
_cell_length_b   16.93589179
_cell_length_c   16.94360867
_cell_angle_alpha   90.03637847
_cell_angle_beta   89.88638717
_cell_angle_gamma   90.07540449
_symmetry_Int_Tables_number   1
_chemical_formula_structural   V79Zn79O256
_chemical_formula_sum   'V79 Zn79 O256'
_cell_volume   4866.88929472
_cell_formula_units_Z   1
loop_
 _symmetry_equiv_pos_site_id
 _symmetry_equiv_pos_as_xyz
  1  'x, y, z'
loop_
 _atom_site_type_symbol
 _atom_site_label
 _atom_site_symmetry_multiplicity
 _atom_site_fract_x
 _atom_site_fract_y
 _atom_site_fract_z
 _atom_site_occupancy
  V  V0  1  0.36446254  0.74638539  0.11502112  1
  V  V1  1  0.50058290  0.87183948  0.87463441  1
  V  V2  1  0.12570818  0.12674641  0.50069834  1
  V  V3  1  0.62655347  0.38174580  0.25310212  1
  V  V4  1  0.87043204  0.49840937  0.85710138  1
  V  V5  1  0.62351166  0.25095133  0.38298061  1
  V  V6  1  0.49210261  0.75172275  0.73504835  1
  V  V7  1  0.63084791  0.50283131  0.13315533  1
  V  V8  1  0.63127586  0.87618812  0.74462947  1
  V  V9  1  0.24606555  0.36832883  0.11176790  1
  V  V10  1  0.48680109  -0.00433506  0.50012659  1
  V  V11  1  0.75577119  0.24657843  -0.00143141  1
  V  V12  1  0.37246150  0.24962268  0.09979464  1
  V  V13  1  0.75683083  0.39223013  0.61468062  1
  V  V14  1  0.37090539  -0.00208905  0.87372344  1
  V  V15  1  0.25443557  0.49684065  0.24749634  1
  V  V16  1  0.62892148  0.75195442  0.87187590  1
  V  V17  1  0.50193820  -0.00199526  0.00157972  1
  V  V18  1  -0.00338139  0.48824016  0.49555150  1
  V  V19  1  0.25291034  0.25960037  0.50799915  1
  V  V20  1  0.74570966  0.87354715  0.13558528  1
  V  V21  1  0.24836134  -0.00427890  0.75001129  1
  V  V22  1  0.12243702  0.37910882  0.24935491  1
  V  V23  1  0.74891285  0.37499815  0.12304836  1
  V  V24  1  -0.00071350  0.12056820  0.13126594  1
  V  V25  1  0.64034583  0.39700783  0.74594066  1
  V  V26  1  0.75087795  0.74797574  -0.00002864  1
  V  V27  1  0.50068673  0.12609416  0.12384257  1
  V  V28  1  0.86387513  0.25003750  0.61280099  1
  V  V29  1  0.75969103  0.62232824  0.85886291  1
  V  V30  1  0.75855002  0.76502601  0.50697312  1
  V  V31  1  0.12513381  -0.00309513  0.62502177  1
  V  V32  1  0.87554889  0.74781735  0.12614897  1
  V  V33  1  0.24166782  0.13747637  0.87611024  1
  V  V34  1  0.86960355  0.11524173  0.25684449  1
  V  V35  1  0.36472352  0.86994096  0.00316502  1
  V  V36  1  0.87255545  0.12819876  0.75583504  1
  V  V37  1  0.12297234  0.25556980  0.36831305  1
  V  V38  1  0.48466425  0.87358325  0.37622047  1
  V  V39  1  0.63223846  0.61116633  0.50684082  1
  V  V40  1  0.62619598  0.62214014  0.00155653  1
  V  V41  1  0.87283518  0.47826611  0.37191068  1
  V  V42  1  0.00307037  0.62156555  0.12299570  1
  V  V43  1  0.13493193  0.75031472  0.87333986  1
  V  V44  1  0.12678741  0.62081721  0.00097619  1
  V  V45  1  0.74642315  0.12770721  0.38102207  1
  V  V46  1  0.87118498  0.00817017  0.87728205  1
  V  V47  1  -0.00039486  0.86959472  0.86989140  1
  V  V48  1  0.62073583  0.00386831  0.62474104  1
  V  V49  1  0.25662753  0.60982569  0.86622009  1
  V  V50  1  0.25656256  0.11692048  0.37511921  1
  V  V51  1  0.37642757  0.38721908  0.51161250  1
  V  V52  1  0.86716841  0.62015767  0.25993674  1
  V  V53  1  -0.01288942  0.49335218  0.00291492  1
  V  V54  1  0.13908566  0.37551816  0.72925629  1
  V  V55  1  -0.00170965  0.12739540  0.62684687  1
  V  V56  1  0.49516285  0.25522533  0.25177771  1
  V  V57  1  0.88657831  0.75734781  0.64146168  1
  V  V58  1  0.37478349  0.12255480  0.25463630  1
  V  V59  1  0.49537922  0.38505583  0.37891831  1
  V  V60  1  0.12764947  0.74175646  0.37234610  1
  V  V61  1  0.00503999  0.00193577  0.00772651  1
  V  V62  1  -0.00907027  -0.00485548  0.49882286  1
  V  V63  1  0.62400227  -0.00514236  0.13250686  1
  V  V64  1  0.63420565  0.12329340  -0.00341787  1
  V  V65  1  0.00755918  0.75482033  0.24772093  1
  V  V66  1  0.87529176  0.87511350  0.00146350  1
  V  V67  1  0.50387454  0.62603919  0.12282433  1
  V  V68  1  0.62776692  0.25284188  0.87175717  1
  V  V69  1  0.61782014  0.12830986  0.50455820  1
  V  V70  1  0.63118706  0.75462182  0.37613318  1
  V  V71  1  0.12250970  0.62071737  0.50914482  1
  V  V72  1  -0.00044496  0.87663230  0.37376000  1
  V  V73  1  0.00125036  0.37467854  0.86616706  1
  V  V74  1  0.75084102  0.00161824  0.74806084  1
  V  V75  1  0.50139379  0.59534535  0.63503723  1
  V  V76  1  0.36844018  0.62085645  0.24800500  1
  V  V77  1  0.25910106  0.86372971  0.61020970  1
  V  V78  1  0.87136080  0.25156217  0.12959218  1
  Zn  Zn79  1  0.50365362  0.25029035  0.74273107  1
  Zn  Zn80  1  0.11776199  0.86082476  0.73758402  1
  Zn  Zn81  1  0.00290603  0.24835072  0.75487216  1
  Zn  Zn82  1  0.74057557  -0.00666464  0.25817719  1
  Zn  Zn83  1  0.13006400  0.13669462  0.00004368  1
  Zn  Zn84  1  0.86076686  -0.01541393  0.38643997  1
  Zn  Zn85  1  -0.01043499  0.25435792  0.25881576  1
  Zn  Zn86  1  -0.00852123  0.62210198  0.64024776  1
  Zn  Zn87  1  0.22557957  -0.01494679  0.22444519  1
  Zn  Zn88  1  0.50224553  0.75398021  0.24985130  1
  Zn  Zn89  1  0.39600452  0.24078682  0.62109953  1
  Zn  Zn90  1  0.38213281  0.12722643  0.74018808  1
  Zn  Zn91  1  0.28713417  0.67743338  0.42279446  1
  Zn  Zn92  1  0.37514412  0.50407293  0.38245250  1
  Zn  Zn93  1  0.43986038  0.44599591  -0.06190667  1
  Zn  Zn94  1  0.20539865  0.15876410  0.16734455  1
  Zn  Zn95  1  0.18957349  0.19299780  0.69946550  1
  Zn  Zn96  1  0.19492515  0.81260439  0.18494390  1
  Zn  Zn97  1  0.18487990  0.68393403  0.69064097  1
  Zn  Zn98  1  0.68469953  0.18643019  0.19159656  1
  Zn  Zn99  1  0.69032373  0.18300713  0.68623088  1
  Zn  Zn100  1  0.68802631  0.68895715  0.19423206  1
  Zn  Zn101  1  0.69115387  0.68941156  0.67636565  1
  Zn  Zn102  1  0.30853269  0.31277404  0.31622821  1
  Zn  Zn103  1  0.32249668  0.31879363  0.80668271  1
  Zn  Zn104  1  0.31749912  0.81311447  0.31389654  1
  Zn  Zn105  1  0.30928960  0.81290658  0.80712883  1
  Zn  Zn106  1  0.80640028  0.30851084  0.31344327  1
  Zn  Zn107  1  0.81204314  0.31401007  0.81132770  1
  Zn  Zn108  1  0.81718352  0.80536364  0.31689733  1
  Zn  Zn109  1  0.81418839  0.81582034  0.81157915  1
  Zn  Zn110  1  0.18909369  0.44525000  0.43654282  1
  Zn  Zn111  1  0.17824244  0.43853538  0.93121414  1
  Zn  Zn112  1  0.18295310  0.93232809  0.43241336  1
  Zn  Zn113  1  0.18311404  0.93848856  0.94375274  1
  Zn  Zn114  1  0.69694572  0.43367071  0.43548856  1
  Zn  Zn115  1  0.63231483  0.42225170  0.94994543  1
  Zn  Zn116  1  0.67750003  0.93641699  0.43827410  1
  Zn  Zn117  1  0.68976814  0.93723702  0.93703199  1
  Zn  Zn118  1  0.31263019  0.06119178  0.05599198  1
  Zn  Zn119  1  0.31037772  0.06293870  0.56535286  1
  Zn  Zn120  1  0.30583993  0.55649740  0.05370457  1
  Zn  Zn121  1  0.33155617  0.59623555  0.55490451  1
  Zn  Zn122  1  0.81521502  0.06064936  0.06932039  1
  Zn  Zn123  1  0.80613072  0.06369520  0.56468880  1
  Zn  Zn124  1  0.81173666  0.55894699  0.06285483  1
  Zn  Zn125  1  0.82072911  0.57481998  0.55226883  1
  Zn  Zn126  1  0.42037223  0.45578950  0.13315620  1
  Zn  Zn127  1  0.45919888  0.44852351  0.76931875  1
  Zn  Zn128  1  0.39413920  0.91609861  0.20911296  1
  Zn  Zn129  1  0.43703932  0.93391883  0.68327274  1
  Zn  Zn130  1  0.93605877  0.43639319  0.18974575  1
  Zn  Zn131  1  0.93917737  0.43914186  0.68002281  1
  Zn  Zn132  1  1.05858440  0.93704225  0.18521434  1
  Zn  Zn133  1  0.93461403  0.93436248  0.68556220  1
  Zn  Zn134  1  0.05958056  0.06725568  0.31590303  1
  Zn  Zn135  1  0.05968296  0.05709766  0.81442878  1
  Zn  Zn136  1  0.05704760  0.55986904  0.31252446  1
  Zn  Zn137  1  0.07135056  0.55507786  0.80805083  1
  Zn  Zn138  1  0.55464637  0.06143868  0.31663774  1
  Zn  Zn139  1  0.56385441  0.06550663  0.81332034  1
  Zn  Zn140  1  0.56249260  0.57065031  0.31571700  1
  Zn  Zn141  1  0.57171179  0.57318966  0.81296842  1
  Zn  Zn142  1  0.43848825  0.18963530  0.44162857  1
  Zn  Zn143  1  0.45041337  0.17657336  0.90957117  1
  Zn  Zn144  1  0.46351696  0.68879176  0.45845100  1
  Zn  Zn145  1  0.44214264  0.68096150  0.93081568  1
  Zn  Zn146  1  0.93803297  0.18744323  0.43658468  1
  Zn  Zn147  1  0.96314650  0.20409708  0.95603159  1
  Zn  Zn148  1  0.94058045  0.68563853  0.44161877  1
  Zn  Zn149  1  0.94031143  0.68396761  0.93150485  1
  Zn  Zn150  1  0.06167178  0.30823659  0.06483048  1
  Zn  Zn151  1  0.06095635  0.31289280  0.56335725  1
  Zn  Zn152  1  0.06414142  0.80723064  0.05360366  1
  Zn  Zn153  1  0.06141624  0.80802534  0.55588082  1
  Zn  Zn154  1  0.55852244  0.31245714  0.05993658  1
  Zn  Zn155  1  0.56233312  0.33065701  0.57326952  1
  Zn  Zn156  1  0.56023444  0.81147138  0.06289428  1
  Zn  Zn157  1  0.56976587  0.81745491  0.55778871  1
  O  O158  1  0.09918565  0.14016993  0.12565749  1
  O  O159  1  0.11807499  0.11889439  0.61843720  1
  O  O160  1  0.10838077  0.62819143  0.10837313  1
  O  O161  1  0.12124662  0.62837841  0.61088310  1
  O  O162  1  0.61928677  0.11739795  0.11734411  1
  O  O163  1  0.62679528  0.11580207  0.61671831  1
  O  O164  1  0.62443497  0.62260910  0.12196447  1
  O  O165  1  0.62101283  0.62346827  0.61644408  1
  O  O166  1  0.38305784  0.37559116  0.38137469  1
  O  O167  1  0.39119137  0.39633843  0.84506607  1
  O  O168  1  0.38570487  0.86465286  0.38978748  1
  O  O169  1  0.37940612  0.87999186  0.88290505  1
  O  O170  1  0.88175161  0.37808684  0.36167614  1
  O  O171  1  0.87429838  0.39395210  0.87056861  1
  O  O172  1  0.89219911  0.87261892  0.37102137  1
  O  O173  1  0.88010698  0.88253698  0.88429697  1
  O  O174  1  0.24385889  0.01742304  0.37895155  1
  O  O175  1  0.25427849  -0.00615903  0.86569359  1
  O  O176  1  0.25903357  0.49136689  0.35360699  1
  O  O177  1  0.24863614  0.50997015  0.87977806  1
  O  O178  1  0.74470404  0.00859784  0.37556460  1
  O  O179  1  0.76311319  -0.00273060  0.86894278  1
  O  O180  1  0.77219290  0.49160604  0.37244685  1
  O  O181  1  0.76184432  0.51728583  0.87448606  1
  O  O182  1  0.25211156  0.47650288  0.13267879  1
  O  O183  1  0.26910949  0.51031328  0.64701415  1
  O  O184  1  0.23829439  1.05167806  0.13605363  1
  O  O185  1  0.24050918  0.99367382  0.63001839  1
  O  O186  1  0.74165863  0.49082079  0.12533104  1
  O  O187  1  0.77552951  0.48948073  0.61872466  1
  O  O188  1  0.74121995  0.98972125  0.12785567  1
  O  O189  1  0.73893424  1.00413055  0.63842369  1
  O  O190  1  0.01882894  0.37115356  0.24080863  1
  O  O191  1  0.00202728  0.37885270  0.75898137  1
  O  O192  1  -0.00232352  0.86053713  0.25487532  1
  O  O193  1  0.00705747  0.89168761  0.76638310  1
  O  O194  1  0.51023441  0.36643279  0.25917798  1
  O  O195  1  0.54114094  0.36495272  0.74784315  1
  O  O196  1  0.48529488  0.87265629  0.26907524  1
  O  O197  1  0.51057314  0.86975837  0.75544506  1
  O  O198  1  0.49511201  0.13618008  0.24685839  1
  O  O199  1  0.48492583  0.14111944  0.79472329  1
  O  O200  1  0.49009252  0.62539770  0.23808502  1
  O  O201  1  0.52219045  0.64723748  0.73629892  1
  O  O202  1  0.98661412  0.12835818  0.24845234  1
  O  O203  1  0.99196268  0.12146762  0.74069439  1
  O  O204  1  0.99417544  0.63202711  0.23869793  1
  O  O205  1  1.00733951  0.62227167  0.75155433  1
  O  O206  1  0.38734603  0.24048460  0.00321517  1
  O  O207  1  0.36241447  0.25687215  0.49974238  1
  O  O208  1  0.38325804  0.75505559  0.00803491  1
  O  O209  1  0.36252137  0.69489258  0.50175572  1
  O  O210  1  0.86570036  0.24257540  0.01878476  1
  O  O211  1  0.87754117  0.24284263  0.51414612  1
  O  O212  1  0.86950922  0.75472890  0.00573597  1
  O  O213  1  0.85777377  0.75020394  0.48702752  1
  O  O214  1  0.13189999  0.24486747  0.49322469  1
  O  O215  1  0.07338836  0.23164657  0.98604012  1
  O  O216  1  0.11947368  0.73443579  0.48334232  1
  O  O217  1  0.11205001  0.73065055  0.98461893  1
  O  O218  1  0.61242475  0.24286183  0.48887507  1
  O  O219  1  0.63659910  0.24082489  0.99713845  1
  O  O220  1  0.63555785  0.74773660  0.49533794  1
  O  O221  1  0.63554719  0.74591751  0.99476582  1
  O  O222  1  0.49081640  0.24873367  0.13069881  1
  O  O223  1  0.51116016  0.24779250  0.62645962  1
  O  O224  1  0.50146869  0.73855161  0.12902931  1
  O  O225  1  0.50244135  0.76494194  0.63580942  1
  O  O226  1  0.98186321  0.24459897  0.13279416  1
  O  O227  1  0.99055933  0.23668990  0.62348075  1
  O  O228  1  0.99089692  0.74313917  0.12772823  1
  O  O229  1  0.99266644  0.74974875  0.62445709  1
  O  O230  1  0.01819893  0.24410269  0.37634846  1
  O  O231  1  -0.03113555  0.27495055  0.86842290  1
  O  O232  1  0.00706741  0.75429219  0.36542884  1
  O  O233  1  0.00057282  0.76490842  0.87997948  1
  O  O234  1  0.50520914  0.25811948  0.36932135  1
  O  O235  1  0.52904688  0.26110281  0.88784270  1
  O  O236  1  0.50647263  0.76218202  0.38303532  1
  O  O237  1  0.51150021  0.75260707  0.86530144  1
  O  O238  1  0.24307511  0.13319978  0.49186691  1
  O  O239  1  0.24423718  0.12094500  0.98171324  1
  O  O240  1  0.22716877  0.60599348  0.49414781  1
  O  O241  1  0.22979776  0.61778083  0.99814686  1
  O  O242  1  0.73350979  0.12019505  0.49054040  1
  O  O243  1  0.74308829  0.13199166  1.01235010  1
  O  O244  1  0.73538731  0.63908449  0.50364004  1
  O  O245  1  0.74753500  0.63787731  1.00058211  1
  O  O246  1  0.23146904  0.37503878  0.01417681  1
  O  O247  1  0.25779611  0.36574184  0.49359641  1
  O  O248  1  0.26596834  0.88369132  0.00253143  1
  O  O249  1  0.24436968  0.87864436  0.51112906  1
  O  O250  1  0.73689876  0.36138235  0.01875377  1
  O  O251  1  0.74765463  0.37051975  0.51631942  1
  O  O252  1  0.75701121  0.86486130  0.00446765  1
  O  O253  1  0.74544868  0.86506378  0.49698236  1
  O  O254  1  0.13205511  0.48405028  0.25429717  1
  O  O255  1  0.13019972  0.47364892  0.76073503  1
  O  O256  1  0.12048475  0.99284749  0.26123013  1
  O  O257  1  0.13155400  1.00154906  0.73771013  1
  O  O258  1  0.62313887  0.49331822  0.24679606  1
  O  O259  1  0.64014861  0.49473955  0.75982090  1
  O  O260  1  0.61970152  1.00550550  0.23546823  1
  O  O261  1  0.62965054  0.99839421  0.74682098  1
  O  O262  1  0.38005712  0.02299326  0.24351339  1
  O  O263  1  0.36778064  -0.00559789  0.76056356  1
  O  O264  1  0.37279351  0.50973487  0.23277508  1
  O  O265  1  0.30553783  0.49106922  0.70685131  1
  O  O266  1  0.86593566  0.01362325  0.26289043  1
  O  O267  1  0.86906109  0.00547677  0.75635839  1
  O  O268  1  0.88617314  0.51240701  0.26030888  1
  O  O269  1  0.87993008  0.50412100  0.75900884  1
  O  O270  1  0.13297111  0.36392828  0.36365322  1
  O  O271  1  0.10153469  0.37132783  0.87832988  1
  O  O272  1  0.11111741  0.85894119  0.37958238  1
  O  O273  1  0.11728851  0.86164684  0.88455163  1
  O  O274  1  0.61828807  0.36960802  0.37235861  1
  O  O275  1  0.65277453  0.35986721  0.85793856  1
  O  O276  1  0.61419984  0.86015736  0.37716873  1
  O  O277  1  0.62105501  0.87247078  0.86757110  1
  O  O278  1  0.38222247  0.14021068  0.13067090  1
  O  O279  1  0.37495531  0.12681542  0.62684867  1
  O  O280  1  0.38513138  0.63425699  0.12199997  1
  O  O281  1  0.40392093  0.61915175  0.63985402  1
  O  O282  1  0.87589538  0.13010508  0.13987833  1
  O  O283  1  0.88058908  0.12919850  0.63307819  1
  O  O284  1  0.88115043  0.63341622  0.12823253  1
  O  O285  1  0.87872895  0.65016493  0.61334413  1
  O  O286  1  0.26433194  0.25002152  0.11858206  1
  O  O287  1  0.24286153  0.24371119  0.60627274  1
  O  O288  1  0.26652359  0.74413564  0.12052430  1
  O  O289  1  0.23741976  0.76669834  0.63060286  1
  O  O290  1  0.75292368  0.25372886  0.12281859  1
  O  O291  1  0.76282125  0.24216257  0.62213981  1
  O  O292  1  0.75463719  0.75440762  0.11910437  1
  O  O293  1  0.76248229  0.75455127  0.61332266  1
  O  O294  1  0.23986960  0.24332906  0.38766011  1
  O  O295  1  0.25924449  0.23395485  0.86559513  1
  O  O296  1  0.23229545  0.75510522  0.36319229  1
  O  O297  1  0.23692017  0.75103190  0.87730277  1
  O  O298  1  0.73255280  0.24192857  0.37239505  1
  O  O299  1  0.75221653  0.25057720  0.89325118  1
  O  O300  1  0.73621110  0.75310517  0.38145668  1
  O  O301  1  0.75060225  0.74457618  0.88358572  1
  O  O302  1  -0.02263477  0.10778366  0.01736121  1
  O  O303  1  0.00898288  0.11881640  0.50643795  1
  O  O304  1  -0.00060817  0.61676739  0.00491154  1
  O  O305  1  0.01222967  0.61803671  0.49773836  1
  O  O306  1  0.50916686  0.11420165  0.00164920  1
  O  O307  1  0.50994598  0.10981479  0.48841123  1
  O  O308  1  0.51839649  0.63446283  0.00700966  1
  O  O309  1  0.51392864  0.60983520  0.52515055  1
  O  O310  1  0.48616182  0.37345390  0.49186357  1
  O  O311  1  0.53014617  0.39315830  0.99111811  1
  O  O312  1  0.50373145  0.88853790  0.49424725  1
  O  O313  1  0.49671828  0.88184782  0.99346903  1
  O  O314  1  1.00420553  0.38820833  0.49806204  1
  O  O315  1  0.99957071  0.39069203  0.99680889  1
  O  O316  1  1.00582472  0.88840627  0.49137588  1
  O  O317  1  0.98875188  0.88238097  0.99600666  1
  O  O318  1  0.49595527  0.48827873  0.36812336  1
  O  O319  1  0.48824010  0.51879456  0.85895762  1
  O  O320  1  0.50439533  0.98579881  0.38695964  1
  O  O321  1  0.49237395  0.99321497  0.88440558  1
  O  O322  1  0.98785422  0.50150770  0.38130712  1
  O  O323  1  0.98626023  0.49297179  0.88218463  1
  O  O324  1  0.99736215  0.99442234  0.38512439  1
  O  O325  1  0.98964826  0.99299552  0.88674238  1
  O  O326  1  -0.00623436  0.00710783  0.11964170  1
  O  O327  1  0.00531835  0.00854298  0.61898704  1
  O  O328  1  -0.01113710  0.50708680  0.11218289  1
  O  O329  1  -0.01690714  0.50743421  0.60114826  1
  O  O330  1  0.50737149  0.00407713  0.11195435  1
  O  O331  1  0.50887226  -0.00463017  0.61371223  1
  O  O332  1  0.52114104  0.51459136  0.12743701  1
  O  O333  1  0.49738807  0.49979388  0.66418825  1
  O  O334  1  0.24206320  0.37493804  0.24151838  1
  O  O335  1  0.23746161  0.35866822  0.74236138  1
  O  O336  1  0.27620579  0.88353080  0.23514371  1
  O  O337  1  0.24102707  0.88434685  0.74172380  1
  O  O338  1  0.73142626  0.36402943  0.24204737  1
  O  O339  1  0.74556653  0.36590132  0.73295718  1
  O  O340  1  0.75626034  0.87153429  0.23851887  1
  O  O341  1  0.74042144  0.88870356  0.75791237  1
  O  O342  1  0.25863685  0.13751491  0.27005391  1
  O  O343  1  0.25350511  0.11084870  0.75810504  1
  O  O344  1  0.26630256  0.61149865  0.23519461  1
  O  O345  1  0.24493579  0.62643514  0.76694016  1
  O  O346  1  0.75031159  0.12258658  0.26298342  1
  O  O347  1  0.76228320  0.11366944  0.75107685  1
  O  O348  1  0.76891348  0.62592774  0.24293774  1
  O  O349  1  0.74671192  0.63371567  0.76204682  1
  O  O350  1  0.36378814  0.13038529  0.37247373  1
  O  O351  1  0.35840913  0.10463344  0.88298722  1
  O  O352  1  0.37535756  0.62116115  0.35206552  1
  O  O353  1  0.35266038  0.63219789  0.88771840  1
  O  O354  1  0.85975853  0.13202640  0.37264200  1
  O  O355  1  0.88808214  0.11429143  0.86618645  1
  O  O356  1  0.87765547  0.63087472  0.35902006  1
  O  O357  1  0.86502525  0.62099324  0.87480623  1
  O  O358  1  0.13779952  0.35541100  0.13950072  1
  O  O359  1  0.12299131  0.37999230  0.62877970  1
  O  O360  1  0.12500619  0.87136427  0.11980827  1
  O  O361  1  0.12532342  0.88689058  0.62125219  1
  O  O362  1  0.62813729  0.38411978  0.13569355  1
  O  O363  1  0.64524040  0.38529208  0.63278307  1
  O  O364  1  0.63466476  0.88186630  0.11805992  1
  O  O365  1  0.62373564  0.88876953  0.63731578  1
  O  O366  1  0.12875724  0.25320271  0.26468742  1
  O  O367  1  0.11456000  0.26419475  0.74453573  1
  O  O368  1  0.11614403  0.75028244  0.25639606  1
  O  O369  1  0.12130672  0.74869418  0.76942174  1
  O  O370  1  0.61201706  0.25506949  0.25773708  1
  O  O371  1  0.63286452  0.23173257  0.77088573  1
  O  O372  1  0.61979277  0.73691500  0.27091987  1
  O  O373  1  0.62762248  0.76397953  0.75211967  1
  O  O374  1  0.38544045  0.24400027  0.25308557  1
  O  O375  1  0.38324531  0.24837259  0.73999132  1
  O  O376  1  0.37652210  0.73617847  0.23577582  1
  O  O377  1  0.39425413  0.75660751  0.75498744  1
  O  O378  1  0.87010838  0.23880534  0.24590009  1
  O  O379  1  0.87592636  0.23719109  0.74205347  1
  O  O380  1  0.88323933  0.73994238  0.24134546  1
  O  O381  1  0.87485782  0.75338782  0.74190988  1
  O  O382  1  0.36313337  0.49035207  0.50090214  1
  O  O383  1  0.38926797  0.49078174  1.02854718  1
  O  O384  1  0.38876211  1.00425168  0.50203176  1
  O  O385  1  0.38455183  0.99117905  0.99675926  1
  O  O386  1  0.88422685  0.50485706  0.47951499  1
  O  O387  1  0.88372141  0.50590048  0.99047354  1
  O  O388  1  0.88646162  1.01091137  0.50051784  1
  O  O389  1  0.87436688  0.98922308  0.99589951  1
  O  O390  1  0.10709477  0.01033018  -0.00588043  1
  O  O391  1  0.11818113  0.01077636  0.50661569  1
  O  O392  1  0.10317698  0.51505313  -0.01168802  1
  O  O393  1  0.10900012  0.50994180  0.48607973  1
  O  O394  1  0.62106092  0.00381272  0.00557599  1
  O  O395  1  0.61828477  0.00802725  0.51004098  1
  O  O396  1  0.64001049  0.51803268  0.01207420  1
  O  O397  1  0.63774974  0.51277548  0.49324520  1
  O  O398  1  0.36232067  0.35495538  0.12406577  1
  O  O399  1  0.37605967  0.37165863  0.60763738  1
  O  O400  1  0.38874774  0.85419497  0.11462118  1
  O  O401  1  0.35793155  0.87736249  0.62611108  1
  O  O402  1  0.86056398  0.36417473  0.14020295  1
  O  O403  1  0.86768826  0.35661949  0.63173218  1
  O  O404  1  0.86445867  0.86078513  0.11352829  1
  O  O405  1  0.88098999  0.86026599  0.62177754  1
  O  O406  1  0.13435270  0.13468921  0.38382056  1
  O  O407  1  0.13846746  0.12154200  0.86749021  1
  O  O408  1  0.12085027  0.63796620  0.37078224  1
  O  O409  1  0.13335419  0.63237909  0.88187448  1
  O  O410  1  0.62687999  0.13198243  0.38121795  1
  O  O411  1  0.62915474  0.13078527  0.89122036  1
  O  O412  1  0.60528664  0.64077666  0.39743506  1
  O  O413  1  0.64295808  0.63235957  0.88496068  1
