# generated using pymatgen
data_V79Zn79O256
_symmetry_space_group_name_H-M   'P 1'
_cell_length_a   16.91068704
_cell_length_b   16.94388001
_cell_length_c   16.94682367
_cell_angle_alpha   89.80288937
_cell_angle_beta   90.28730640
_cell_angle_gamma   90.07794704
_symmetry_Int_Tables_number   1
_chemical_formula_structural   V79Zn79O256
_chemical_formula_sum   'V79 Zn79 O256'
_cell_volume   4855.72416434
_cell_formula_units_Z   1
loop_
 _symmetry_equiv_pos_site_id
 _symmetry_equiv_pos_as_xyz
  1  'x, y, z'
loop_
 _atom_site_type_symbol
 _atom_site_label
 _atom_site_symmetry_multiplicity
 _atom_site_fract_x
 _atom_site_fract_y
 _atom_site_fract_z
 _atom_site_occupancy
  V  V0  1  0.24339122  -0.00123510  0.75001930  1
  V  V1  1  0.62631242  -0.00048518  0.12438863  1
  V  V2  1  0.76912346  0.50485594  0.74953915  1
  V  V3  1  0.02411294  0.25330115  0.76083241  1
  V  V4  1  0.37326747  0.12536433  0.74942114  1
  V  V5  1  0.74610962  0.62462042  0.38611579  1
  V  V6  1  0.49508986  0.74761311  0.25212232  1
  V  V7  1  0.62323497  0.37814307  0.74302512  1
  V  V8  1  0.76510097  0.75491373  -0.03080962  1
  V  V9  1  0.49836777  0.00059822  0.49904953  1
  V  V10  1  0.25125988  0.88191835  0.13748672  1
  V  V11  1  0.12674754  0.87447744  0.74956493  1
  V  V12  1  0.13272603  0.49888771  0.64684449  1
  V  V13  1  0.12683140  0.13245566  0.00031953  1
  V  V14  1  0.88368528  0.63935540  0.25637205  1
  V  V15  1  0.61533423  0.86705527  0.75412682  1
  V  V16  1  0.00657526  0.35437087  0.37043225  1
  V  V17  1  0.49461560  0.12704700  0.62291897  1
  V  V18  1  0.24350048  0.74817223  0.49955016  1
  V  V19  1  0.87865555  -0.00377968  0.88538024  1
  V  V20  1  0.01505976  0.11820139  0.62732521  1
  V  V21  1  0.62666377  0.00031586  0.62709254  1
  V  V22  1  0.87437517  0.36213942  0.49708573  1
  V  V23  1  -0.00364219  0.62300178  0.62193081  1
  V  V24  1  0.62483070  0.87595513  0.25106807  1
  V  V25  1  0.62113640  0.50444049  0.12447686  1
  V  V26  1  0.37708610  0.74766891  0.62912400  1
  V  V27  1  0.48976686  0.50957361  0.49067237  1
  V  V28  1  0.37238408  0.61886717  0.74428132  1
  V  V29  1  0.36010256  0.49285790  0.86744033  1
  V  V30  1  0.74919785  0.36563829  0.61630638  1
  V  V31  1  0.11851657  -0.00780719  0.11611932  1
  V  V32  1  0.36561195  0.36475563  -0.00416081  1
  V  V33  1  0.75601706  0.00510530  0.75185723  1
  V  V34  1  0.87645208  0.49668346  0.37535835  1
  V  V35  1  -0.00454250  0.11354000  0.11340362  1
  V  V36  1  0.50034748  -0.00467428  -0.00370968  1
  V  V37  1  0.75054653  0.50041979  0.25074224  1
  V  V38  1  0.13614746  0.62480961  0.01305911  1
  V  V39  1  0.88201734  0.12497984  0.24650572  1
  V  V40  1  0.49500436  0.24977515  0.74412457  1
  V  V41  1  -0.00333435  0.74027499  0.74648282  1
  V  V42  1  0.12641457  0.35836178  0.24494698  1
  V  V43  1  0.36837974  0.87508717  0.00503032  1
  V  V44  1  0.36395909  0.36938820  0.49435007  1
  V  V45  1  0.76208032  0.86109749  0.12282187  1
  V  V46  1  0.62270261  0.14183353  0.49159090  1
  V  V47  1  0.75145855  -0.00051936  0.25010669  1
  V  V48  1  0.49920427  0.13500980  0.13389046  1
  V  V49  1  0.25888345  0.62089890  0.37285553  1
  V  V50  1  0.37591921  0.25352178  0.13180040  1
  V  V51  1  0.13909554  0.75109711  0.87980130  1
  V  V52  1  0.24875633  0.36603094  0.63674721  1
  V  V53  1  0.62244407  0.74791275  0.38974855  1
  V  V54  1  0.88184489  0.26111814  0.12025049  1
  V  V55  1  0.87656934  -0.00164116  0.38471975  1
  V  V56  1  0.62707288  0.12647593  -0.00340632  1
  V  V57  1  0.11530325  0.88154661  0.26322660  1
  V  V58  1  0.24432174  0.87730536  0.62720153  1
  V  V59  1  0.37299909  0.87902313  0.49837171  1
  V  V60  1  0.75625255  0.26487394  -0.00387100  1
  V  V61  1  0.49836281  0.37687983  0.87319149  1
  V  V62  1  0.13744713  0.13178812  0.48350477  1
  V  V63  1  0.62242467  0.50683915  0.61480627  1
  V  V64  1  0.01351863  0.49777634  0.49544633  1
  V  V65  1  0.50240501  0.36009242  0.37116063  1
  V  V66  1  0.37831357  -0.00461524  0.87839251  1
  V  V67  1  0.76814387  0.75649509  0.50679761  1
  V  V68  1  -0.00128147  0.87694542  0.88525607  1
  V  V69  1  0.24734613  0.61993250  0.87159405  1
  V  V70  1  -0.00936115  0.63599546  0.12301198  1
  V  V71  1  0.24807048  0.12928233  0.88802563  1
  V  V72  1  0.49698328  0.88232849  0.37677822  1
  V  V73  1  0.32267349  0.05971521  0.30875616  1
  V  V74  1  0.76285214  0.12525951  0.87241855  1
  V  V75  1  0.36889220  0.74842447  0.12636950  1
  V  V76  1  0.87760778  0.24026876  0.63479643  1
  V  V77  1  0.12082995  0.73982207  0.37410590  1
  V  V78  1  0.62725424  0.25251130  0.87270891  1
  Zn  Zn79  1  0.54653862  0.80672787  0.90157563  1
  Zn  Zn80  1  0.75485462  0.38654381  0.11826728  1
  Zn  Zn81  1  0.49879404  0.62670461  0.12151925  1
  Zn  Zn82  1  0.23939825  0.50032888  0.22680732  1
  Zn  Zn83  1  0.74130964  0.13385063  0.37072749  1
  Zn  Zn84  1  0.01512021  -0.00651724  0.51027714  1
  Zn  Zn85  1  0.62000939  0.64521718  -0.02676182  1
  Zn  Zn86  1  0.50589387  0.63389383  0.62366552  1
  Zn  Zn87  1  0.62465905  0.36517833  0.25575395  1
  Zn  Zn88  1  0.37966124  0.60359788  0.25426223  1
  Zn  Zn89  1  -0.01491323  0.86187811  0.38823240  1
  Zn  Zn90  1  0.86757090  0.46542066  -0.08536697  1
  Zn  Zn91  1  0.76223316  0.87962946  0.61871458  1
  Zn  Zn92  1  0.23984323  0.36961297  0.11979895  1
  Zn  Zn93  1  0.49968069  0.50166807  -0.00305731  1
  Zn  Zn94  1  0.19290768  0.19084789  0.30321906  1
  Zn  Zn95  1  0.19112161  0.18660304  0.68373792  1
  Zn  Zn96  1  0.18859786  0.69555184  0.19631772  1
  Zn  Zn97  1  0.18648867  0.68413475  0.68722611  1
  Zn  Zn98  1  0.69644750  0.18845296  0.18053925  1
  Zn  Zn99  1  0.68506593  0.18677217  0.68529779  1
  Zn  Zn100  1  0.68643582  0.68395662  0.19628386  1
  Zn  Zn101  1  0.69416354  0.68663538  0.69262301  1
  Zn  Zn102  1  0.32185651  0.32624266  0.30883909  1
  Zn  Zn103  1  0.30472625  0.30656871  0.81249814  1
  Zn  Zn104  1  0.30947465  0.81452172  0.31363636  1
  Zn  Zn105  1  0.35148156  0.79056329  0.83288544  1
  Zn  Zn106  1  0.81792074  0.31199660  0.30311702  1
  Zn  Zn107  1  0.81272292  0.31553117  0.80602597  1
  Zn  Zn108  1  0.80675176  0.81435552  0.31988339  1
  Zn  Zn109  1  0.82137685  0.82392834  0.78249831  1
  Zn  Zn110  1  0.18369493  0.43622642  0.41136070  1
  Zn  Zn111  1  0.17679173  0.44179438  0.96346434  1
  Zn  Zn112  1  0.19096061  0.94872292  0.43680740  1
  Zn  Zn113  1  0.19264953  0.93860192  0.93818429  1
  Zn  Zn114  1  0.68437165  0.43453179  0.43757476  1
  Zn  Zn115  1  0.67231155  0.47612364  0.91543760  1
  Zn  Zn116  1  0.68824663  0.93975211  0.43856444  1
  Zn  Zn117  1  0.69095594  0.93235111  0.93656052  1
  Zn  Zn118  1  0.27372958  0.10451740  0.12243395  1
  Zn  Zn119  1  0.30748504  0.06050491  0.56366927  1
  Zn  Zn120  1  0.31486048  0.55453980  0.06419428  1
  Zn  Zn121  1  0.30534786  0.55835580  0.55851490  1
  Zn  Zn122  1  0.81051120  0.05830288  0.06055278  1
  Zn  Zn123  1  0.80378859  0.07216004  0.55947202  1
  Zn  Zn124  1  0.80399615  0.58196645  0.06138413  1
  Zn  Zn125  1  0.81577717  0.55639391  0.56390840  1
  Zn  Zn126  1  0.43482049  0.43527598  0.19165703  1
  Zn  Zn127  1  0.43069821  0.43892016  0.68002540  1
  Zn  Zn128  1  0.44372894  0.94046883  0.18388587  1
  Zn  Zn129  1  0.43358834  0.93820755  0.68658359  1
  Zn  Zn130  1  0.96043544  0.45984743  0.07376869  1
  Zn  Zn131  1  0.94784140  0.42722506  0.68380939  1
  Zn  Zn132  1  0.93821295  0.93267804  0.19435742  1
  Zn  Zn133  1  0.93463390  0.93734481  0.68922856  1
  Zn  Zn134  1  0.06036460  0.06032284  0.31103864  1
  Zn  Zn135  1  0.05663088  0.06918360  0.81689987  1
  Zn  Zn136  1  0.03730631  0.51416378  0.26154168  1
  Zn  Zn137  1  0.06286724  0.55961174  0.81842327  1
  Zn  Zn138  1  0.49833902  0.14871995  0.34609751  1
  Zn  Zn139  1  0.56465795  0.06112225  0.81307799  1
  Zn  Zn140  1  0.56593561  0.56227811  0.31204323  1
  Zn  Zn141  1  0.55387050  0.56685174  0.80580483  1
  Zn  Zn142  1  0.32346538  0.19414838  0.44013965  1
  Zn  Zn143  1  0.43993946  0.18390190  0.93525570  1
  Zn  Zn144  1  0.43476179  0.69213729  0.44200216  1
  Zn  Zn145  1  0.43314514  0.67821153  0.94408096  1
  Zn  Zn146  1  0.93861778  0.17578131  0.44126249  1
  Zn  Zn147  1  0.94737014  0.29355284  0.93245115  1
  Zn  Zn148  1  0.94080884  0.68078194  0.44165162  1
  Zn  Zn149  1  0.94763960  0.69181560  0.93528851  1
  Zn  Zn150  1  0.06724517  0.29831160  0.07606346  1
  Zn  Zn151  1  0.06747060  0.31135212  0.56283689  1
  Zn  Zn152  1  0.06368016  0.80399517  0.06805616  1
  Zn  Zn153  1  0.05691423  0.81302093  0.56053288  1
  Zn  Zn154  1  0.56998773  0.32000412  0.06285680  1
  Zn  Zn155  1  0.55110044  0.31805787  0.55727922  1
  Zn  Zn156  1  0.56649406  0.80781660  0.06844083  1
  Zn  Zn157  1  0.56416452  0.81680730  0.57039173  1
  O  O158  1  0.11928788  0.10454168  0.11618968  1
  O  O159  1  0.11797888  0.12230923  0.61844901  1
  O  O160  1  0.13375400  0.63543817  0.11478822  1
  O  O161  1  0.12187298  0.60551443  0.62846593  1
  O  O162  1  0.62086791  0.12347743  0.11423362  1
  O  O163  1  0.61482468  0.11927037  0.61765986  1
  O  O164  1  0.62282566  0.61184923  0.13175230  1
  O  O165  1  0.62350329  0.60864427  0.63240242  1
  O  O166  1  0.38992577  0.38078188  0.38560809  1
  O  O167  1  0.37709130  0.37397442  0.87867610  1
  O  O168  1  0.38413871  0.86779415  0.38854898  1
  O  O169  1  0.36281720  0.88921271  0.88810171  1
  O  O170  1  0.87659197  0.37802777  0.37989069  1
  O  O171  1  0.88537057  0.36525463  0.87239793  1
  O  O172  1  0.87201428  0.89346427  0.36922062  1
  O  O173  1  0.89407542  0.87924510  0.86662048  1
  O  O174  1  0.26584155  0.00412094  0.36999739  1
  O  O175  1  0.25857555  0.00809777  0.86907162  1
  O  O176  1  0.25559929  0.52363884  0.39076369  1
  O  O177  1  0.25296946  0.50233794  0.88356691  1
  O  O178  1  0.75305219  0.00325285  0.36330201  1
  O  O179  1  0.75540675  0.00660390  0.87188680  1
  O  O180  1  0.75408298  0.50648575  0.37411065  1
  O  O181  1  0.76653510  0.48364521  0.85278100  1
  O  O182  1  0.24149580  0.48478286  0.11116033  1
  O  O183  1  0.23595167  0.49510432  0.62441902  1
  O  O184  1  0.23182853  0.99187915  0.12854778  1
  O  O185  1  0.25645845  0.98882751  0.63889401  1
  O  O186  1  0.74164211  0.50713061  0.13536517  1
  O  O187  1  0.73842822  0.48960469  0.62721108  1
  O  O188  1  0.74545435  0.98678687  0.13025437  1
  O  O189  1  0.74213289  1.00654561  0.63279861  1
  O  O190  1  0.01152685  0.38119169  0.26810695  1
  O  O191  1  0.00507267  0.35196402  0.74297956  1
  O  O192  1  0.01129279  0.87365143  0.26257665  1
  O  O193  1  0.01452065  0.86300984  0.75086221  1
  O  O194  1  0.50234368  0.38130370  0.26792950  1
  O  O195  1  0.50130352  0.36720518  0.75016296  1
  O  O196  1  0.50693142  0.87055502  0.25832243  1
  O  O197  1  0.51468502  0.87913041  0.73925105  1
  O  O198  1  0.51008731  0.12848430  0.23162364  1
  O  O199  1  0.49424837  0.13000101  0.74397645  1
  O  O200  1  0.49728691  0.63826755  0.25291704  1
  O  O201  1  0.47948750  0.61784821  0.73976252  1
  O  O202  1  0.98783531  0.11624942  0.23652051  1
  O  O203  1  1.00937413  0.13479646  0.73466723  1
  O  O204  1  0.98476450  0.62388325  0.26010600  1
  O  O205  1  1.01548190  0.63486783  0.73889501  1
  O  O206  1  0.38445372  0.26245793  -0.00366007  1
  O  O207  1  0.37932559  0.27019474  0.50516648  1
  O  O208  1  0.38252230  0.76401509  0.01705846  1
  O  O209  1  0.36486394  0.76239093  0.50870361  1
  O  O210  1  0.86901437  0.24712962  0.01043301  1
  O  O211  1  0.87844071  0.25801460  0.50571899  1
  O  O212  1  0.86425600  0.74859430  -0.01361778  1
  O  O213  1  0.86738548  0.75118632  0.49682833  1
  O  O214  1  0.11851014  0.22925977  0.50278592  1
  O  O215  1  0.12750932  0.23083117  1.00735679  1
  O  O216  1  0.13678781  0.76166863  0.48887348  1
  O  O217  1  0.12199924  0.73993928  0.98720863  1
  O  O218  1  0.61590457  0.23977472  0.50636610  1
  O  O219  1  0.63407429  0.24457043  0.99322573  1
  O  O220  1  0.62192179  0.75347892  0.49132566  1
  O  O221  1  0.61876566  0.76075210  0.98089101  1
  O  O222  1  0.50227053  0.23855021  0.11395950  1
  O  O223  1  0.50250017  0.24153429  0.63608250  1
  O  O224  1  0.49244397  0.75189485  0.13845422  1
  O  O225  1  0.48269637  0.74945110  0.61645509  1
  O  O226  1  0.98494333  0.23161924  0.11978387  1
  O  O227  1  0.99241016  0.23937045  0.62855838  1
  O  O228  1  1.01461816  0.73308464  0.14308430  1
  O  O229  1  1.01134401  0.73407417  0.63321002  1
  O  O230  1  -0.01813546  0.25780777  0.37136425  1
  O  O231  1  0.00643190  0.23346069  0.85861991  1
  O  O232  1  0.01668603  0.74772155  0.38713554  1
  O  O233  1  0.01547831  0.75928077  0.86280187  1
  O  O234  1  0.49752864  0.26137170  0.37478790  1
  O  O235  1  0.50587191  0.25641509  0.86271546  1
  O  O236  1  0.50449079  0.75999799  0.37166698  1
  O  O237  1  0.45752761  0.75379156  0.86597727  1
  O  O238  1  0.24481784  0.12908068  0.50007937  1
  O  O239  1  0.23560393  0.11404603  1.00375862  1
  O  O240  1  0.25759185  0.64204533  0.49092173  1
  O  O241  1  0.24239980  0.62230950  0.98950518  1
  O  O242  1  0.72754085  0.12548570  0.49054085  1
  O  O243  1  0.74070299  0.12968110  0.99271215  1
  O  O244  1  0.75872797  0.63224847  0.49143262  1
  O  O245  1  0.73829833  0.65583212  1.00208912  1
  O  O246  1  0.26255149  0.36832471  -0.00523420  1
  O  O247  1  0.26326044  0.38428772  0.48685547  1
  O  O248  1  0.26171987  0.88136642  0.01502571  1
  O  O249  1  0.25617742  0.87417201  0.50842800  1
  O  O250  1  0.74540803  0.36477331  -0.00352822  1
  O  O251  1  0.75886423  0.37892266  0.50838630  1
  O  O252  1  0.74553819  0.86070596  0.01276459  1
  O  O253  1  0.74850825  0.86174818  0.50112165  1
  O  O254  1  0.14027350  0.47095287  0.28258859  1
  O  O255  1  0.12086168  0.49295948  0.74601912  1
  O  O256  1  0.12035672  0.98591259  0.24298142  1
  O  O257  1  0.13614839  0.99068515  0.76002205  1
  O  O258  1  0.63635426  0.49990450  0.24547444  1
  O  O259  1  0.62465819  0.48623961  0.73572539  1
  O  O260  1  0.63449084  0.98652222  0.24442825  1
  O  O261  1  0.62702314  1.00084647  0.73861941  1
  O  O262  1  0.38024483  0.00143051  0.25197982  1
  O  O263  1  0.36889553  0.00610999  0.75919364  1
  O  O264  1  0.35586960  0.49498129  0.24088450  1
  O  O265  1  0.37059046  0.50248395  0.75807952  1
  O  O266  1  0.86753421  0.00559004  0.25637992  1
  O  O267  1  0.86162391  0.00095088  0.76405204  1
  O  O268  1  0.86592648  0.51345072  0.26644536  1
  O  O269  1  0.86607316  0.49112444  0.73061764  1
  O  O270  1  0.10963418  0.35290498  0.38081359  1
  O  O271  1  0.07399094  0.38635930  0.93714041  1
  O  O272  1  0.12852733  0.87621022  0.36740668  1
  O  O273  1  0.12276363  0.87000718  0.86944098  1
  O  O274  1  0.60884600  0.37826555  0.37763356  1
  O  O275  1  0.61610235  0.37540068  0.86110968  1
  O  O276  1  0.61786242  0.86841817  0.36981761  1
  O  O277  1  0.61716430  0.88639616  0.85995159  1
  O  O278  1  0.39013691  0.13963055  0.11890516  1
  O  O279  1  0.38398229  0.11584962  0.63734973  1
  O  O280  1  0.37459619  0.63679814  0.12745371  1
  O  O281  1  0.36574555  0.63046627  0.63063413  1
  O  O282  1  0.88091246  0.11986246  0.12775735  1
  O  O283  1  0.87950450  0.13852490  0.61550824  1
  O  O284  1  0.88218546  0.63213164  0.14350340  1
  O  O285  1  0.89723550  0.61279489  0.62666437  1
  O  O286  1  0.27518456  0.25084091  0.11937139  1
  O  O287  1  0.24417796  0.26685493  0.62115355  1
  O  O288  1  0.26185049  0.76395096  0.13434152  1
  O  O289  1  0.25303155  0.75760134  0.61759963  1
  O  O290  1  0.76353652  0.25473452  0.11214753  1
  O  O291  1  0.76102395  0.25563077  0.62900962  1
  O  O292  1  0.74556625  0.76230500  0.13562257  1
  O  O293  1  0.74529849  0.74314818  0.60595689  1
  O  O294  1  0.26148998  0.25143317  0.36694418  1
  O  O295  1  0.25354560  0.22820414  0.87563156  1
  O  O296  1  0.24257714  0.74987880  0.38319322  1
  O  O297  1  0.24727104  0.73842643  0.87275366  1
  O  O298  1  0.72358004  0.24670165  0.33562012  1
  O  O299  1  0.74634803  0.24348222  0.87729500  1
  O  O300  1  0.74154775  0.74541708  0.38926927  1
  O  O301  1  0.75884552  0.76657620  0.87038270  1
  O  O302  1  0.01448184  0.11658572  0.01080357  1
  O  O303  1  0.00840813  0.11775778  0.51166471  1
  O  O304  1  0.00573024  0.63604997  0.01980052  1
  O  O305  1  0.00202471  0.61328941  0.51316893  1
  O  O306  1  0.51235739  0.11738975  0.00104673  1
  O  O307  1  0.50497395  0.11500684  0.51124295  1
  O  O308  1  0.50537192  0.61722190  0.00466752  1
  O  O309  1  0.49240566  0.61461758  0.50641925  1
  O  O310  1  0.49131050  0.38847424  0.49128464  1
  O  O311  1  0.49972207  0.37569940  0.98251287  1
  O  O312  1  0.49314787  0.88104090  0.49741655  1
  O  O313  1  0.49372425  0.88745150  1.00669561  1
  O  O314  1  0.99270886  0.37780772  0.49042357  1
  O  O315  1  1.01545506  0.37445514  0.99982597  1
  O  O316  1  0.99868552  0.88386003  0.49934317  1
  O  O317  1  1.00682104  0.86413506  0.98326503  1
  O  O318  1  0.50334916  0.50563793  0.38959591  1
  O  O319  1  0.48359891  0.48483364  0.86723025  1
  O  O320  1  0.50392030  0.98688959  0.38847345  1
  O  O321  1  0.49034562  1.00647461  0.88357558  1
  O  O322  1  0.98764205  0.48939795  0.37976510  1
  O  O323  1  0.96218886  0.53924057  0.87400572  1
  O  O324  1  0.98084735  1.00597041  0.37790410  1
  O  O325  1  0.99581399  0.98507869  0.86873742  1
  O  O326  1  0.00905434  -0.00172007  0.12831076  1
  O  O327  1  -0.00834773  0.01599471  0.63090806  1
  O  O328  1  0.01368239  0.53073675  0.14566155  1
  O  O329  1  0.01513044  0.50150314  0.61759138  1
  O  O330  1  0.50597592  0.01343554  0.11500064  1
  O  O331  1  0.50608081  0.00744212  0.61954709  1
  O  O332  1  0.51333671  0.49963024  0.12982972  1
  O  O333  1  0.51196492  0.49543639  0.61561117  1
  O  O334  1  0.23600931  0.36598616  0.24235965  1
  O  O335  1  0.25587224  0.37305921  0.73661972  1
  O  O336  1  0.23968433  0.87553325  0.24380418  1
  O  O337  1  0.24399211  0.88186113  0.74503702  1
  O  O338  1  0.75723012  0.39341380  0.24554057  1
  O  O339  1  0.74039500  0.37901643  0.73477767  1
  O  O340  1  0.74278632  0.87923444  0.24422562  1
  O  O341  1  0.72994191  0.89636824  0.75409188  1
  O  O342  1  0.26178797  0.11632617  0.24245326  1
  O  O343  1  0.25665519  0.11648290  0.75563005  1
  O  O344  1  0.24879127  0.62342942  0.26432318  1
  O  O345  1  0.25505354  0.62174867  0.76241674  1
  O  O346  1  0.75855078  0.10949913  0.24193930  1
  O  O347  1  0.73761283  0.11658216  0.76188371  1
  O  O348  1  0.75931590  0.62065662  0.26458439  1
  O  O349  1  0.75272675  0.60360099  0.74210082  1
  O  O350  1  0.38609621  0.12113702  0.36858188  1
  O  O351  1  0.36957765  0.11436586  0.87052715  1
  O  O352  1  0.36275685  0.64138796  0.36853365  1
  O  O353  1  0.36465301  0.61041505  0.86850403  1
  O  O354  1  0.86653251  0.11933288  0.36341918  1
  O  O355  1  0.86252359  0.11629218  0.87703079  1
  O  O356  1  0.86832288  0.61655555  0.37437941  1
  O  O357  1  0.91427804  0.60534058  0.86452962  1
  O  O358  1  0.11679463  0.37480330  0.14131677  1
  O  O359  1  0.13733972  0.38792665  0.61650194  1
  O  O360  1  0.12798036  0.87744274  0.13628769  1
  O  O361  1  0.13628433  0.86764383  0.63496554  1
  O  O362  1  0.63085163  0.38436857  0.13701480  1
  O  O363  1  0.63011981  0.37784001  0.62588047  1
  O  O364  1  0.62947653  0.87878728  0.13621327  1
  O  O365  1  0.63195498  0.88719261  0.63198944  1
  O  O366  1  0.11768449  0.25777192  0.24914408  1
  O  O367  1  0.12450784  0.24713437  0.75245580  1
  O  O368  1  0.12939360  0.76418952  0.26798101  1
  O  O369  1  0.12677649  0.75827203  0.75962742  1
  O  O370  1  0.66254187  0.25099039  0.27220245  1
  O  O371  1  0.61702621  0.25968862  0.75131368  1
  O  O372  1  0.61632278  0.75937207  0.26030300  1
  O  O373  1  0.63165854  0.76774119  0.74396274  1
  O  O374  1  0.38768786  0.26876142  0.22887185  1
  O  O375  1  0.38334627  0.23518625  0.75798319  1
  O  O376  1  0.38499372  0.75832477  0.24341774  1
  O  O377  1  0.36089962  0.73553919  0.73478035  1
  O  O378  1  0.86627248  0.23639061  0.22934237  1
  O  O379  1  0.87929241  0.24658480  0.73542168  1
  O  O380  1  0.87269985  0.73761717  0.26919990  1
  O  O381  1  0.89976355  0.73713733  0.76062124  1
  O  O382  1  0.38718919  0.49535049  0.50436383  1
  O  O383  1  0.37893702  0.48332469  0.98654440  1
  O  O384  1  0.38498324  0.98820615  0.51142751  1
  O  O385  1  0.38579207  0.99265721  0.99392634  1
  O  O386  1  0.88216819  0.48758898  0.49247319  1
  O  O387  1  0.87145390  0.50312406  1.01882816  1
  O  O388  1  0.86311919  1.00923627  0.48414430  1
  O  O389  1  0.86989175  0.99644138  0.98526746  1
  O  O390  1  0.12150216  -0.01075102  0.01438780  1
  O  O391  1  0.12828676  0.02089409  0.49608933  1
  O  O392  1  0.11086880  0.52902547  -0.00504386  1
  O  O393  1  0.11265191  0.49313011  0.48866136  1
  O  O394  1  0.62126411  0.00620873  0.00285019  1
  O  O395  1  0.61579842  0.00095357  0.51055565  1
  O  O396  1  0.62750260  0.49117374  0.02181595  1
  O  O397  1  0.61738194  0.49895694  0.51116377  1
  O  O398  1  0.38895931  0.36596037  0.10324394  1
  O  O399  1  0.35618418  0.38570857  0.61078146  1
  O  O400  1  0.36916685  0.87371409  0.12359932  1
  O  O401  1  0.36485632  0.86747925  0.62101685  1
  O  O402  1  0.88816619  0.36129335  0.12307906  1
  O  O403  1  0.86992545  0.36174317  0.61565097  1
  O  O404  1  0.86069526  0.87358221  0.13372692  1
  O  O405  1  0.85809720  0.85918667  0.67281021  1
  O  O406  1  0.12469581  0.12801443  0.37792190  1
  O  O407  1  0.13268051  0.11021449  0.89477650  1
  O  O408  1  0.13877585  0.64149244  0.37506859  1
  O  O409  1  0.13248690  0.63336132  0.87841400  1
  O  O410  1  0.60514161  0.12563048  0.39161254  1
  O  O411  1  0.62933433  0.13130157  0.88247672  1
  O  O412  1  0.63606348  0.63673051  0.37003889  1
  O  O413  1  0.62872980  0.57829146  0.88350430  1
