# generated using pymatgen
data_V79Zn79O256
_symmetry_space_group_name_H-M   'P 1'
_cell_length_a   16.88627361
_cell_length_b   16.89176200
_cell_length_c   16.85613454
_cell_angle_alpha   89.88628839
_cell_angle_beta   90.05164626
_cell_angle_gamma   90.19334261
_symmetry_Int_Tables_number   1
_chemical_formula_structural   V79Zn79O256
_chemical_formula_sum   'V79 Zn79 O256'
_cell_volume   4807.98675926
_cell_formula_units_Z   1
loop_
 _symmetry_equiv_pos_site_id
 _symmetry_equiv_pos_as_xyz
  1  'x, y, z'
loop_
 _atom_site_type_symbol
 _atom_site_label
 _atom_site_symmetry_multiplicity
 _atom_site_fract_x
 _atom_site_fract_y
 _atom_site_fract_z
 _atom_site_occupancy
  V  V0  1  0.75287693  0.62866244  0.36589098  1
  V  V1  1  0.88012105  0.11899941  0.25167562  1
  V  V2  1  0.11407960  0.74746980  0.37095375  1
  V  V3  1  -0.00943414  0.63651786  0.13641021  1
  V  V4  1  0.62452269  0.49578289  0.13015378  1
  V  V5  1  0.50168283  0.86189406  0.86626438  1
  V  V6  1  0.74546549  -0.00753199  0.26272555  1
  V  V7  1  0.25655756  0.62547902  0.35866072  1
  V  V8  1  0.00042981  0.49939570  0.00057604  1
  V  V9  1  0.75310534  0.50025716  0.25111008  1
  V  V10  1  0.24885580  0.75319057  0.00131094  1
  V  V11  1  0.00992347  0.37760415  0.37985346  1
  V  V12  1  -0.00989207  0.89424507  0.37751367  1
  V  V13  1  0.50863613  0.75357625  0.25004709  1
  V  V14  1  0.25070824  0.88185593  0.12932259  1
  V  V15  1  0.62438802  0.62720887  0.00249296  1
  V  V16  1  0.88123278  0.87568024  0.00983215  1
  V  V17  1  0.37035051  0.49975523  0.36278411  1
  V  V18  1  0.37567623  0.49564371  0.88053756  1
  V  V19  1  0.11610974  0.00565035  0.12702917  1
  V  V20  1  0.87884708  0.50344118  0.36891401  1
  V  V21  1  0.87948725  0.24416160  0.12416016  1
  V  V22  1  0.63047749  0.13157438  0.49443820  1
  V  V23  1  -0.00178426  0.37658709  0.87215708  1
  V  V24  1  0.87080418  0.12201532  0.75034192  1
  V  V25  1  0.50628046  0.88353224  0.37159420  1
  V  V26  1  0.12314813  0.87709120  0.25677124  1
  V  V27  1  0.37910172  0.13488393  0.74368394  1
  V  V28  1  0.11297854  0.12440476  0.00852158  1
  V  V29  1  0.74238088  0.11775646  0.87742847  1
  V  V30  1  0.37365866  0.00116524  0.86926234  1
  V  V31  1  0.51159602  0.50912098  0.50042285  1
  V  V32  1  0.13532563  0.24459611  0.37410380  1
  V  V33  1  -0.00031335  0.25073586  0.74575047  1
  V  V34  1  0.24680924  0.63058679  0.87219741  1
  V  V35  1  0.25762712  0.25957089  0.51731019  1
  V  V36  1  0.74862406  0.62677261  0.87164882  1
  V  V37  1  0.50749931  0.00488517  0.00064081  1
  V  V38  1  0.87262477  0.87868261  0.51786209  1
  V  V39  1  0.13267648  0.37401438  0.74317363  1
  V  V40  1  0.11760827  0.49802957  0.61875266  1
  V  V41  1  0.37260651  0.74769591  0.13496440  1
  V  V42  1  0.12669244  0.24741644  0.87663797  1
  V  V43  1  0.51243357  0.37678528  0.37960856  1
  V  V44  1  0.73914744  0.24466991  0.00230820  1
  V  V45  1  0.51119971  0.63232213  0.62060906  1
  V  V46  1  0.37594136  0.87774206  0.00239686  1
  V  V47  1  0.37330025  0.12694753  0.27248396  1
  V  V48  1  0.12238945  0.62792643  -0.00241145  1
  V  V49  1  0.74536666  0.37096719  0.13062364  1
  V  V50  1  0.50132404  0.12674124  0.12376255  1
  V  V51  1  0.37777386  0.63834701  0.74785733  1
  V  V52  1  0.62388873  0.25591513  0.85763819  1
  V  V53  1  0.86234750  0.37272357  0.49442372  1
  V  V54  1  0.12790530  0.49239524  0.13810639  1
  V  V55  1  0.37330356  0.88426134  0.49399217  1
  V  V56  1  0.75203437  0.74857968  0.00722587  1
  V  V57  1  0.00290318  0.87335583  0.87216415  1
  V  V58  1  0.25595092  0.37797248  0.13558178  1
  V  V59  1  0.25006097  0.74811906  0.50244036  1
  V  V60  1  0.75673634  0.14428835  0.37953113  1
  V  V61  1  0.51120358  0.25595231  0.25808108  1
  V  V62  1  0.87877506  -0.00042938  0.87937431  1
  V  V63  1  0.26015596  0.25737649  -0.00287287  1
  V  V64  1  0.64221931  -0.00438653  0.63255113  1
  V  V65  1  0.75596471  0.74510124  0.51312267  1
  V  V66  1  0.62781047  0.74753432  0.38048586  1
  V  V67  1  0.86629582  0.25667227  0.61778384  1
  V  V68  1  0.24954833  0.50325494  0.73979509  1
  V  V69  1  0.25318854  0.00681332  0.27377768  1
  V  V70  1  0.12015060  0.61742362  0.49740427  1
  V  V71  1  0.86923799  0.50511003  0.86693314  1
  V  V72  1  0.37548058  0.75660992  0.62235764  1
  V  V73  1  -0.01699372  0.61988084  0.62534203  1
  V  V74  1  0.63609698  0.85900441  0.75101660  1
  V  V75  1  0.00559928  0.11607757  0.61691952  1
  V  V76  1  0.00432271  0.25173286  0.24854514  1
  V  V77  1  0.73951494  0.87663101  0.12632718  1
  V  V78  1  0.49546142  0.62445848  0.13190181  1
  Zn  Zn79  1  0.50649045  0.12542049  0.63403025  1
  Zn  Zn80  1  0.36654391  0.39014883  0.51856010  1
  Zn  Zn81  1  0.50654988  -0.00009142  0.50204158  1
  Zn  Zn82  1  0.37953983  0.25479298  0.12502550  1
  Zn  Zn83  1  0.12584197  0.75989266  0.85731232  1
  Zn  Zn84  1  0.62391159  0.00302378  0.12773097  1
  Zn  Zn85  1  0.24909567  0.12189992  0.87725803  1
  Zn  Zn86  1  0.48678717  0.49202941  0.00717992  1
  Zn  Zn87  1  0.13791906  0.87874522  0.70107489  1
  Zn  Zn88  1  0.66693620  0.42176647  0.68250774  1
  Zn  Zn89  1  -0.00915413  0.74791099  0.73902140  1
  Zn  Zn90  1  0.87269384  0.37165449  -0.00055511  1
  Zn  Zn91  1  0.13266069  0.12569427  0.50255508  1
  Zn  Zn92  1  0.23781316  -0.00122200  0.74179705  1
  Zn  Zn93  1  0.49963896  0.36834239  0.87572801  1
  Zn  Zn94  1  0.19269607  0.18935914  0.18882902  1
  Zn  Zn95  1  0.19368175  0.17715127  0.68975615  1
  Zn  Zn96  1  0.17766626  0.68912316  0.18365523  1
  Zn  Zn97  1  0.17854062  0.69286380  0.68326658  1
  Zn  Zn98  1  0.68858865  0.18324036  0.19361042  1
  Zn  Zn99  1  0.68720716  0.18575845  0.68324879  1
  Zn  Zn100  1  0.68959684  0.68850423  0.18804598  1
  Zn  Zn101  1  0.72137749  0.62390038  0.66151453  1
  Zn  Zn102  1  0.32030463  0.31267128  0.31283865  1
  Zn  Zn103  1  0.32172401  0.31877190  0.69440521  1
  Zn  Zn104  1  0.31136861  0.81589625  0.31621613  1
  Zn  Zn105  1  0.30586327  0.82304272  0.80737386  1
  Zn  Zn106  1  0.81683575  0.31523126  0.30771016  1
  Zn  Zn107  1  0.80440976  0.31262351  0.81014270  1
  Zn  Zn108  1  0.81796831  0.80950340  0.30574387  1
  Zn  Zn109  1  0.81471113  0.80668637  0.81090169  1
  Zn  Zn110  1  0.19341995  0.43644682  0.43337162  1
  Zn  Zn111  1  0.19063668  0.43793739  0.93532143  1
  Zn  Zn112  1  0.15898077  0.91134068  0.48609240  1
  Zn  Zn113  1  0.18647388  0.94220571  0.94211145  1
  Zn  Zn114  1  0.65039752  0.34842589  0.50148111  1
  Zn  Zn115  1  0.68449596  0.43573257  0.94327458  1
  Zn  Zn116  1  0.69145997  0.93235393  0.44634058  1
  Zn  Zn117  1  0.68677628  0.93279370  0.93422085  1
  Zn  Zn118  1  0.31227840  0.06851753  0.06595387  1
  Zn  Zn119  1  0.31612981  0.07406952  0.54678373  1
  Zn  Zn120  1  0.30841091  0.56423612  0.06530361  1
  Zn  Zn121  1  0.31694183  0.56910858  0.55502414  1
  Zn  Zn122  1  0.81131184  0.05988918  0.06454232  1
  Zn  Zn123  1  0.81742121  0.06258180  0.56160641  1
  Zn  Zn124  1  0.81440402  0.55965570  0.06181647  1
  Zn  Zn125  1  0.79902769  0.54905082  0.54055560  1
  Zn  Zn126  1  0.43715407  0.43554482  0.19124335  1
  Zn  Zn127  1  0.44450777  0.46035194  0.69615672  1
  Zn  Zn128  1  0.43419480  0.94350433  0.19247796  1
  Zn  Zn129  1  0.44591401  0.94241880  0.68243439  1
  Zn  Zn130  1  0.93883945  0.43266515  0.18728875  1
  Zn  Zn131  1  0.82968802  0.44942652  0.68119121  1
  Zn  Zn132  1  0.93474467  0.93523428  0.19210706  1
  Zn  Zn133  1  0.93490760  0.93993975  0.69187983  1
  Zn  Zn134  1  0.06531135  0.06570865  0.31388529  1
  Zn  Zn135  1  0.06288942  0.05637990  0.81018828  1
  Zn  Zn136  1  0.06446066  0.56102790  0.31283211  1
  Zn  Zn137  1  0.05937658  0.56117781  0.80690739  1
  Zn  Zn138  1  0.56703705  0.07076362  0.31436546  1
  Zn  Zn139  1  0.55984952  0.05838294  0.81103575  1
  Zn  Zn140  1  0.56583774  0.56336073  0.31294720  1
  Zn  Zn141  1  0.56028693  0.57128956  0.81319141  1
  Zn  Zn142  1  0.45558485  0.20721422  0.46978719  1
  Zn  Zn143  1  0.44170573  0.18632240  0.93243193  1
  Zn  Zn144  1  0.43718291  0.68903943  0.43560106  1
  Zn  Zn145  1  0.43524675  0.68443535  0.94468941  1
  Zn  Zn146  1  0.94200736  0.18649593  0.43537047  1
  Zn  Zn147  1  0.93438556  0.18728176  0.93858216  1
  Zn  Zn148  1  0.93454917  0.68699517  0.43885222  1
  Zn  Zn149  1  0.93426184  0.69191339  0.93866857  1
  Zn  Zn150  1  0.06606949  0.31261276  0.06324527  1
  Zn  Zn151  1  0.06128581  0.31196409  0.55930157  1
  Zn  Zn152  1  0.06356996  0.81520661  0.06626560  1
  Zn  Zn153  1  0.04626344  0.79789167  0.55679334  1
  Zn  Zn154  1  0.55881031  0.31301486  0.05935879  1
  Zn  Zn155  1  0.50753607  0.32312820  0.61562809  1
  Zn  Zn156  1  0.56104751  0.81253445  0.05773075  1
  Zn  Zn157  1  0.56751957  0.81467307  0.56303763  1
  O  O158  1  0.12831474  0.12266557  0.11660773  1
  O  O159  1  0.10725138  0.13662441  0.62769634  1
  O  O160  1  0.12064420  0.61150357  0.11538084  1
  O  O161  1  0.12297722  0.61668767  0.61307436  1
  O  O162  1  0.60739358  0.12447073  0.13503237  1
  O  O163  1  0.63168625  0.11536309  0.61084690  1
  O  O164  1  0.61687391  0.61830121  0.12183247  1
  O  O165  1  0.60847317  0.63361879  0.63254116  1
  O  O166  1  0.37557676  0.39407786  0.37270706  1
  O  O167  1  0.38155401  0.39804107  0.86157415  1
  O  O168  1  0.39104064  0.86603161  0.38565021  1
  O  O169  1  0.38377545  0.88214872  0.87992667  1
  O  O170  1  0.88434745  0.37526558  0.38091723  1
  O  O171  1  0.88333500  0.38389192  0.87561091  1
  O  O172  1  0.88997462  0.88046418  0.36304518  1
  O  O173  1  0.88122331  0.88208775  0.88643851  1
  O  O174  1  0.24215278  0.00132531  0.37015248  1
  O  O175  1  0.26661181  -0.00118749  0.88187114  1
  O  O176  1  0.25896130  0.51324310  0.37285001  1
  O  O177  1  0.25459780  0.51171447  0.86524328  1
  O  O178  1  0.75340601  -0.01113203  0.36311679  1
  O  O179  1  0.75607681  0.01305621  0.87984177  1
  O  O180  1  0.75945250  0.51010801  0.36292798  1
  O  O181  1  0.76368155  0.50605594  0.88768664  1
  O  O182  1  0.23849253  0.48988904  0.11827323  1
  O  O183  1  0.24699679  0.51007274  0.63563360  1
  O  O184  1  0.24214319  0.99611798  0.13103408  1
  O  O185  1  0.22475130  1.01458693  0.59110403  1
  O  O186  1  0.74640067  0.49155652  0.13105599  1
  O  O187  1  0.74219798  0.51305893  0.63269036  1
  O  O188  1  0.74476058  0.99359408  0.13133577  1
  O  O189  1  0.74268202  1.00355898  0.62894731  1
  O  O190  1  -0.00714019  0.36044596  0.26271734  1
  O  O191  1  0.01118127  0.36476794  0.76056870  1
  O  O192  1  0.01366765  0.88370888  0.26339991  1
  O  O193  1  -0.00655848  0.87473707  0.76848572  1
  O  O194  1  0.49924505  0.36588828  0.26202736  1
  O  O195  1  0.52586280  0.41370201  0.76578908  1
  O  O196  1  0.49368219  0.86741456  0.26259707  1
  O  O197  1  0.50098294  0.87534931  0.76288978  1
  O  O198  1  0.49119051  0.13535943  0.25148720  1
  O  O199  1  0.48529751  0.12380252  0.75208251  1
  O  O200  1  0.50402398  0.63566200  0.23913603  1
  O  O201  1  0.48757800  0.62284811  0.73522586  1
  O  O202  1  0.99001887  0.13573198  0.25814235  1
  O  O203  1  0.99166802  0.13566484  0.74711142  1
  O  O204  1  1.00857590  0.62009606  0.23460723  1
  O  O205  1  1.00177583  0.61964014  0.72938810  1
  O  O206  1  0.36248273  0.24775239  -0.00341228  1
  O  O207  1  0.35761836  0.26616008  0.49118858  1
  O  O208  1  0.36845742  0.75681956  0.01217475  1
  O  O209  1  0.36782928  0.75349492  0.50441357  1
  O  O210  1  0.86644733  0.24988907  0.00849252  1
  O  O211  1  0.88225262  0.25767211  0.50970917  1
  O  O212  1  0.86484432  0.76533209  -0.00115496  1
  O  O213  1  0.86193326  0.75720515  0.49175706  1
  O  O214  1  0.13524038  0.25542312  0.48897372  1
  O  O215  1  0.12920125  0.24153525  0.99573321  1
  O  O216  1  0.13254427  0.73729971  0.48739377  1
  O  O217  1  0.13073155  0.73920105  1.00365949  1
  O  O218  1  0.63467659  0.23008546  0.49756278  1
  O  O219  1  0.63683791  0.24592145  0.99730318  1
  O  O220  1  0.64111325  0.75526109  0.49127069  1
  O  O221  1  0.63292763  0.73640590  1.00540700  1
  O  O222  1  0.49996392  0.24899839  0.13943736  1
  O  O223  1  0.48310202  0.22107629  0.58206124  1
  O  O224  1  0.49323934  0.74631562  0.13128652  1
  O  O225  1  0.48974420  0.74031497  0.61281349  1
  O  O226  1  0.99072586  0.25920789  0.13348367  1
  O  O227  1  0.99183412  0.24753317  0.63339824  1
  O  O228  1  1.00510558  0.73576782  0.12312971  1
  O  O229  1  0.98795106  0.72508902  0.61762242  1
  O  O230  1  0.00958080  0.25920147  0.36979934  1
  O  O231  1  0.00573237  0.25611108  0.86917213  1
  O  O232  1  0.01266465  0.74523623  0.37336544  1
  O  O233  1  0.00342935  0.76468375  0.88151483  1
  O  O234  1  0.49270432  0.26746670  0.37092283  1
  O  O235  1  0.52000288  0.24850266  0.87707071  1
  O  O236  1  0.50883693  0.75113649  0.36787828  1
  O  O237  1  0.49331346  0.76290480  0.88114856  1
  O  O238  1  0.25012031  0.15413704  0.49953706  1
  O  O239  1  0.24196489  0.14037915  0.99997410  1
  O  O240  1  0.24273472  0.63333615  0.48866467  1
  O  O241  1  0.24114028  0.63089624  0.99172408  1
  O  O242  1  0.75185420  0.12090357  0.48505674  1
  O  O243  1  0.75658662  0.13105864  0.98664914  1
  O  O244  1  0.75549143  0.63736560  0.47922147  1
  O  O245  1  0.74345635  0.63100153  1.00393144  1
  O  O246  1  0.24390833  0.36180938  0.00364834  1
  O  O247  1  0.24861532  0.36802740  0.50389841  1
  O  O248  1  0.25456504  0.87201109  0.00832792  1
  O  O249  1  0.26765634  0.86183524  0.48532161  1
  O  O250  1  0.75183720  0.36399498  0.01250559  1
  O  O251  1  0.76406373  0.36628376  0.48942698  1
  O  O252  1  0.75437166  0.86791180  0.00532012  1
  O  O253  1  0.76149201  0.85807053  0.50217370  1
  O  O254  1  0.12725538  0.49747357  0.23654102  1
  O  O255  1  0.13170608  0.49325779  0.74192789  1
  O  O256  1  0.13460231  0.99802285  0.24715895  1
  O  O257  1  0.12295227  0.98869301  0.74642976  1
  O  O258  1  0.63523966  0.50352112  0.23867734  1
  O  O259  1  0.59304735  0.47098676  0.76166218  1
  O  O260  1  0.64234419  1.00534702  0.25032640  1
  O  O261  1  0.62443508  1.00024379  0.73661750  1
  O  O262  1  0.36879098  0.01605348  0.25421322  1
  O  O263  1  0.37740613  -0.00102972  0.76335196  1
  O  O264  1  0.38210082  0.50737090  0.26315804  1
  O  O265  1  0.36493688  0.51961072  0.75868482  1
  O  O266  1  0.86418414  0.01229254  0.24206347  1
  O  O267  1  0.87662362  0.01306934  0.76199712  1
  O  O268  1  0.86658313  0.49089050  0.25748414  1
  O  O269  1  0.88015903  0.50569654  0.76854399  1
  O  O270  1  0.11446569  0.36993227  0.37523217  1
  O  O271  1  0.11894604  0.36972578  0.86625866  1
  O  O272  1  0.11366374  0.86763259  0.37850828  1
  O  O273  1  0.10630875  0.87877865  0.89092349  1
  O  O274  1  0.61068383  0.37621338  0.38957512  1
  O  O275  1  0.63730984  0.35635051  0.87515677  1
  O  O276  1  0.61278887  0.86404310  0.38073658  1
  O  O277  1  0.60962296  0.87992778  0.86530849  1
  O  O278  1  0.38818035  0.13094025  0.13214408  1
  O  O279  1  0.37012877  0.11071769  0.64325398  1
  O  O280  1  0.38248535  0.63557105  0.11908298  1
  O  O281  1  0.37968075  0.63696533  0.63058232  1
  O  O282  1  0.86806516  0.13591580  0.13417211  1
  O  O283  1  0.88392399  0.13608062  0.63000678  1
  O  O284  1  0.89269422  0.61661095  0.12040401  1
  O  O285  1  0.88689290  0.59973867  0.60949076  1
  O  O286  1  0.24948361  0.26221242  0.11414120  1
  O  O287  1  0.24964626  0.25676202  0.62298072  1
  O  O288  1  0.25511657  0.75746377  0.12317061  1
  O  O289  1  0.25953773  0.74329016  0.61085624  1
  O  O290  1  0.75396851  0.25212143  0.12313179  1
  O  O291  1  0.76815084  0.24481544  0.62468274  1
  O  O292  1  0.74752225  0.76009550  0.11785414  1
  O  O293  1  0.75136304  0.72594060  0.61056620  1
  O  O294  1  0.23543066  0.26012651  0.37124951  1
  O  O295  1  0.23534575  0.25118241  0.88694557  1
  O  O296  1  0.24495302  0.73951326  0.37957216  1
  O  O297  1  0.24490172  0.74722150  0.88008188  1
  O  O298  1  0.75128489  0.24300184  0.37069406  1
  O  O299  1  0.74461915  0.24019719  0.88241600  1
  O  O300  1  0.74162531  0.74559057  0.37063004  1
  O  O301  1  0.75383262  0.73284018  0.89143507  1
  O  O302  1  0.01342555  0.13149853  0.00134843  1
  O  O303  1  0.00330956  0.12822525  0.51272088  1
  O  O304  1  0.00682676  0.61783806  0.00485098  1
  O  O305  1  0.01390383  0.62397224  0.50229613  1
  O  O306  1  0.49407193  0.11666288  0.01000371  1
  O  O307  1  0.52697889  0.11377021  0.47170792  1
  O  O308  1  0.50711767  0.62380030  0.01432974  1
  O  O309  1  0.49911797  0.62143474  0.50655903  1
  O  O310  1  0.48863480  0.39245947  0.48531518  1
  O  O311  1  0.50880542  0.38351211  0.98896671  1
  O  O312  1  0.49312395  0.87383248  0.48755164  1
  O  O313  1  0.49451128  0.88216129  0.99130994  1
  O  O314  1  0.99334713  0.37088932  0.48360421  1
  O  O315  1  1.00503663  0.38111285  0.98681483  1
  O  O316  1  0.98075987  0.86284668  0.48285746  1
  O  O317  1  0.98505047  0.87258448  0.99966892  1
  O  O318  1  0.49297672  0.49866765  0.37824122  1
  O  O319  1  0.47711762  0.52474119  0.88231143  1
  O  O320  1  0.50903710  0.98465184  0.37087432  1
  O  O321  1  0.49052037  0.99481323  0.88322315  1
  O  O322  1  0.99478482  0.48468861  0.36458693  1
  O  O323  1  0.99282119  0.49627490  0.88075459  1
  O  O324  1  1.00668281  0.99288973  0.38374758  1
  O  O325  1  0.98789937  0.99099627  0.87832686  1
  O  O326  1  0.01670631  -0.00397429  0.13429204  1
  O  O327  1  -0.00603025  0.01798339  0.63066797  1
  O  O328  1  0.01296299  0.49633286  0.11759400  1
  O  O329  1  0.01702573  0.50649524  0.61852285  1
  O  O330  1  0.50020716  0.00640522  0.11939007  1
  O  O331  1  0.51402600  0.00862544  0.61916318  1
  O  O332  1  0.50586629  0.50704433  0.12864335  1
  O  O333  1  0.49558252  0.51944192  0.60966749  1
  O  O334  1  0.24974298  0.36886082  0.23429777  1
  O  O335  1  0.24190107  0.38751281  0.75027499  1
  O  O336  1  0.24403872  0.88743840  0.25130489  1
  O  O337  1  0.25032922  0.88575070  0.73489534  1
  O  O338  1  0.75134804  0.38220438  0.23976149  1
  O  O339  1  0.75731150  0.38199169  0.73890041  1
  O  O340  1  0.75795077  0.88618651  0.23996664  1
  O  O341  1  0.73556557  0.87337848  0.76836731  1
  O  O342  1  0.26511457  0.12293726  0.25065158  1
  O  O343  1  0.26030415  0.11337719  0.75751926  1
  O  O344  1  0.24524486  0.63180688  0.25964005  1
  O  O345  1  0.25180447  0.62430316  0.75555784  1
  O  O346  1  0.75803214  0.11637269  0.26338701  1
  O  O347  1  0.76273558  0.13506399  0.76400405  1
  O  O348  1  0.75081518  0.61416436  0.25305848  1
  O  O349  1  0.74357093  0.62537328  0.77339677  1
  O  O350  1  0.38076619  0.13190325  0.36950465  1
  O  O351  1  0.37573089  0.11395256  0.86760016  1
  O  O352  1  0.36233640  0.62252041  0.37396924  1
  O  O353  1  0.36058350  0.63179068  0.86803226  1
  O  O354  1  0.86643653  0.12995650  0.36708848  1
  O  O355  1  0.86964332  0.11947900  0.86999024  1
  O  O356  1  0.87261159  0.61053210  0.37735416  1
  O  O357  1  0.86439165  0.61242115  0.88902044  1
  O  O358  1  0.13395933  0.38657665  0.12062885  1
  O  O359  1  0.11815242  0.38077423  0.63618732  1
  O  O360  1  0.13045618  0.88306104  0.13606068  1
  O  O361  1  0.12326936  0.86920115  0.58840109  1
  O  O362  1  0.63449026  0.38355106  0.12121940  1
  O  O363  1  0.60823748  0.36882422  0.60358703  1
  O  O364  1  0.63491965  0.87749887  0.12076280  1
  O  O365  1  0.62254995  0.88429091  0.63835156  1
  O  O366  1  0.11669442  0.24252408  0.26088530  1
  O  O367  1  0.12103769  0.25423775  0.75794139  1
  O  O368  1  0.13458263  0.76796542  0.25834911  1
  O  O369  1  0.11119407  0.76380252  0.74150318  1
  O  O370  1  0.61002124  0.24408482  0.25683819  1
  O  O371  1  0.62792421  0.24870479  0.75717024  1
  O  O372  1  0.61491838  0.75203018  0.25592550  1
  O  O373  1  0.62374712  0.76348651  0.74714761  1
  O  O374  1  0.38386977  0.23990924  0.24965033  1
  O  O375  1  0.36893241  0.23417352  0.75458786  1
  O  O376  1  0.38234013  0.75538448  0.24000821  1
  O  O377  1  0.36666924  0.74584619  0.73865513  1
  O  O378  1  0.88181617  0.24090104  0.24289712  1
  O  O379  1  0.88299729  0.24661541  0.74098362  1
  O  O380  1  0.87313216  0.72830549  0.25655758  1
  O  O381  1  0.88349392  0.73530052  0.76773910  1
  O  O382  1  0.38086121  0.50502052  0.48549786  1
  O  O383  1  0.36487956  0.50388602  0.98554450  1
  O  O384  1  0.37743976  0.98642092  0.49905537  1
  O  O385  1  0.38303193  0.99581822  0.99405612  1
  O  O386  1  0.87238684  0.48166167  0.48285523  1
  O  O387  1  0.88947117  0.49311766  0.99686060  1
  O  O388  1  0.86692403  0.97816273  0.50233980  1
  O  O389  1  0.86769280  0.98720129  0.99258951  1
  O  O390  1  0.13003055  0.01742872  0.00973422  1
  O  O391  1  0.16443594  0.01646670  0.53364926  1
  O  O392  1  0.11689291  0.50967275  -0.00223213  1
  O  O393  1  0.13773434  0.50801639  0.50606981  1
  O  O394  1  0.61085162  -0.00399051  -0.00130576  1
  O  O395  1  0.63087277  0.00124511  0.51357009  1
  O  O396  1  0.62855166  0.51093548  0.01590750  1
  O  O397  1  0.60761893  0.50366764  0.49278169  1
  O  O398  1  0.36154432  0.37751310  0.12454014  1
  O  O399  1  0.40127581  0.37422589  0.63362498  1
  O  O400  1  0.37019337  0.86942354  0.12320070  1
  O  O401  1  0.38776495  0.86652549  0.60684862  1
  O  O402  1  0.86505376  0.36239987  0.12485546  1
  O  O403  1  0.87747118  0.36768232  0.60781085  1
  O  O404  1  0.86586923  0.88205925  0.11394356  1
  O  O405  1  0.88526206  0.86929655  0.61700303  1
  O  O406  1  0.12099276  0.14060601  0.38302695  1
  O  O407  1  0.12319473  0.13187245  0.88555258  1
  O  O408  1  0.13522367  0.62668949  0.37725974  1
  O  O409  1  0.13109765  0.62702218  0.87923794  1
  O  O410  1  0.64935437  0.11658253  0.38171658  1
  O  O411  1  0.63908052  0.13061477  0.86787790  1
  O  O412  1  0.63722073  0.63620155  0.36846131  1
  O  O413  1  0.63843067  0.61130256  0.88935387  1
