# generated using pymatgen
data_V79Zn79O256
_symmetry_space_group_name_H-M   'P 1'
_cell_length_a   16.94222805
_cell_length_b   16.93884654
_cell_length_c   16.92063374
_cell_angle_alpha   89.96170157
_cell_angle_beta   90.12440358
_cell_angle_gamma   89.90326547
_symmetry_Int_Tables_number   1
_chemical_formula_structural   V79Zn79O256
_chemical_formula_sum   'V79 Zn79 O256'
_cell_volume   4855.89447998
_cell_formula_units_Z   1
loop_
 _symmetry_equiv_pos_site_id
 _symmetry_equiv_pos_as_xyz
  1  'x, y, z'
loop_
 _atom_site_type_symbol
 _atom_site_label
 _atom_site_symmetry_multiplicity
 _atom_site_fract_x
 _atom_site_fract_y
 _atom_site_fract_z
 _atom_site_occupancy
  V  V0  1  0.24870603  0.12126819  0.37924443  1
  V  V1  1  0.74960366  0.00389476  0.74920042  1
  V  V2  1  0.74629881  0.38307365  0.62664006  1
  V  V3  1  0.50300005  0.12434330  0.61396651  1
  V  V4  1  0.49922207  0.75214194  0.75101581  1
  V  V5  1  0.75129727  0.74961965  0.49562498  1
  V  V6  1  0.51009053  0.87095681  0.37777568  1
  V  V7  1  0.00013953  0.36748621  0.87081445  1
  V  V8  1  0.25601850  0.75784143  0.01070219  1
  V  V9  1  0.74043467  0.49374264  0.25070499  1
  V  V10  1  0.24352484  0.25034668  0.00888853  1
  V  V11  1  0.38481018  0.12655195  0.75042475  1
  V  V12  1  0.24693167  0.75888324  0.49883726  1
  V  V13  1  0.86991259  0.74221595  0.11830725  1
  V  V14  1  0.74278415  0.23710344  -0.00413411  1
  V  V15  1  0.51303934  0.51013178  0.00769686  1
  V  V16  1  0.37769007  0.88202377  0.01242738  1
  V  V17  1  0.24784088  0.49463727  0.74683413  1
  V  V18  1  0.62417948  0.86816566  0.25554715  1
  V  V19  1  0.00166364  0.49733309  0.50079900  1
  V  V20  1  0.88366635  0.61893386  0.24796407  1
  V  V21  1  0.86064877  0.62032841  0.74903550  1
  V  V22  1  0.00158484  0.74659492  0.75131470  1
  V  V23  1  0.75113334  0.86635132  0.12095199  1
  V  V24  1  0.27893785  0.55191160  0.25158753  1
  V  V25  1  0.62704586  0.75036322  0.88674407  1
  V  V26  1  0.37923710  0.88456567  0.49469904  1
  V  V27  1  0.49891802  0.27110753  0.23832209  1
  V  V28  1  -0.00361520  0.76144188  0.24683238  1
  V  V29  1  0.75046821  0.62819280  0.37531927  1
  V  V30  1  -0.00576481  0.23858004  0.25232394  1
  V  V31  1  0.12453059  0.24542035  0.38464877  1
  V  V32  1  0.74520698  0.62814583  0.88995692  1
  V  V33  1  0.13616694  0.88502229  0.74688450  1
  V  V34  1  0.37681645  0.26370134  0.62588180  1
  V  V35  1  0.87419250  0.75160963  0.62143949  1
  V  V36  1  0.73770230  0.24406640  0.50058460  1
  V  V37  1  0.75632941  -0.00441778  0.24593528  1
  V  V38  1  0.75516180  0.87375432  0.62008706  1
  V  V39  1  0.88008152  0.49587396  0.37294550  1
  V  V40  1  0.12973202  0.62484795  0.50062840  1
  V  V41  1  0.86506705  0.49790235  0.86903224  1
  V  V42  1  0.39442836  0.01859722  0.37178728  1
  V  V43  1  0.62866105  0.39278144  0.75107664  1
  V  V44  1  -0.00175035  0.62138343  0.62758123  1
  V  V45  1  0.87254274  0.37273534  -0.00025835  1
  V  V46  1  0.61647572  0.26129356  0.36324710  1
  V  V47  1  0.62462779  0.24563675  0.86805941  1
  V  V48  1  0.87380642  0.12715981  0.73852288  1
  V  V49  1  0.36678273  0.76215428  0.62602652  1
  V  V50  1  0.87205093  0.86123801  -0.00596015  1
  V  V51  1  0.37060817  0.37345612  0.02090526  1
  V  V52  1  0.36383244  0.00366989  0.87219133  1
  V  V53  1  0.00448861  0.49491731  0.00331182  1
  V  V54  1  0.12300599  0.36581203  0.75037228  1
  V  V55  1  0.87304048  0.36597091  0.50538585  1
  V  V56  1  0.87645138  -0.00441463  0.38896046  1
  V  V57  1  0.37282838  0.49655764  0.87824540  1
  V  V58  1  0.87329055  0.24014485  0.12493039  1
  V  V59  1  0.73832527  0.37844579  0.12777781  1
  V  V60  1  0.12593666  0.61907818  0.00418519  1
  V  V61  1  -0.00683734  0.24974327  0.73469680  1
  V  V62  1  0.37833976  0.13659292  0.24044607  1
  V  V63  1  0.00699156  0.10834340  0.61757805  1
  V  V64  1  0.87467588  0.11864946  0.25206859  1
  V  V65  1  0.26193712  0.26817571  0.50025050  1
  V  V66  1  0.24891505  0.62511597  0.87758643  1
  V  V67  1  0.00420501  0.36878910  0.37561000  1
  V  V68  1  0.62515851  0.87476465  0.74143403  1
  V  V69  1  0.24130065  0.14267303  0.86763786  1
  V  V70  1  0.50049518  0.88632559  0.87757088  1
  V  V71  1  -0.00333490  0.87639234  0.39567075  1
  V  V72  1  0.12887332  0.49375401  0.62339661  1
  V  V73  1  0.87760644  0.00529445  0.87677230  1
  V  V74  1  0.11746774  0.74310198  0.37197981  1
  V  V75  1  0.49933649  0.37275879  0.86752273  1
  V  V76  1  0.37571267  0.62702148  0.75073347  1
  V  V77  1  -0.00199083  0.86964078  0.87515319  1
  V  V78  1  0.12152777  0.37106334  0.22276276  1
  Zn  Zn79  1  0.12812653  0.75019092  0.87458629  1
  Zn  Zn80  1  0.60892059  0.10547324  -0.01040865  1
  Zn  Zn81  1  0.16548297  -0.03029831  0.57960805  1
  Zn  Zn82  1  0.73733680  0.11893736  0.37611759  1
  Zn  Zn83  1  0.49593507  0.62279705  0.60604902  1
  Zn  Zn84  1  0.61722880  -0.00048861  0.61085962  1
  Zn  Zn85  1  0.04222745  0.06949906  0.04487187  1
  Zn  Zn86  1  0.22030288  0.92416345  0.19480712  1
  Zn  Zn87  1  0.43662286  0.68583477  0.21261596  1
  Zn  Zn88  1  0.50378317  0.12874036  0.11724815  1
  Zn  Zn89  1  0.57319557  0.08036618  0.44833875  1
  Zn  Zn90  1  0.62007867  0.63064445  0.49321591  1
  Zn  Zn91  1  0.60229213  0.49260527  0.58684849  1
  Zn  Zn92  1  0.00421587  0.61640676  0.12693413  1
  Zn  Zn93  1  0.62055142  0.00002465  0.11203901  1
  Zn  Zn94  1  0.18492983  0.18171906  0.19763998  1
  Zn  Zn95  1  0.20917486  0.14012308  0.66235829  1
  Zn  Zn96  1  0.17977221  0.69333430  0.18288128  1
  Zn  Zn97  1  0.18783359  0.68802883  0.68570823  1
  Zn  Zn98  1  0.68497930  0.18395766  0.18465537  1
  Zn  Zn99  1  0.68657218  0.19308001  0.68612395  1
  Zn  Zn100  1  0.68823518  0.68522137  0.20101827  1
  Zn  Zn101  1  0.67929350  0.68118078  0.68017854  1
  Zn  Zn102  1  0.30325522  0.31025229  0.29490716  1
  Zn  Zn103  1  0.31412226  0.31182587  0.80498393  1
  Zn  Zn104  1  0.30282650  0.77720706  0.30113743  1
  Zn  Zn105  1  0.31302879  0.81386536  0.82233200  1
  Zn  Zn106  1  0.80700534  0.30872803  0.31524602  1
  Zn  Zn107  1  0.80847207  0.30943883  0.80875707  1
  Zn  Zn108  1  0.81858788  0.81332635  0.30961776  1
  Zn  Zn109  1  0.80895302  0.80826457  0.80786572  1
  Zn  Zn110  1  0.28262522  0.44338469  0.41134172  1
  Zn  Zn111  1  0.18639208  0.42880682  0.93930736  1
  Zn  Zn112  1  0.20302704  0.92044653  0.39027984  1
  Zn  Zn113  1  0.17736479  0.94348499  1.03587522  1
  Zn  Zn114  1  0.69004685  0.43571918  0.43838636  1
  Zn  Zn115  1  0.68658487  0.43576268  0.93691309  1
  Zn  Zn116  1  0.69479616  0.93644365  0.44108619  1
  Zn  Zn117  1  0.69415299  0.93648616  0.93462504  1
  Zn  Zn118  1  0.30951335  0.06652310  0.05693876  1
  Zn  Zn119  1  0.32222194  0.06869107  0.55440569  1
  Zn  Zn120  1  0.31211308  0.56219057  0.07286577  1
  Zn  Zn121  1  0.31288890  0.56934863  0.56618583  1
  Zn  Zn122  1  0.86658603  0.02280668  0.09208360  1
  Zn  Zn123  1  0.80724221  0.06269587  0.56530141  1
  Zn  Zn124  1  0.81161062  0.55555817  0.06233238  1
  Zn  Zn125  1  0.81005869  0.55974904  0.56093172  1
  Zn  Zn126  1  0.43639245  0.45962937  0.19464826  1
  Zn  Zn127  1  0.44196326  0.44023132  0.68519255  1
  Zn  Zn128  1  0.44016604  0.94513143  0.19125311  1
  Zn  Zn129  1  0.43452304  0.94330344  0.68631190  1
  Zn  Zn130  1  0.93937026  0.42838465  0.18642987  1
  Zn  Zn131  1  0.93488615  0.43719120  0.68513411  1
  Zn  Zn132  1  1.03545282  0.94265058  0.17636141  1
  Zn  Zn133  1  0.94145191  0.93912797  0.68823359  1
  Zn  Zn134  1  0.06762967  0.05770723  0.44324278  1
  Zn  Zn135  1  0.10420161  0.02325988  0.86833595  1
  Zn  Zn136  1  0.10839833  0.53292955  0.32910025  1
  Zn  Zn137  1  0.05953574  0.55717735  0.81588564  1
  Zn  Zn138  1  0.56262237  0.06516147  0.27624324  1
  Zn  Zn139  1  0.56206324  0.06388476  0.80490446  1
  Zn  Zn140  1  0.57476479  0.53626910  0.35773768  1
  Zn  Zn141  1  0.55813344  0.56642512  0.82347001  1
  Zn  Zn142  1  0.44136190  0.34189844  0.42983875  1
  Zn  Zn143  1  0.43361686  0.19260922  0.94208556  1
  Zn  Zn144  1  0.43251593  0.69978338  0.41688586  1
  Zn  Zn145  1  0.44291765  0.68811133  1.04725146  1
  Zn  Zn146  1  0.92924647  0.18355370  0.44046766  1
  Zn  Zn147  1  0.93856775  0.18594109  0.93179137  1
  Zn  Zn148  1  0.93761252  0.68365539  0.43764955  1
  Zn  Zn149  1  0.93738223  0.68011560  0.93546566  1
  Zn  Zn150  1  0.05421058  0.27405680  0.04911523  1
  Zn  Zn151  1  0.06700137  0.30969246  0.56270711  1
  Zn  Zn152  1  0.06294924  0.80580829  0.06183279  1
  Zn  Zn153  1  0.06302062  0.81251935  0.56926757  1
  Zn  Zn154  1  0.55736555  0.31742299  0.05477613  1
  Zn  Zn155  1  0.56191719  0.30802327  0.56614334  1
  Zn  Zn156  1  0.55873360  0.81587858  0.07171770  1
  Zn  Zn157  1  0.54389369  0.78051831  0.53944833  1
  O  O158  1  0.12100918  0.08554901  0.16927086  1
  O  O159  1  0.10288274  0.13600885  0.62412537  1
  O  O160  1  0.12072240  0.62753796  0.10844374  1
  O  O161  1  0.11819069  0.61676560  0.62070865  1
  O  O162  1  0.62772598  0.12073939  0.11247050  1
  O  O163  1  0.60565433  0.13239457  0.63350666  1
  O  O164  1  0.59139914  0.61546323  0.18347592  1
  O  O165  1  0.61839954  0.61713658  0.61229547  1
  O  O166  1  0.36054650  0.37712717  0.36281546  1
  O  O167  1  0.38199925  0.38533876  0.86637329  1
  O  O168  1  0.39918232  0.89248311  0.37815260  1
  O  O169  1  0.38273224  0.88691182  0.87485728  1
  O  O170  1  0.88143811  0.37940180  0.38107733  1
  O  O171  1  0.87592055  0.38004770  0.87875434  1
  O  O172  1  0.88628856  0.88500055  0.37116460  1
  O  O173  1  0.87799260  0.87081853  0.87713565  1
  O  O174  1  0.26588445  0.01996790  0.37329837  1
  O  O175  1  0.26431091  0.02247110  0.87701679  1
  O  O176  1  0.22648756  0.51083409  0.33673775  1
  O  O177  1  0.25339820  0.50471300  0.86733350  1
  O  O178  1  0.76536596  -0.00585279  0.36549857  1
  O  O179  1  0.76585399  -0.01051996  0.85845273  1
  O  O180  1  0.76630557  0.50438178  0.36997364  1
  O  O181  1  0.75969923  0.50726550  0.87848118  1
  O  O182  1  0.24956046  0.51807566  0.16036352  1
  O  O183  1  0.24150157  0.50807252  0.63614146  1
  O  O184  1  0.24625097  0.99367343  0.11288049  1
  O  O185  1  0.24143119  1.03560754  0.62388897  1
  O  O186  1  0.75382736  0.48697441  0.13396503  1
  O  O187  1  0.73566762  0.48502267  0.60608363  1
  O  O188  1  0.76583288  0.97934411  0.13250421  1
  O  O189  1  0.75258807  0.98800023  0.63488872  1
  O  O190  1  -0.00673081  0.35635792  0.26074589  1
  O  O191  1  0.00176998  0.37127098  0.75255729  1
  O  O192  1  -0.00505083  0.86267568  0.25186771  1
  O  O193  1  -0.00180398  0.86030832  0.75424118  1
  O  O194  1  0.49309828  0.37047434  0.24243397  1
  O  O195  1  0.51079270  0.37993530  0.76076118  1
  O  O196  1  0.51696215  0.88321921  0.26091625  1
  O  O197  1  0.50654960  0.87239421  0.75390420  1
  O  O198  1  0.48547417  0.14750352  0.25008243  1
  O  O199  1  0.48815616  0.13196825  0.74644604  1
  O  O200  1  0.53919290  0.61267150  0.24112182  1
  O  O201  1  0.48535416  0.63663420  0.76100794  1
  O  O202  1  0.98366009  0.13443313  0.26038733  1
  O  O203  1  0.98965015  0.13559660  0.73257694  1
  O  O204  1  0.98682809  0.62627555  0.24778744  1
  O  O205  1  0.99130022  0.62968165  0.74800497  1
  O  O206  1  0.36982966  0.26926021  0.00239083  1
  O  O207  1  0.36753685  0.26626234  0.50756055  1
  O  O208  1  0.36271095  0.76340973  -0.00243451  1
  O  O209  1  0.36489925  0.75956097  0.50518737  1
  O  O210  1  0.86065389  0.25562210  0.00200446  1
  O  O211  1  0.86094678  0.26168185  0.49152000  1
  O  O212  1  0.87532933  0.74703366  0.00692679  1
  O  O213  1  0.87146621  0.74163909  0.51600248  1
  O  O214  1  0.13383012  0.25226904  0.49005114  1
  O  O215  1  0.14834105  0.26740117  0.98337594  1
  O  O216  1  0.12576048  0.74348040  0.49880115  1
  O  O217  1  0.13590129  0.73987820  0.99390702  1
  O  O218  1  0.63297779  0.24857477  0.48614052  1
  O  O219  1  0.63543233  0.25685589  0.98951251  1
  O  O220  1  0.64899977  0.75210046  0.50004236  1
  O  O221  1  0.61905803  0.76130487  0.98413886  1
  O  O222  1  0.50823219  0.25295245  0.13588324  1
  O  O223  1  0.48291755  0.24127878  0.62017019  1
  O  O224  1  0.49544189  0.74699467  0.13069229  1
  O  O225  1  0.48634391  0.75223223  0.64016420  1
  O  O226  1  0.98002920  0.25216592  0.14171313  1
  O  O227  1  0.99186322  0.25621357  0.63202206  1
  O  O228  1  0.98836157  0.74245190  0.13109621  1
  O  O229  1  0.99183761  0.74228622  0.63318331  1
  O  O230  1  0.00278610  0.25053089  0.37446724  1
  O  O231  1  -0.01047346  0.26380957  0.85866419  1
  O  O232  1  -0.00553154  0.75779317  0.36910818  1
  O  O233  1  -0.00281586  0.75011893  0.86407694  1
  O  O234  1  0.51193450  0.26341065  0.36242396  1
  O  O235  1  0.51383524  0.26435566  0.88380888  1
  O  O236  1  0.51930264  0.77453959  0.37489954  1
  O  O237  1  0.51361509  0.76516045  0.86155342  1
  O  O238  1  0.26600372  0.14272092  0.48002238  1
  O  O239  1  0.26403697  0.14264514  0.98139054  1
  O  O240  1  0.23535901  0.63628792  0.50689970  1
  O  O241  1  0.24516146  0.62887411  0.99452846  1
  O  O242  1  0.75586612  0.14243906  0.50086869  1
  O  O243  1  0.74743552  0.14074519  0.99645312  1
  O  O244  1  0.75595601  0.63216916  0.48930463  1
  O  O245  1  0.75159067  0.62253441  0.98939667  1
  O  O246  1  0.26323046  0.36832851  -0.00132211  1
  O  O247  1  0.24438019  0.36679730  0.49466500  1
  O  O248  1  0.25962916  0.86352894  -0.00636339  1
  O  O249  1  0.26498396  0.86704018  0.48536348  1
  O  O250  1  0.75896195  0.37665249  0.00999459  1
  O  O251  1  0.75540219  0.36556083  0.50345493  1
  O  O252  1  0.76115256  0.87062728  0.00722783  1
  O  O253  1  0.75426255  0.86648145  0.51282719  1
  O  O254  1  0.09614309  0.47030662  0.23667764  1
  O  O255  1  0.12946472  0.49607186  0.74163551  1
  O  O256  1  0.11976315  1.02631398  0.22255169  1
  O  O257  1  0.12294082  0.98328519  0.76184336  1
  O  O258  1  0.64354540  0.49212235  0.27142182  1
  O  O259  1  0.62645627  0.49217884  0.76357645  1
  O  O260  1  0.64945199  0.99048825  0.24909365  1
  O  O261  1  0.63492292  0.99175497  0.74923086  1
  O  O262  1  0.38082135  0.01737261  0.26438405  1
  O  O263  1  0.37659471  0.01625624  0.75653184  1
  O  O264  1  0.37811851  0.52968669  0.26137232  1
  O  O265  1  0.36582502  0.50786411  0.75506227  1
  O  O266  1  0.86911963  0.00790459  0.25772440  1
  O  O267  1  0.86902983  0.00640933  0.75437449  1
  O  O268  1  0.87413890  0.50045836  0.25738119  1
  O  O269  1  0.87945903  0.50874487  0.75870736  1
  O  O270  1  0.10807814  0.36329010  0.36815204  1
  O  O271  1  0.10917395  0.38515174  0.86245101  1
  O  O272  1  0.10157596  0.85497466  0.37447466  1
  O  O273  1  0.10637557  0.86682583  0.86084140  1
  O  O274  1  0.63853404  0.35905198  0.36903681  1
  O  O275  1  0.61920753  0.36981442  0.86921572  1
  O  O276  1  0.62075996  0.88999416  0.36534402  1
  O  O277  1  0.62327201  0.86722407  0.86189535  1
  O  O278  1  0.37180777  0.12088931  0.14082863  1
  O  O279  1  0.38509960  0.12997962  0.63489010  1
  O  O280  1  0.38028759  0.63295253  0.12565678  1
  O  O281  1  0.37238661  0.63968959  0.63713077  1
  O  O282  1  0.86245077  0.13488019  0.13484099  1
  O  O283  1  0.88572385  0.11691319  0.63175069  1
  O  O284  1  0.87327973  0.62728615  0.13048428  1
  O  O285  1  0.87698812  0.62662060  0.63272187  1
  O  O286  1  0.23675805  0.23049520  0.10773530  1
  O  O287  1  0.26246400  0.23987035  0.60665146  1
  O  O288  1  0.24549847  0.75401186  0.10952042  1
  O  O289  1  0.25693937  0.75147630  0.61522026  1
  O  O290  1  0.75386516  0.26014290  0.11415961  1
  O  O291  1  0.73848365  0.26348202  0.60824072  1
  O  O292  1  0.75754020  0.75330699  0.13335768  1
  O  O293  1  0.75774419  0.75407489  0.62002791  1
  O  O294  1  0.24065581  0.24879055  0.38317210  1
  O  O295  1  0.25950826  0.24579406  0.87902244  1
  O  O296  1  0.22712703  0.74636155  0.39095952  1
  O  O297  1  0.25041362  0.73648272  0.88283493  1
  O  O298  1  0.74156791  0.24434311  0.38336725  1
  O  O299  1  0.73831524  0.25832634  0.88660709  1
  O  O300  1  0.77332119  0.74032740  0.38540031  1
  O  O301  1  0.73535486  0.74513349  0.87121106  1
  O  O302  1  0.01267755  0.17144144  0.01201822  1
  O  O303  1  -0.00409233  0.12227506  0.50935204  1
  O  O304  1  0.00861841  0.61233060  -0.00448192  1
  O  O305  1  0.00448250  0.61833100  0.50934528  1
  O  O306  1  0.49690161  0.12751126  0.00417529  1
  O  O307  1  0.49334619  0.12604685  0.51441451  1
  O  O308  1  0.49503370  0.60799174  -0.01301841  1
  O  O309  1  0.50614550  0.67102097  0.49811897  1
  O  O310  1  0.51046107  0.38305746  0.50376688  1
  O  O311  1  0.48455936  0.38470877  0.99045524  1
  O  O312  1  0.49468712  0.87457814  0.49057303  1
  O  O313  1  0.48464244  0.86767552  0.98948353  1
  O  O314  1  0.99233405  0.37529887  0.49424083  1
  O  O315  1  0.98833980  0.37349828  0.98898264  1
  O  O316  1  0.99279285  0.86581927  0.49377799  1
  O  O317  1  0.98536440  0.85956042  0.98613870  1
  O  O318  1  0.46341752  0.50124750  0.38965220  1
  O  O319  1  0.48935321  0.49162022  0.88205591  1
  O  O320  1  0.49989044  1.01068380  0.37351922  1
  O  O321  1  0.49532200  0.98992308  0.86741609  1
  O  O322  1  0.99660086  0.48779916  0.38055085  1
  O  O323  1  0.98638426  0.48986696  0.88155445  1
  O  O324  1  0.98965813  0.98617999  0.38165621  1
  O  O325  1  0.98176070  0.98149083  0.86354113  1
  O  O326  1  -0.02453071  0.01101214  0.11375671  1
  O  O327  1  0.00792070  0.00754566  0.62529296  1
  O  O328  1  -0.01265679  0.49697992  0.10632535  1
  O  O329  1  0.00767468  0.50269140  0.62086721  1
  O  O330  1  0.51884897  0.02026737  0.16505284  1
  O  O331  1  0.50179464  0.01703276  0.63119536  1
  O  O332  1  0.49794207  0.49712331  0.10626570  1
  O  O333  1  0.49570849  0.51180743  0.62362992  1
  O  O334  1  0.22093591  0.35973272  0.23481233  1
  O  O335  1  0.23830413  0.38791254  0.75783474  1
  O  O336  1  0.24495246  0.87172208  0.28767624  1
  O  O337  1  0.23395173  0.86630037  0.75824835  1
  O  O338  1  0.75952564  0.37801039  0.23451882  1
  O  O339  1  0.74416991  0.37252258  0.73685019  1
  O  O340  1  0.74779946  0.87690134  0.24345125  1
  O  O341  1  0.74338736  0.87891039  0.74066052  1
  O  O342  1  0.26977654  0.14563602  0.26934413  1
  O  O343  1  0.26672174  0.13518230  0.76219881  1
  O  O344  1  0.25664508  0.65311030  0.25507485  1
  O  O345  1  0.25490049  0.61924080  0.75718449  1
  O  O346  1  0.75856596  0.11502680  0.25181322  1
  O  O347  1  0.75783345  0.11435935  0.73717550  1
  O  O348  1  0.76456440  0.61336279  0.25459494  1
  O  O349  1  0.75838628  0.62997011  0.75515341  1
  O  O350  1  0.37627472  0.12048132  0.37099354  1
  O  O351  1  0.37953081  0.12363175  0.86257551  1
  O  O352  1  0.42019393  0.54907443  0.43321175  1
  O  O353  1  0.36221605  0.61142207  0.86633138  1
  O  O354  1  0.87152804  0.10958482  0.37034677  1
  O  O355  1  0.88284673  0.10941871  0.86548655  1
  O  O356  1  0.87533865  0.61206058  0.36766197  1
  O  O357  1  0.86437682  0.61802958  0.86822641  1
  O  O358  1  0.10074592  0.35202417  0.12670737  1
  O  O359  1  0.12049060  0.38772511  0.63249856  1
  O  O360  1  0.12102598  0.88211500  0.12400147  1
  O  O361  1  0.12208577  0.87890924  0.63935508  1
  O  O362  1  0.64088039  0.37212032  0.11903069  1
  O  O363  1  0.62749506  0.37951407  0.63609177  1
  O  O364  1  0.63518894  0.87722938  0.13717245  1
  O  O365  1  0.63463445  0.87558263  0.63396945  1
  O  O366  1  0.11021327  0.25126361  0.25983279  1
  O  O367  1  0.11246345  0.26543830  0.74264208  1
  O  O368  1  0.10528237  0.73491953  0.26116656  1
  O  O369  1  0.11278675  0.75173590  0.74899377  1
  O  O370  1  0.61501318  0.25055396  0.25405278  1
  O  O371  1  0.63295978  0.26172564  0.76552325  1
  O  O372  1  0.63438360  0.76971700  0.25653543  1
  O  O373  1  0.61657353  0.75808860  0.74814994  1
  O  O374  1  0.38704783  0.24700221  0.24683317  1
  O  O375  1  0.37072897  0.24003611  0.73497529  1
  O  O376  1  0.39191970  0.71295999  0.31338181  1
  O  O377  1  0.37730652  0.74786944  0.74645686  1
  O  O378  1  0.87292314  0.23931305  0.24688178  1
  O  O379  1  0.87740383  0.23648431  0.75327412  1
  O  O380  1  0.88010371  0.73882783  0.24049136  1
  O  O381  1  0.88043979  0.73833828  0.74193670  1
  O  O382  1  0.36153398  0.50480621  0.48264240  1
  O  O383  1  0.36857489  0.48894297  0.99057184  1
  O  O384  1  0.37572902  0.99411818  0.48475275  1
  O  O385  1  0.37129266  0.98631150  0.98899676  1
  O  O386  1  0.88101002  0.49112567  0.49027961  1
  O  O387  1  0.88025795  0.48985008  0.98965137  1
  O  O388  1  0.86571953  0.99967196  0.48701179  1
  O  O389  1  0.86975167  0.98518233  0.97920570  1
  O  O390  1  0.10649910  0.00564274  -0.02194544  1
  O  O391  1  0.13730587  -0.02359671  0.47244638  1
  O  O392  1  0.11539868  0.50451377  -0.00795889  1
  O  O393  1  0.11960324  0.50948061  0.51010576  1
  O  O394  1  0.62488603  -0.00712798  -0.00219146  1
  O  O395  1  0.64549790  0.01419766  0.50333286  1
  O  O396  1  0.61267186  0.49840391  -0.00590592  1
  O  O397  1  0.61550135  0.51443567  0.46867095  1
  O  O398  1  0.37401631  0.38486649  0.11812773  1
  O  O399  1  0.37270830  0.36184807  0.63933961  1
  O  O400  1  0.38294309  0.88509502  0.11196096  1
  O  O401  1  0.37975282  0.86987247  0.61345580  1
  O  O402  1  0.86920763  0.36304002  0.11397220  1
  O  O403  1  0.86406297  0.38315887  0.61317537  1
  O  O404  1  0.86778731  0.85637812  0.11156227  1
  O  O405  1  0.86679310  0.86214759  0.63652693  1
  O  O406  1  0.13955677  0.13144939  0.37573968  1
  O  O407  1  0.14291627  0.13356528  0.86347283  1
  O  O408  1  0.10745116  0.63138175  0.39054926  1
  O  O409  1  0.13440735  0.62206544  0.88119709  1
  O  O410  1  0.62226753  0.13530037  0.36140834  1
  O  O411  1  0.61826192  0.14240891  0.87178142  1
  O  O412  1  0.64957583  0.63293977  0.36552866  1
  O  O413  1  0.63079398  0.64213568  0.87037590  1
