# generated using pymatgen
data_V79Zn79O256
_symmetry_space_group_name_H-M   'P 1'
_cell_length_a   16.87663400
_cell_length_b   16.85397556
_cell_length_c   16.86322844
_cell_angle_alpha   89.95076210
_cell_angle_beta   89.87431036
_cell_angle_gamma   90.03139764
_symmetry_Int_Tables_number   1
_chemical_formula_structural   V79Zn79O256
_chemical_formula_sum   'V79 Zn79 O256'
_cell_volume   4796.53528930
_cell_formula_units_Z   1
loop_
 _symmetry_equiv_pos_site_id
 _symmetry_equiv_pos_as_xyz
  1  'x, y, z'
loop_
 _atom_site_type_symbol
 _atom_site_label
 _atom_site_symmetry_multiplicity
 _atom_site_fract_x
 _atom_site_fract_y
 _atom_site_fract_z
 _atom_site_occupancy
  V  V0  1  -0.00139538  0.73503998  0.23872330  1
  V  V1  1  0.12273616  0.00454644  0.60019911  1
  V  V2  1  0.88988894  0.47847165  0.37447926  1
  V  V3  1  0.49091846  0.74069639  0.24658170  1
  V  V4  1  0.75112861  0.24844918  -0.01103132  1
  V  V5  1  0.24620843  0.89156780  0.13510330  1
  V  V6  1  0.37720988  0.11683653  0.25198517  1
  V  V7  1  0.74822305  -0.00512225  0.24260030  1
  V  V8  1  0.85711995  0.23243691  0.62597367  1
  V  V9  1  0.61369242  0.00776363  0.62233198  1
  V  V10  1  0.24585162  0.13102028  0.37610115  1
  V  V11  1  0.26140911  0.50214779  0.25078988  1
  V  V12  1  0.50336852  0.11411905  0.12163640  1
  V  V13  1  0.00239058  0.12572889  0.12827046  1
  V  V14  1  0.11603845  0.62925120  0.00469518  1
  V  V15  1  0.86813187  -0.00088090  0.37753809  1
  V  V16  1  0.50296125  0.74642636  0.75313613  1
  V  V17  1  0.25846095  0.01044383  0.75552962  1
  V  V18  1  0.37484529  0.75094355  0.62043550  1
  V  V19  1  0.25169364  0.75336703  0.49657355  1
  V  V20  1  0.11821324  0.37387030  0.26306416  1
  V  V21  1  0.88010821  0.87423408  0.49989971  1
  V  V22  1  0.74752856  0.74103878  0.50147565  1
  V  V23  1  0.51963524  0.50605731  0.49603616  1
  V  V24  1  0.87735955  0.37622602  -0.01194163  1
  V  V25  1  0.00108799  0.25317492  0.25976095  1
  V  V26  1  0.51443194  0.62173857  0.61957530  1
  V  V27  1  0.75354207  0.01730431  0.75082688  1
  V  V28  1  0.49820292  0.50816712  0.00344456  1
  V  V29  1  0.62528406  0.25389934  0.36899726  1
  V  V30  1  0.62350168  0.74374703  0.37801958  1
  V  V31  1  0.62372760  0.62611017  -0.02106444  1
  V  V32  1  0.75575084  0.24075611  0.48703028  1
  V  V33  1  -0.00220751  0.87248401  0.36701803  1
  V  V34  1  0.86459413  0.73549551  0.12710254  1
  V  V35  1  0.37823585  0.37544335  -0.00281131  1
  V  V36  1  0.36881402  0.74310098  0.12104283  1
  V  V37  1  0.62435410  0.87002467  0.75368761  1
  V  V38  1  0.12454574  0.87896592  0.74996935  1
  V  V39  1  0.24777017  0.24335937  -0.00148382  1
  V  V40  1  0.00427163  0.00281771  0.00324912  1
  V  V41  1  0.60836965  0.26383731  0.87100256  1
  V  V42  1  0.37579345  0.25059634  0.12574856  1
  V  V43  1  0.37670199  0.49796640  0.87606859  1
  V  V44  1  0.62632488  0.11982106  -0.00768566  1
  V  V45  1  -0.00470673  0.49879058  -0.00735248  1
  V  V46  1  0.26244640  0.62092547  0.37158434  1
  V  V47  1  0.76117922  0.62268444  0.36542178  1
  V  V48  1  0.86817137  0.87734366  0.00805408  1
  V  V49  1  0.38916197  0.24190757  0.63334024  1
  V  V50  1  0.37693104  0.00746660  0.88879163  1
  V  V51  1  0.86900254  0.12465127  0.25510126  1
  V  V52  1  0.74715319  0.37975154  0.62494879  1
  V  V53  1  -0.00086947  0.87911901  0.87212498  1
  V  V54  1  0.75189430  0.87181678  0.62596643  1
  V  V55  1  0.25070942  0.37683742  0.63046991  1
  V  V56  1  0.74372137  0.74788001  -0.01542661  1
  V  V57  1  0.25370749  0.87515798  0.61838513  1
  V  V58  1  0.61263089  0.11967219  0.49034123  1
  V  V59  1  0.12284720  0.75496192  0.87470021  1
  V  V60  1  0.24872169  0.62727218  0.87805400  1
  V  V61  1  -0.01096518  0.23915078  0.74069688  1
  V  V62  1  0.24452092  0.24877133  0.49935213  1
  V  V63  1  0.62625173  0.50626203  0.13166457  1
  V  V64  1  0.12270782  0.75106827  0.36765413  1
  V  V65  1  0.12210830  0.50095814  0.62586024  1
  V  V66  1  0.87421404  0.25547673  0.12364787  1
  V  V67  1  0.50617074  0.25749595  0.24872011  1
  V  V68  1  0.49108244  0.87386743  0.88408343  1
  V  V69  1  0.13062441  0.25040281  0.85928491  1
  V  V70  1  0.37947628  0.38538392  0.49275743  1
  V  V71  1  0.37510035  0.00098187  0.39320055  1
  V  V72  1  0.62524175  0.87447322  0.24272814  1
  V  V73  1  0.24391858  0.49617018  0.75373039  1
  V  V74  1  0.11538613  0.50263135  0.12645493  1
  V  V75  1  0.77006732  0.51741541  0.77518370  1
  V  V76  1  0.87074027  0.01519135  0.87277418  1
  V  V77  1  0.49686418  0.88175457  0.38494365  1
  V  V78  1  -0.00198509  0.63550607  0.63816828  1
  Zn  Zn79  1  0.37561286  0.62339234  0.74791213  1
  Zn  Zn80  1  0.12100231  0.62387296  0.49745545  1
  Zn  Zn81  1  0.25406739  0.76664005  -0.00074104  1
  Zn  Zn82  1  0.62243134  0.38249065  0.74329882  1
  Zn  Zn83  1  0.75709168  0.49517584  0.24798455  1
  Zn  Zn84  1  0.62699764  -0.00853090  0.11447040  1
  Zn  Zn85  1  0.11323305  -0.00244110  0.17674424  1
  Zn  Zn86  1  0.00369715  0.38144824  0.85049653  1
  Zn  Zn87  1  0.00296841  0.11812762  0.59642061  1
  Zn  Zn88  1  0.87910960  0.74613504  0.63779473  1
  Zn  Zn89  1  0.13147228  0.12422907  0.00324258  1
  Zn  Zn90  1  0.50439276  0.38767830  0.36400470  1
  Zn  Zn91  1  0.24769944  0.37446030  0.12720779  1
  Zn  Zn92  1  0.73620358  0.37157342  0.12912634  1
  Zn  Zn93  1  -0.00211491  0.49475397  0.49842876  1
  Zn  Zn94  1  0.18658619  0.18507189  0.19261991  1
  Zn  Zn95  1  0.19171745  0.18448648  0.67992662  1
  Zn  Zn96  1  0.18886372  0.68912517  0.18791374  1
  Zn  Zn97  1  0.18378411  0.68753808  0.69038628  1
  Zn  Zn98  1  0.68916945  0.18452866  0.18281822  1
  Zn  Zn99  1  0.55915401  0.18872044  0.69257214  1
  Zn  Zn100  1  0.68199972  0.68466231  0.18285145  1
  Zn  Zn101  1  0.69225226  0.68073887  0.69589781  1
  Zn  Zn102  1  0.31487200  0.31536432  0.31134049  1
  Zn  Zn103  1  0.31568551  0.30870346  0.81340410  1
  Zn  Zn104  1  0.31471969  0.81527026  0.31067378  1
  Zn  Zn105  1  0.31342328  0.81472169  0.80736864  1
  Zn  Zn106  1  0.80991404  0.31721224  0.30669652  1
  Zn  Zn107  1  0.81156906  0.30949765  0.80515488  1
  Zn  Zn108  1  0.81154302  0.80917261  0.30889515  1
  Zn  Zn109  1  0.81122797  0.82346625  0.81830113  1
  Zn  Zn110  1  0.19029145  0.43717231  0.44080495  1
  Zn  Zn111  1  0.18451012  0.43127552  0.93952989  1
  Zn  Zn112  1  0.18683178  0.94242294  0.32113506  1
  Zn  Zn113  1  0.19312917  0.94039217  0.94178775  1
  Zn  Zn114  1  0.69900117  0.43227447  0.44053491  1
  Zn  Zn115  1  0.69638088  0.44150191  0.93615779  1
  Zn  Zn116  1  0.68798755  0.93394658  0.43559689  1
  Zn  Zn117  1  0.68775814  0.93437993  0.93285407  1
  Zn  Zn118  1  0.31366752  0.05987970  0.06702199  1
  Zn  Zn119  1  0.31154551  0.06481289  0.56749841  1
  Zn  Zn120  1  0.30635109  0.56548129  0.06468771  1
  Zn  Zn121  1  0.31271701  0.56675225  0.56177231  1
  Zn  Zn122  1  0.81175687  0.06589746  0.06270198  1
  Zn  Zn123  1  0.80382811  0.06217269  0.55936423  1
  Zn  Zn124  1  0.80698202  0.56213503  0.05380279  1
  Zn  Zn125  1  0.82083168  0.56256221  0.56116038  1
  Zn  Zn126  1  0.44207966  0.43997175  0.18038742  1
  Zn  Zn127  1  0.43835156  0.43363218  0.68610728  1
  Zn  Zn128  1  0.43508823  0.92886386  0.18894764  1
  Zn  Zn129  1  0.43739813  0.93770781  0.69001783  1
  Zn  Zn130  1  0.93560329  0.44345497  0.18844804  1
  Zn  Zn131  1  0.93710810  0.42179783  0.66378782  1
  Zn  Zn132  1  0.93591628  0.93406612  0.18952477  1
  Zn  Zn133  1  0.93815495  0.94556501  0.68521638  1
  Zn  Zn134  1  0.06542562  0.05691532  0.39950610  1
  Zn  Zn135  1  0.06795404  0.06719674  0.81512733  1
  Zn  Zn136  1  0.06327407  0.56367339  0.31328768  1
  Zn  Zn137  1  0.05940530  0.56447562  0.81247148  1
  Zn  Zn138  1  0.56152282  0.06296124  0.30930464  1
  Zn  Zn139  1  0.56237030  0.05780154  0.81738383  1
  Zn  Zn140  1  0.56369989  0.56519505  0.31484439  1
  Zn  Zn141  1  0.56234817  0.53572776  0.79544741  1
  Zn  Zn142  1  0.43646999  0.19452930  0.44133064  1
  Zn  Zn143  1  0.43919462  0.18453358  0.93677294  1
  Zn  Zn144  1  0.43907168  0.68783935  0.43703988  1
  Zn  Zn145  1  0.43679603  0.68843547  0.94003457  1
  Zn  Zn146  1  0.93934344  0.18643830  0.43803827  1
  Zn  Zn147  1  0.94606839  0.19271048  0.93491978  1
  Zn  Zn148  1  0.93986836  0.68414186  0.44591036  1
  Zn  Zn149  1  0.93582763  0.69349305  0.93379240  1
  Zn  Zn150  1  0.06320005  0.31755817  0.06589758  1
  Zn  Zn151  1  0.05909965  0.31465369  0.56450341  1
  Zn  Zn152  1  0.06695709  0.82127040  0.06866305  1
  Zn  Zn153  1  0.06691569  0.81452836  0.55854118  1
  Zn  Zn154  1  0.56234815  0.31521557  0.05712911  1
  Zn  Zn155  1  0.56834374  0.31542930  0.55310347  1
  Zn  Zn156  1  0.55952203  0.80393037  0.06371745  1
  Zn  Zn157  1  0.56479536  0.81325926  0.56521548  1
  O  O158  1  0.11411805  0.11781115  0.13055303  1
  O  O159  1  0.13123811  0.10726910  0.61962805  1
  O  O160  1  0.12991897  0.61834305  0.11361495  1
  O  O161  1  0.12230920  0.61922855  0.62229719  1
  O  O162  1  0.61803723  0.12161932  0.11566216  1
  O  O163  1  0.62029664  0.11267199  0.61534559  1
  O  O164  1  0.62721881  0.61271212  0.11046741  1
  O  O165  1  0.61304618  0.63045376  0.62328797  1
  O  O166  1  0.38306893  0.37059172  0.38923206  1
  O  O167  1  0.36634902  0.38755793  0.88476998  1
  O  O168  1  0.38390905  0.89004102  0.37227172  1
  O  O169  1  0.38524315  0.87921878  0.87195022  1
  O  O170  1  0.87612040  0.37900054  0.37893042  1
  O  O171  1  0.88088408  0.36325570  0.88563589  1
  O  O172  1  0.87642288  0.87526438  0.38144130  1
  O  O173  1  0.88305880  0.88531806  0.88582907  1
  O  O174  1  0.26694172  0.01709604  0.37803619  1
  O  O175  1  0.26386957  -0.00769332  0.86504762  1
  O  O176  1  0.24621316  0.51120806  0.36529718  1
  O  O177  1  0.25235280  0.50642524  0.87295057  1
  O  O178  1  0.75962058  -0.00836102  0.36237533  1
  O  O179  1  0.75589626  -0.00523613  0.85962216  1
  O  O180  1  0.75360335  0.51307704  0.37603058  1
  O  O181  1  0.77263218  0.50508612  0.87811925  1
  O  O182  1  0.23993427  0.50239588  0.13912354  1
  O  O183  1  0.24662693  0.49837939  0.63465425  1
  O  O184  1  0.24839159  0.99555992  0.13603055  1
  O  O185  1  0.24292804  0.99359711  0.63159142  1
  O  O186  1  0.73787778  0.50194168  0.12465244  1
  O  O187  1  0.75690389  0.47825670  0.60649759  1
  O  O188  1  0.74925886  0.99936879  0.13698903  1
  O  O189  1  0.74622130  0.99022635  0.63568640  1
  O  O190  1  0.01187923  0.36989848  0.24442666  1
  O  O191  1  -0.00433698  0.34928732  0.73908336  1
  O  O192  1  -0.00985557  0.86047713  0.26114335  1
  O  O193  1  0.00901342  0.88695980  0.76298680  1
  O  O194  1  0.49626898  0.36329047  0.24767123  1
  O  O195  1  0.52033692  0.43044932  0.75827729  1
  O  O196  1  0.50660575  0.86708173  0.26128875  1
  O  O197  1  0.50654711  0.86447384  0.75198053  1
  O  O198  1  0.49501184  0.13495641  0.24126519  1
  O  O199  1  0.50088054  0.10997538  0.74365033  1
  O  O200  1  0.50195907  0.64202819  0.25505346  1
  O  O201  1  0.50093351  0.62863298  0.73614639  1
  O  O202  1  0.98624810  0.13538225  0.23897320  1
  O  O203  1  1.01025544  0.13694270  0.74507937  1
  O  O204  1  0.99615447  0.63579849  0.24920678  1
  O  O205  1  1.01231023  0.63531281  0.73895998  1
  O  O206  1  0.37049381  0.25560021  0.00522758  1
  O  O207  1  0.37390278  0.26493284  0.51157610  1
  O  O208  1  0.37398318  0.75045110  0.01549396  1
  O  O209  1  0.36338880  0.74571158  0.50640957  1
  O  O210  1  0.87181354  0.25415358  0.00518425  1
  O  O211  1  0.86057856  0.23932945  0.50358148  1
  O  O212  1  0.86346793  0.75460751  0.00417629  1
  O  O213  1  0.86370177  0.75947564  0.50191250  1
  O  O214  1  0.14538614  0.26030191  0.50660098  1
  O  O215  1  0.13764484  0.25027245  1.00566579  1
  O  O216  1  0.13736543  0.74852986  0.48989272  1
  O  O217  1  0.12563124  0.74554320  0.99446207  1
  O  O218  1  0.62935751  0.23540095  0.48969313  1
  O  O219  1  0.63247912  0.24425084  0.99445915  1
  O  O220  1  0.63574081  0.75928245  0.48974146  1
  O  O221  1  0.63481549  0.73972704  1.00316704  1
  O  O222  1  0.49297871  0.24403957  0.12861285  1
  O  O223  1  0.49465940  0.25706247  0.62263921  1
  O  O224  1  0.48468212  0.75639320  0.13766200  1
  O  O225  1  0.49427421  0.74147993  0.62695271  1
  O  O226  1  0.99320516  0.24354231  0.12940389  1
  O  O227  1  0.99452366  0.23796190  0.62944093  1
  O  O228  1  0.99269442  0.75266558  0.13353722  1
  O  O229  1  1.00251421  0.74124800  0.62165331  1
  O  O230  1  -0.00578375  0.25060201  0.35863385  1
  O  O231  1  0.00823688  0.25133626  0.85734490  1
  O  O232  1  0.00353505  0.75052717  0.36533450  1
  O  O233  1  0.01279058  0.76811149  0.88461174  1
  O  O234  1  0.50741897  0.25126562  0.36400398  1
  O  O235  1  0.50887106  0.25875764  0.88564586  1
  O  O236  1  0.50263316  0.75869204  0.36743428  1
  O  O237  1  0.49147025  0.75803769  0.86174139  1
  O  O238  1  0.25957111  0.14019055  0.49214928  1
  O  O239  1  0.25258364  0.13793771  1.00627666  1
  O  O240  1  0.24794322  0.63134384  0.48590805  1
  O  O241  1  0.23606172  0.62470782  0.98936827  1
  O  O242  1  0.73645223  0.13433645  0.49800174  1
  O  O243  1  0.73639336  0.13475043  1.00606939  1
  O  O244  1  0.75382220  0.63645461  0.49273984  1
  O  O245  1  0.73992959  0.63698100  0.99331854  1
  O  O246  1  0.26087331  0.36664785  0.00542947  1
  O  O247  1  0.26308290  0.36853869  0.50431805  1
  O  O248  1  0.24166430  0.87904659  0.02351069  1
  O  O249  1  0.24802131  0.86379056  0.51302705  1
  O  O250  1  0.76248978  0.36702152  0.00571892  1
  O  O251  1  0.74209949  0.34804469  0.50992823  1
  O  O252  1  0.75523483  0.86319584  -0.00405854  1
  O  O253  1  0.75504380  0.86646970  0.50979085  1
  O  O254  1  0.12667778  0.49151050  0.24409946  1
  O  O255  1  0.13752476  0.50284317  0.74620217  1
  O  O256  1  0.10801741  1.01416809  0.28911955  1
  O  O257  1  0.13918070  0.98969076  0.75747507  1
  O  O258  1  0.61897729  0.50632356  0.23392418  1
  O  O259  1  0.66573014  0.49724278  0.75705508  1
  O  O260  1  0.63226373  0.99223403  0.25013331  1
  O  O261  1  0.63635149  0.99238144  0.73984239  1
  O  O262  1  0.38152859  0.01411176  0.25591327  1
  O  O263  1  0.36128329  -0.00462190  0.75086469  1
  O  O264  1  0.36016066  0.49358350  0.24439041  1
  O  O265  1  0.36275988  0.50422944  0.76095362  1
  O  O266  1  0.86738536  0.00378053  0.25435233  1
  O  O267  1  0.86271344  -0.00320234  0.75668932  1
  O  O268  1  0.87534228  0.49937498  0.26768986  1
  O  O269  1  0.85982447  0.48158736  0.73577329  1
  O  O270  1  0.12660642  0.37986266  0.36235159  1
  O  O271  1  0.11933415  0.35648376  0.88134660  1
  O  O272  1  0.11329788  0.85937552  0.37545225  1
  O  O273  1  0.12069732  0.87350840  0.87155758  1
  O  O274  1  0.62170064  0.35863149  0.38409070  1
  O  O275  1  0.62953666  0.36436785  0.88206733  1
  O  O276  1  0.61412207  0.86860186  0.36762882  1
  O  O277  1  0.61121986  0.88290072  0.86018908  1
  O  O278  1  0.38303873  0.13210472  0.13112979  1
  O  O279  1  0.37602745  0.14285812  0.62006952  1
  O  O280  1  0.36365604  0.64215790  0.12863943  1
  O  O281  1  0.38018446  0.63708680  0.62577086  1
  O  O282  1  0.88110537  0.13466794  0.13075476  1
  O  O283  1  0.88122569  0.12854206  0.61412412  1
  O  O284  1  0.87524992  0.63716219  0.11386716  1
  O  O285  1  0.89203542  0.62679950  0.62701687  1
  O  O286  1  0.26305747  0.24867075  0.12201876  1
  O  O287  1  0.26104417  0.25691797  0.61587943  1
  O  O288  1  0.25716420  0.75906772  0.12799116  1
  O  O289  1  0.25448638  0.75362777  0.61887251  1
  O  O290  1  0.76013400  0.24973588  0.11531965  1
  O  O291  1  0.75635034  0.23425782  0.61596664  1
  O  O292  1  0.76071110  0.74701219  0.11889172  1
  O  O293  1  0.75244762  0.75618318  0.62100707  1
  O  O294  1  0.26492296  0.24436007  0.38995567  1
  O  O295  1  0.24012215  0.25418309  0.88295609  1
  O  O296  1  0.24575505  0.74250606  0.37607447  1
  O  O297  1  0.24282774  0.74683871  0.87822433  1
  O  O298  1  0.74458743  0.24993442  0.38181930  1
  O  O299  1  0.74603565  0.25138683  0.88601303  1
  O  O300  1  0.74289994  0.74299858  0.37977419  1
  O  O301  1  0.74678090  0.75339986  0.88522633  1
  O  O302  1  -0.00303359  0.11975208  0.01339947  1
  O  O303  1  0.01381071  0.11875963  0.48215121  1
  O  O304  1  0.00748294  0.61821099  -0.01177152  1
  O  O305  1  0.00411936  0.61654907  0.51354765  1
  O  O306  1  0.51449123  0.13095201  0.01041990  1
  O  O307  1  0.51310251  0.12541347  0.49752184  1
  O  O308  1  0.51348007  0.62429089  -0.00137377  1
  O  O309  1  0.50003526  0.61818699  0.50632260  1
  O  O310  1  0.49272348  0.39203818  0.50388998  1
  O  O311  1  0.48457980  0.38764583  1.00299185  1
  O  O312  1  0.50247655  0.86842206  0.48391276  1
  O  O313  1  0.50702850  0.86476464  0.98195182  1
  O  O314  1  0.98552157  0.39608998  0.55282404  1
  O  O315  1  0.99252275  0.38292011  1.00028878  1
  O  O316  1  0.98714722  0.86320935  0.48805399  1
  O  O317  1  0.99279050  0.88564246  0.99422352  1
  O  O318  1  0.50334548  0.50376310  0.38981399  1
  O  O319  1  0.48277981  0.51372607  0.88963233  1
  O  O320  1  0.49291825  0.99007405  0.37414371  1
  O  O321  1  0.48802692  0.98399201  0.87106441  1
  O  O322  1  0.99466758  0.49588647  0.37606776  1
  O  O323  1  1.00716831  0.49419854  0.88568475  1
  O  O324  1  0.97806116  0.98197962  0.37581445  1
  O  O325  1  0.99157734  0.99745131  0.88238626  1
  O  O326  1  -0.00261235  0.00690731  0.12014791  1
  O  O327  1  0.01846740  -0.00103128  0.62425334  1
  O  O328  1  0.00918999  0.50026891  0.11538305  1
  O  O329  1  0.01673887  0.51576415  0.64117554  1
  O  O330  1  0.50011973  0.01081089  0.13098993  1
  O  O331  1  0.51627770  -0.01253796  0.62318829  1
  O  O332  1  0.50664208  0.50564063  0.11192056  1
  O  O333  1  0.49430593  0.51664717  0.61113449  1
  O  O334  1  0.24072740  0.38602383  0.25238178  1
  O  O335  1  0.25835394  0.38564835  0.74256048  1
  O  O336  1  0.24430770  0.87662445  0.24710051  1
  O  O337  1  0.24337602  0.88048532  0.73797609  1
  O  O338  1  0.74539173  0.38036220  0.24254564  1
  O  O339  1  0.74630969  0.36835743  0.73366458  1
  O  O340  1  0.73655885  0.87930795  0.25359996  1
  O  O341  1  0.74182420  0.87102628  0.74088446  1
  O  O342  1  0.26537367  0.14034299  0.26651605  1
  O  O343  1  0.24842048  0.10924636  0.74826337  1
  O  O344  1  0.24522458  0.61367016  0.26017589  1
  O  O345  1  0.24859068  0.61972129  0.76404211  1
  O  O346  1  0.76190732  0.11633081  0.24472560  1
  O  O347  1  0.74652503  0.11221535  0.74676345  1
  O  O348  1  0.74454009  0.62364942  0.26267789  1
  O  O349  1  0.76591396  0.61803123  0.74920246  1
  O  O350  1  0.38061059  0.11575381  0.37179738  1
  O  O351  1  0.38311580  0.10746641  0.87597992  1
  O  O352  1  0.36143606  0.62820760  0.37401108  1
  O  O353  1  0.36262664  0.61905091  0.87871316  1
  O  O354  1  0.87884818  0.11313873  0.36333201  1
  O  O355  1  0.87744615  0.11431362  0.88173027  1
  O  O356  1  0.86123062  0.63448280  0.37204025  1
  O  O357  1  0.88794397  0.67830995  0.82249783  1
  O  O358  1  0.12915119  0.38825157  0.13258308  1
  O  O359  1  0.14492769  0.38398987  0.62236515  1
  O  O360  1  0.13355723  0.88669789  0.13536283  1
  O  O361  1  0.13188178  0.88462515  0.63053219  1
  O  O362  1  0.62163298  0.39839065  0.10896351  1
  O  O363  1  0.64121296  0.36254862  0.62516891  1
  O  O364  1  0.61382527  0.87555885  0.13692905  1
  O  O365  1  0.63424874  0.88241962  0.63082977  1
  O  O366  1  0.11923132  0.26620606  0.24377989  1
  O  O367  1  0.12932752  0.24796492  0.75629372  1
  O  O368  1  0.10935086  0.74477146  0.25368930  1
  O  O369  1  0.13186357  0.76652116  0.76170936  1
  O  O370  1  0.61794487  0.24054047  0.25646358  1
  O  O371  1  0.61799198  0.25537724  0.76777933  1
  O  O372  1  0.61526426  0.75592334  0.25507265  1
  O  O373  1  0.61445864  0.75753973  0.74152566  1
  O  O374  1  0.38467156  0.24450409  0.24275334  1
  O  O375  1  0.37580385  0.25804576  0.73313894  1
  O  O376  1  0.38586198  0.75085170  0.24745984  1
  O  O377  1  0.38440072  0.74630002  0.74018009  1
  O  O378  1  0.87951399  0.24462215  0.24239296  1
  O  O379  1  0.87977447  0.23565419  0.73891842  1
  O  O380  1  0.88033368  0.75046898  0.23442551  1
  O  O381  1  0.88744274  0.74342805  0.77524779  1
  O  O382  1  0.37309262  0.48796034  0.50141017  1
  O  O383  1  0.37630453  0.49671688  0.99847054  1
  O  O384  1  0.37718836  1.00381387  0.49212904  1
  O  O385  1  0.37066984  0.99835723  0.98851279  1
  O  O386  1  0.87491957  0.50803640  0.47515132  1
  O  O387  1  0.88545300  0.49018697  1.00720964  1
  O  O388  1  0.86083594  0.98426702  0.49195852  1
  O  O389  1  0.87871059  0.99539473  0.99504948  1
  O  O390  1  0.10861756  0.00529880  -0.00825341  1
  O  O391  1  0.12863851  -0.00459619  0.50260895  1
  O  O392  1  0.11768259  0.50677045  0.00657951  1
  O  O393  1  0.12801998  0.50068278  0.51399889  1
  O  O394  1  0.63274059  0.01416404  -0.00321848  1
  O  O395  1  0.63454798  0.00883223  0.50990282  1
  O  O396  1  0.61833009  0.51313991  -0.00286556  1
  O  O397  1  0.61747470  0.49662405  0.50014319  1
  O  O398  1  0.37363577  0.36499622  0.11800673  1
  O  O399  1  0.36784107  0.37315923  0.61643665  1
  O  O400  1  0.35683752  0.86683732  0.13495075  1
  O  O401  1  0.36723374  0.86196525  0.63017468  1
  O  O402  1  0.88091489  0.36261265  0.11800611  1
  O  O403  1  0.85450868  0.34395002  0.62373125  1
  O  O404  1  0.87938682  0.86616283  0.11122435  1
  O  O405  1  0.86906243  0.87109074  0.62189379  1
  O  O406  1  0.14875961  0.13736806  0.37437465  1
  O  O407  1  0.11922401  0.14574476  0.88525927  1
  O  O408  1  0.13247133  0.63649648  0.37511390  1
  O  O409  1  0.12926149  0.63668078  0.88139392  1
  O  O410  1  0.62208931  0.12982538  0.38325304  1
  O  O411  1  0.61865972  0.13561993  0.88889491  1
  O  O412  1  0.63306285  0.63884059  0.37461618  1
  O  O413  1  0.61857289  0.62082073  0.88065478  1
