# generated using pymatgen
data_V79Zn79O256
_symmetry_space_group_name_H-M   'P 1'
_cell_length_a   16.90902509
_cell_length_b   16.89246190
_cell_length_c   16.91010195
_cell_angle_alpha   90.12841565
_cell_angle_beta   90.08076082
_cell_angle_gamma   90.05843619
_symmetry_Int_Tables_number   1
_chemical_formula_structural   V79Zn79O256
_chemical_formula_sum   'V79 Zn79 O256'
_cell_volume   4830.09856098
_cell_formula_units_Z   1
loop_
 _symmetry_equiv_pos_site_id
 _symmetry_equiv_pos_as_xyz
  1  'x, y, z'
loop_
 _atom_site_type_symbol
 _atom_site_label
 _atom_site_symmetry_multiplicity
 _atom_site_fract_x
 _atom_site_fract_y
 _atom_site_fract_z
 _atom_site_occupancy
  V  V0  1  0.37889916  0.62468172  0.24971792  1
  V  V1  1  0.24810969  0.75527003  0.00275420  1
  V  V2  1  0.76517411  0.36539093  0.11170335  1
  V  V3  1  0.24510717  0.50012706  0.24568557  1
  V  V4  1  0.62024877  0.25154977  0.87325612  1
  V  V5  1  0.12162933  0.75006477  0.87656538  1
  V  V6  1  0.88247392  0.12947195  0.23596910  1
  V  V7  1  0.75487808  0.74189021  0.51682417  1
  V  V8  1  0.47889746  0.63260134  0.62649069  1
  V  V9  1  0.62764857  -0.01108856  0.12387938  1
  V  V10  1  0.48803678  0.49302308  -0.00490012  1
  V  V11  1  -0.00806068  0.37707692  0.88031498  1
  V  V12  1  0.75041169  0.24787080  0.49756621  1
  V  V13  1  0.12551922  0.62319197  0.50757845  1
  V  V14  1  0.00035943  0.36577705  0.37293270  1
  V  V15  1  -0.00469571  0.12400068  0.62716126  1
  V  V16  1  0.13253410  0.13181216  0.49759637  1
  V  V17  1  0.37082083  0.75031120  0.12593618  1
  V  V18  1  0.25052272  0.62239353  0.86778268  1
  V  V19  1  0.25891873  0.37772652  0.12376927  1
  V  V20  1  -0.00242926  0.62756748  0.14005350  1
  V  V21  1  0.25900711  0.76436692  0.51033951  1
  V  V22  1  0.11421179  0.75708257  0.37222667  1
  V  V23  1  0.25018877  0.62808235  0.37693665  1
  V  V24  1  0.62155161  0.62193513  -0.00302269  1
  V  V25  1  0.61372041  0.11710675  0.49670500  1
  V  V26  1  0.87011661  0.24537777  0.62848389  1
  V  V27  1  0.12512914  0.37303055  0.24579096  1
  V  V28  1  0.48895171  0.37057587  0.86936606  1
  V  V29  1  -0.01140749  0.50181570  0.00425324  1
  V  V30  1  0.75230768  0.13220336  0.87178987  1
  V  V31  1  0.12444882  0.61713980  0.00531930  1
  V  V32  1  0.87391747  0.00482014  0.87145676  1
  V  V33  1  0.49905037  0.37937657  0.37393885  1
  V  V34  1  0.87615246  -0.00689837  0.37386270  1
  V  V35  1  -0.00536697  0.87443662  0.87923415  1
  V  V36  1  0.25742203  0.11517930  0.86689127  1
  V  V37  1  -0.00670408  0.75079572  0.74280434  1
  V  V38  1  0.27134786  0.11795530  0.34940586  1
  V  V39  1  0.12579602  0.24872076  0.87657488  1
  V  V40  1  0.50615298  0.50972520  0.49578238  1
  V  V41  1  0.11933916  0.00107925  0.12888596  1
  V  V42  1  0.62511469  0.13235543  0.00923154  1
  V  V43  1  0.87649579  0.37396908  0.49812126  1
  V  V44  1  0.48551994  0.75139051  0.75196958  1
  V  V45  1  0.74852233  0.61734477  0.87291901  1
  V  V46  1  -0.00150486  -0.00715742  0.49785891  1
  V  V47  1  0.27180006  0.36808678  0.60098060  1
  V  V48  1  0.62437207  0.49315171  0.12335442  1
  V  V49  1  0.49606710  0.23981381  0.24524433  1
  V  V50  1  0.37802634  0.23687211  0.12481148  1
  V  V51  1  0.00552330  0.49948543  0.50707541  1
  V  V52  1  0.25725546  0.25616377  -0.00357450  1
  V  V53  1  -0.00049784  0.00436906  0.00539089  1
  V  V54  1  -0.00595075  0.24696032  0.75308122  1
  V  V55  1  0.62836994  0.25348432  0.37012828  1
  V  V56  1  0.48883475  0.88319251  0.38116799  1
  V  V57  1  0.61925394  0.75398825  0.87664425  1
  V  V58  1  0.10502500  0.87445250  0.24952785  1
  V  V59  1  0.86499101  0.87625466  0.51691367  1
  V  V60  1  0.49699296  0.00039287  -0.00739003  1
  V  V61  1  0.62101991  0.37943451  0.74946913  1
  V  V62  1  0.63264105  0.74707701  0.39584189  1
  V  V63  1  0.62764273  0.51199040  0.62388163  1
  V  V64  1  0.13369208  -0.00181566  0.63063812  1
  V  V65  1  0.75287140  -0.00685591  0.24293291  1
  V  V66  1  0.87056356  0.74911079  0.14084600  1
  V  V67  1  0.87172272  0.51302572  0.37194313  1
  V  V68  1  0.37791666  0.87881299  -0.01306766  1
  V  V69  1  0.50415674  0.75163959  0.25088705  1
  V  V70  1  0.42940922  0.13360686  0.71650380  1
  V  V71  1  0.63665137  0.87107499  0.74569676  1
  V  V72  1  0.36874349  0.49890395  0.86331625  1
  V  V73  1  0.37821150  0.49661469  0.37822247  1
  V  V74  1  0.12905401  0.38175792  0.74282019  1
  V  V75  1  0.29764281  0.93029760  0.17922331  1
  V  V76  1  0.87072259  0.61947590  0.74493236  1
  V  V77  1  0.74921064  0.37872437  0.63127298  1
  V  V78  1  0.13220849  0.87885468  0.74932846  1
  Zn  Zn79  1  0.74787359  0.75549330  0.00681459  1
  Zn  Zn80  1  0.62769925  -0.00671407  0.61343625  1
  Zn  Zn81  1  0.13557797  0.24867347  0.37474926  1
  Zn  Zn82  1  0.75380337  0.12384321  0.37026854  1
  Zn  Zn83  1  -0.00239098  0.24526252  0.22631312  1
  Zn  Zn84  1  0.49815495  0.62144903  0.12180648  1
  Zn  Zn85  1  0.62984568  0.37266055  0.24482047  1
  Zn  Zn86  1  0.24443261  0.50634068  0.73245191  1
  Zn  Zn87  1  0.76026731  0.50374178  0.24861586  1
  Zn  Zn88  1  0.86104191  0.87486700  0.00998076  1
  Zn  Zn89  1  0.86373714  0.49232456  0.87479651  1
  Zn  Zn90  1  0.63339835  0.86422587  0.24936418  1
  Zn  Zn91  1  0.75702985  -0.00150342  0.74422524  1
  Zn  Zn92  1  0.12278104  0.12990928  0.01048804  1
  Zn  Zn93  1  0.00126044  0.62384034  0.62769066  1
  Zn  Zn94  1  0.18936691  0.18831817  0.18944821  1
  Zn  Zn95  1  0.18898771  0.19293555  0.68676582  1
  Zn  Zn96  1  0.18324263  0.68931617  0.18846134  1
  Zn  Zn97  1  0.18714489  0.69596987  0.68756097  1
  Zn  Zn98  1  0.69688122  0.18746608  0.18730870  1
  Zn  Zn99  1  0.64835670  0.17013532  0.70007366  1
  Zn  Zn100  1  0.69498693  0.67645608  0.19146675  1
  Zn  Zn101  1  0.68929663  0.69262440  0.69108815  1
  Zn  Zn102  1  0.31202307  0.30581266  0.31550267  1
  Zn  Zn103  1  0.31677264  0.29794255  0.79474832  1
  Zn  Zn104  1  0.30956282  0.81278228  0.32207490  1
  Zn  Zn105  1  0.30958738  0.81302472  0.81533699  1
  Zn  Zn106  1  0.81334347  0.31969541  0.30119840  1
  Zn  Zn107  1  0.80700684  0.30972202  0.81355885  1
  Zn  Zn108  1  0.81403257  0.81020253  0.31806531  1
  Zn  Zn109  1  0.81144385  0.80453296  0.82110572  1
  Zn  Zn110  1  0.18833466  0.43556961  0.43626058  1
  Zn  Zn111  1  0.18438469  0.43618500  0.93523456  1
  Zn  Zn112  1  0.18975023  0.94368370  0.43396502  1
  Zn  Zn113  1  0.18286585  0.93636837  0.94017917  1
  Zn  Zn114  1  0.68829546  0.43878794  0.44078235  1
  Zn  Zn115  1  0.68487230  0.43403643  0.94050947  1
  Zn  Zn116  1  0.68716098  0.93079771  0.42743454  1
  Zn  Zn117  1  0.68864067  0.93904073  0.93494936  1
  Zn  Zn118  1  0.30869647  0.06672059  0.05179201  1
  Zn  Zn119  1  0.31187001  0.07523310  0.57491297  1
  Zn  Zn120  1  0.31152740  0.56258446  0.05824755  1
  Zn  Zn121  1  0.30727399  0.55441638  0.56146146  1
  Zn  Zn122  1  0.80921042  0.06308943  0.05668662  1
  Zn  Zn123  1  0.80485643  0.06027148  0.56426428  1
  Zn  Zn124  1  0.81039077  0.56884831  0.06507724  1
  Zn  Zn125  1  0.81516947  0.56048992  0.55966872  1
  Zn  Zn126  1  0.44058316  0.43353131  0.18993191  1
  Zn  Zn127  1  0.43913767  0.43952378  0.68445524  1
  Zn  Zn128  1  0.46233455  0.94704516  0.19065623  1
  Zn  Zn129  1  0.46591047  0.95865717  0.70845908  1
  Zn  Zn130  1  0.93967783  0.44184099  0.18860280  1
  Zn  Zn131  1  0.93780198  0.43569102  0.69071030  1
  Zn  Zn132  1  0.93521179  0.93420684  0.18847752  1
  Zn  Zn133  1  0.94088940  0.93882499  0.69089034  1
  Zn  Zn134  1  0.06145147  0.06106244  0.31327192  1
  Zn  Zn135  1  0.06372894  0.06372219  0.81615384  1
  Zn  Zn136  1  0.06267838  0.55841773  0.32246179  1
  Zn  Zn137  1  0.05892519  0.56355343  0.81688137  1
  Zn  Zn138  1  0.56594955  0.06287650  0.31340793  1
  Zn  Zn139  1  0.56399788  0.06019846  0.81641167  1
  Zn  Zn140  1  0.59550824  0.57933097  0.30346594  1
  Zn  Zn141  1  0.55791262  0.56276949  0.80764983  1
  Zn  Zn142  1  0.43961237  0.18196288  0.42925176  1
  Zn  Zn143  1  0.43873151  0.18504374  0.93889139  1
  Zn  Zn144  1  0.44207060  0.69495790  0.44030142  1
  Zn  Zn145  1  0.43364762  0.68440441  0.93527213  1
  Zn  Zn146  1  0.93796893  0.18035758  0.43560552  1
  Zn  Zn147  1  0.93728836  0.19158206  0.95101475  1
  Zn  Zn148  1  0.93614920  0.69163934  0.44342845  1
  Zn  Zn149  1  0.93090697  0.68781827  0.94108593  1
  Zn  Zn150  1  0.07155625  0.32390605  0.05915886  1
  Zn  Zn151  1  0.06188425  0.31227705  0.56409868  1
  Zn  Zn152  1  0.05644838  0.81033747  0.06681766  1
  Zn  Zn153  1  0.06643201  0.81357123  0.56010449  1
  Zn  Zn154  1  0.55795804  0.31365313  0.05768222  1
  Zn  Zn155  1  0.56661323  0.32125203  0.55237335  1
  Zn  Zn156  1  0.55941971  0.81275108  0.06097020  1
  Zn  Zn157  1  0.53543181  0.84386931  0.58317018  1
  O  O158  1  0.12889539  0.10647545  0.12972916  1
  O  O159  1  0.11499805  0.11824824  0.61994640  1
  O  O160  1  0.11222794  0.63365341  0.11515210  1
  O  O161  1  0.12614093  0.62813515  0.61101699  1
  O  O162  1  0.63226758  0.12330016  0.11132981  1
  O  O163  1  0.62440526  0.13415337  0.59708702  1
  O  O164  1  0.61874928  0.61146388  0.11205996  1
  O  O165  1  0.62829033  0.61305662  0.63145278  1
  O  O166  1  0.38393995  0.38708290  0.36397342  1
  O  O167  1  0.38239748  0.37717372  0.86274219  1
  O  O168  1  0.38816166  0.87726537  0.36573503  1
  O  O169  1  0.37604453  0.87361452  0.88769096  1
  O  O170  1  0.88472440  0.37693654  0.37980619  1
  O  O171  1  0.88649374  0.37294720  0.87112652  1
  O  O172  1  0.87342223  0.88846534  0.38177225  1
  O  O173  1  0.88392432  0.88381376  0.87540640  1
  O  O174  1  0.24370408  0.02343904  0.37911922  1
  O  O175  1  0.23888128  0.01692559  0.88423532  1
  O  O176  1  0.25880961  0.50840898  0.36732655  1
  O  O177  1  0.25476842  0.50623115  0.87648247  1
  O  O178  1  0.75786448  0.00143578  0.36198486  1
  O  O179  1  0.75732188  0.01213938  0.87228146  1
  O  O180  1  0.77021062  0.49246940  0.38386748  1
  O  O181  1  0.74564936  0.51090563  0.87767548  1
  O  O182  1  0.25844991  0.49436686  0.13671435  1
  O  O183  1  0.24969780  0.47700725  0.62196185  1
  O  O184  1  0.24028604  0.99073159  0.11610279  1
  O  O185  1  0.23173855  1.00863725  0.62870375  1
  O  O186  1  0.73306595  0.49822699  0.12134430  1
  O  O187  1  0.74218166  0.48639946  0.61294372  1
  O  O188  1  0.73778555  1.00347264  0.12809773  1
  O  O189  1  0.73638038  1.01138974  0.63541193  1
  O  O190  1  0.00893334  0.37401876  0.25436178  1
  O  O191  1  0.00618179  0.36684778  0.75918546  1
  O  O192  1  0.00679477  0.87045812  0.25700639  1
  O  O193  1  0.00437681  0.86878558  0.75987328  1
  O  O194  1  0.50563024  0.36590089  0.25906837  1
  O  O195  1  0.50894160  0.37816692  0.75729119  1
  O  O196  1  0.50543829  0.86334925  0.25330451  1
  O  O197  1  0.51039979  0.85473430  0.74819901  1
  O  O198  1  0.50494084  0.14112036  0.25256212  1
  O  O199  1  0.53493904  0.13423147  0.73268175  1
  O  O200  1  0.49000168  0.63183061  0.24825470  1
  O  O201  1  0.50166596  0.63393911  0.73474965  1
  O  O202  1  0.98787067  0.12478375  0.25076597  1
  O  O203  1  1.00585003  0.13729254  0.74181099  1
  O  O204  1  1.01015150  0.61624206  0.23781448  1
  O  O205  1  0.99241516  0.63294609  0.75123508  1
  O  O206  1  0.36973293  0.25063706  0.01274332  1
  O  O207  1  0.41489728  0.25584695  0.52128980  1
  O  O208  1  0.37061273  0.75687674  0.00670944  1
  O  O209  1  0.35777974  0.74773901  0.49451210  1
  O  O210  1  0.92490908  0.24980843  0.05319998  1
  O  O211  1  0.87030326  0.25404937  0.50723326  1
  O  O212  1  0.87013393  0.75132690  0.01138045  1
  O  O213  1  0.86677262  0.76714649  0.49542382  1
  O  O214  1  0.11744731  0.23444401  0.50193414  1
  O  O215  1  0.13431929  0.25229209  0.99189890  1
  O  O216  1  0.13259294  0.74414445  0.48890822  1
  O  O217  1  0.13106930  0.74555972  0.99683172  1
  O  O218  1  0.63098598  0.24674561  0.48721065  1
  O  O219  1  0.61835861  0.23796218  0.99329512  1
  O  O220  1  0.64324623  0.76080623  0.49887497  1
  O  O221  1  0.61550367  0.73661547  0.99438021  1
  O  O222  1  0.48934273  0.25704488  0.13312642  1
  O  O223  1  0.46853070  0.25602525  0.57685303  1
  O  O224  1  0.48477000  0.74957507  0.13064348  1
  O  O225  1  0.49778457  0.73981757  0.63410241  1
  O  O226  1  0.99341830  0.24588433  0.10007047  1
  O  O227  1  0.99019433  0.24476328  0.63245559  1
  O  O228  1  0.99036354  0.73446282  0.12465883  1
  O  O229  1  1.00614583  0.74988147  0.63871832  1
  O  O230  1  0.00119138  0.26139677  0.37759118  1
  O  O231  1  0.00309568  0.25495188  0.87288104  1
  O  O232  1  0.01606567  0.74720274  0.38054568  1
  O  O233  1  0.00273777  0.75772569  0.87070371  1
  O  O234  1  0.50606940  0.25864564  0.36402795  1
  O  O235  1  0.50901952  0.25824066  0.88116581  1
  O  O236  1  0.50365789  0.75749387  0.36369247  1
  O  O237  1  0.50637267  0.73477184  0.86043719  1
  O  O238  1  0.23324791  0.12329779  0.50770658  1
  O  O239  1  0.24231548  0.14113726  0.99283934  1
  O  O240  1  0.24346095  0.62587632  0.49064305  1
  O  O241  1  0.24268215  0.63331515  0.99431596  1
  O  O242  1  0.75031447  0.14097515  0.49384632  1
  O  O243  1  0.73278818  0.11872538  0.98749939  1
  O  O244  1  0.76223336  0.64263576  0.50129519  1
  O  O245  1  0.73420601  0.62381679  0.99276289  1
  O  O246  1  0.24329575  0.36681658  0.00992663  1
  O  O247  1  0.25598932  0.37160660  0.49973787  1
  O  O248  1  0.25617434  0.86126986  -0.00602050  1
  O  O249  1  0.24263443  0.86263295  0.49279333  1
  O  O250  1  0.75269158  0.37915092  0.01063707  1
  O  O251  1  0.75372568  0.36413601  0.50854789  1
  O  O252  1  0.74754192  0.87013661  -0.00171230  1
  O  O253  1  0.76191127  0.87288593  0.49978289  1
  O  O254  1  0.13837569  0.49101768  0.25947353  1
  O  O255  1  0.12253857  0.48548958  0.75875706  1
  O  O256  1  0.11721660  0.98426138  0.24549631  1
  O  O257  1  0.11315957  0.99427363  0.73809177  1
  O  O258  1  0.60126851  0.49315498  0.22465049  1
  O  O259  1  0.62118948  0.48909283  0.73948930  1
  O  O260  1  0.63418259  1.00432550  0.23494436  1
  O  O261  1  0.61896374  0.97524003  0.75800363  1
  O  O262  1  0.36251962  -0.01138406  0.22763488  1
  O  O263  1  0.40665468  0.04039423  0.75706899  1
  O  O264  1  0.36964008  0.50865838  0.25653921  1
  O  O265  1  0.36763907  0.49781382  0.75956506  1
  O  O266  1  0.87224154  0.00572697  0.25460782  1
  O  O267  1  0.87897339  0.00308276  0.76673606  1
  O  O268  1  0.87846335  0.50042779  0.26739908  1
  O  O269  1  0.88373003  0.51428975  0.75707326  1
  O  O270  1  0.11964439  0.37070258  0.36501075  1
  O  O271  1  0.11313690  0.36564126  0.87052345  1
  O  O272  1  0.12837768  0.86506160  0.36559243  1
  O  O273  1  0.11347972  0.87166275  0.86923844  1
  O  O274  1  0.61908230  0.36877460  0.37262779  1
  O  O275  1  0.61731579  0.37077602  0.86829911  1
  O  O276  1  0.61635981  0.85930613  0.36812456  1
  O  O277  1  0.62228725  0.85789714  0.87439879  1
  O  O278  1  0.37259178  0.13817159  0.12220273  1
  O  O279  1  0.40134530  0.12094042  0.61856133  1
  O  O280  1  0.37490594  0.63131225  0.13284155  1
  O  O281  1  0.38064810  0.62026798  0.62684193  1
  O  O282  1  0.87303441  0.11672817  0.13676296  1
  O  O283  1  0.88282869  0.13532071  0.61865839  1
  O  O284  1  0.88852715  0.62929742  0.12726714  1
  O  O285  1  0.87676488  0.61995016  0.64109870  1
  O  O286  1  0.26095938  0.25542400  0.11927112  1
  O  O287  1  0.24549615  0.27237863  0.63017835  1
  O  O288  1  0.25978281  0.74257717  0.11577979  1
  O  O289  1  0.24581113  0.75239346  0.61029628  1
  O  O290  1  0.74895696  0.26619094  0.12562651  1
  O  O291  1  0.75756441  0.25816814  0.61688270  1
  O  O292  1  0.76458861  0.73405000  0.12529824  1
  O  O293  1  0.75426488  0.74896961  0.61603493  1
  O  O294  1  0.24964663  0.22712914  0.36863587  1
  O  O295  1  0.24331679  0.25041392  0.88102643  1
  O  O296  1  0.24242254  0.73954314  0.38126344  1
  O  O297  1  0.24398575  0.74108144  0.88314713  1
  O  O298  1  0.74312434  0.25784185  0.37990461  1
  O  O299  1  0.73972928  0.24112741  0.87817165  1
  O  O300  1  0.73514204  0.75128974  0.37836022  1
  O  O301  1  0.73571792  0.73412802  0.87917904  1
  O  O302  1  0.00633421  0.10807819  -0.00730755  1
  O  O303  1  0.00568431  0.11642209  0.51090772  1
  O  O304  1  0.00698455  0.61526484  0.00005377  1
  O  O305  1  0.00763442  0.61877131  0.50352418  1
  O  O306  1  0.51296091  0.11408014  -0.00272796  1
  O  O307  1  0.51533969  0.11613320  0.48198807  1
  O  O308  1  0.50405774  0.61306948  -0.00289011  1
  O  O309  1  0.49631566  0.62185824  0.51516926  1
  O  O310  1  0.50422811  0.39200763  0.48287342  1
  O  O311  1  0.50277584  0.38362208  0.98282020  1
  O  O312  1  0.49832991  0.85912721  0.47879760  1
  O  O313  1  0.49067075  0.88901355  1.00925530  1
  O  O314  1  0.99852963  0.38002805  0.49299206  1
  O  O315  1  1.00710378  0.39387207  0.99446042  1
  O  O316  1  0.98785536  0.88552364  0.50826191  1
  O  O317  1  1.00049955  0.88137584  0.98925926  1
  O  O318  1  0.49710305  0.49926507  0.37722745  1
  O  O319  1  0.48864918  0.49320000  0.87532083  1
  O  O320  1  0.51021723  0.98194608  0.36567363  1
  O  O321  1  0.50686553  0.99752598  0.89382528  1
  O  O322  1  0.99184032  0.48839983  0.38370768  1
  O  O323  1  0.99671097  0.49327536  0.88653357  1
  O  O324  1  0.99232059  1.00415098  0.38983396  1
  O  O325  1  0.99468229  0.99388768  0.88177909  1
  O  O326  1  0.00565103  -0.00875717  0.11575161  1
  O  O327  1  0.00102992  0.01019922  0.61938917  1
  O  O328  1  -0.00287388  0.51179438  0.11218269  1
  O  O329  1  -0.00337301  0.49800622  0.61075415  1
  O  O330  1  0.52116036  0.00812613  0.11761042  1
  O  O331  1  0.52141669  -0.04200189  0.61186000  1
  O  O332  1  0.50102066  0.49533872  0.10989997  1
  O  O333  1  0.50573229  0.51283844  0.61756085  1
  O  O334  1  0.24527657  0.38086104  0.24629067  1
  O  O335  1  0.23359890  0.37327472  0.75518541  1
  O  O336  1  0.24411536  0.87379714  0.24591721  1
  O  O337  1  0.23172926  0.87196517  0.75789155  1
  O  O338  1  0.74536257  0.38632437  0.23499481  1
  O  O339  1  0.74213764  0.37241240  0.73856271  1
  O  O340  1  0.75072929  0.88855316  0.25164746  1
  O  O341  1  0.73989066  0.87478281  0.76483648  1
  O  O342  1  0.25464456  0.11772575  0.24927476  1
  O  O343  1  0.24231595  0.13073076  0.76672279  1
  O  O344  1  0.25572106  0.62012501  0.25618446  1
  O  O345  1  0.23511673  0.62240684  0.76301230  1
  O  O346  1  0.76299512  0.11461342  0.25002935  1
  O  O347  1  0.73558489  0.12490445  0.76897287  1
  O  O348  1  0.70681261  0.59937332  0.26917380  1
  O  O349  1  0.76350061  0.62946339  0.75675858  1
  O  O350  1  0.37142678  0.12126823  0.36749595  1
  O  O351  1  0.35638054  0.12770039  0.88640949  1
  O  O352  1  0.36891403  0.62084632  0.36582751  1
  O  O353  1  0.36019976  0.61568420  0.87760602  1
  O  O354  1  0.87396845  0.11152155  0.36817094  1
  O  O355  1  0.85998965  0.12591921  0.88766224  1
  O  O356  1  0.88279612  0.61185644  0.38147944  1
  O  O357  1  0.86394286  0.62273364  0.86913236  1
  O  O358  1  0.13994613  0.37321087  0.13749163  1
  O  O359  1  0.11921850  0.37318548  0.64189205  1
  O  O360  1  0.11877494  0.87737782  0.14125226  1
  O  O361  1  0.11848058  0.89042514  0.63230161  1
  O  O362  1  0.62908760  0.38490283  0.11613033  1
  O  O363  1  0.62915799  0.37924361  0.63048418  1
  O  O364  1  0.62379643  0.88558668  0.12709879  1
  O  O365  1  0.63669846  0.85759268  0.64555389  1
  O  O366  1  0.11641471  0.25823016  0.24775543  1
  O  O367  1  0.11298075  0.25977094  0.75870609  1
  O  O368  1  0.12869555  0.75967789  0.26223007  1
  O  O369  1  0.11478286  0.75839178  0.75729459  1
  O  O370  1  0.61757481  0.25037470  0.25464729  1
  O  O371  1  0.62831585  0.26581413  0.76285103  1
  O  O372  1  0.61184999  0.74437974  0.24506787  1
  O  O373  1  0.62117152  0.75377587  0.76093602  1
  O  O374  1  0.38690515  0.25205974  0.23910655  1
  O  O375  1  0.38755742  0.21994035  0.75309488  1
  O  O376  1  0.37815556  0.74190514  0.24436907  1
  O  O377  1  0.38616413  0.75496567  0.75466114  1
  O  O378  1  0.87729429  0.23460940  0.25171062  1
  O  O379  1  0.88269936  0.25521162  0.74096366  1
  O  O380  1  0.87123032  0.74818497  0.24176121  1
  O  O381  1  0.88475760  0.73756457  0.75905153  1
  O  O382  1  0.38678086  0.50936245  0.48448878  1
  O  O383  1  0.38100575  0.50152386  0.98701559  1
  O  O384  1  0.36443929  0.95865414  0.53980283  1
  O  O385  1  0.38872640  0.99488446  1.00886956  1
  O  O386  1  0.88599669  0.49330485  0.49292744  1
  O  O387  1  0.88621442  0.50813103  0.99619566  1
  O  O388  1  0.87711706  0.99281064  0.49549390  1
  O  O389  1  0.88202197  0.99699891  0.99106781  1
  O  O390  1  0.11559374  -0.00438746  0.01267802  1
  O  O391  1  0.11594019  0.00556559  0.51265047  1
  O  O392  1  0.11869766  0.51191304  -0.00299249  1
  O  O393  1  0.11595902  0.51161128  0.48594615  1
  O  O394  1  0.61827546  0.00585510  0.00813487  1
  O  O395  1  0.64149740  0.01700459  0.48994155  1
  O  O396  1  0.61104712  0.50457727  0.00330937  1
  O  O397  1  0.61541128  0.49911179  0.50837838  1
  O  O398  1  0.36310598  0.36722676  0.13145867  1
  O  O399  1  0.37113219  0.37442031  0.62211086  1
  O  O400  1  0.36574169  0.86830371  0.12153666  1
  O  O401  1  0.36537900  0.91297053  0.59783439  1
  O  O402  1  0.86368458  0.38461902  0.12733685  1
  O  O403  1  0.86866692  0.36757153  0.62083664  1
  O  O404  1  0.88297082  0.85486912  0.12596626  1
  O  O405  1  0.87154458  0.88328652  0.61637175  1
  O  O406  1  0.12062413  0.12525581  0.39126453  1
  O  O407  1  0.12874946  0.13932800  0.87755726  1
  O  O408  1  0.13304743  0.63514500  0.37938913  1
  O  O409  1  0.13012661  0.63063074  0.88579604  1
  O  O410  1  0.63209038  0.13892798  0.37793798  1
  O  O411  1  0.63044202  0.13372132  0.88375700  1
  O  O412  1  0.60441497  0.64929948  0.39139400  1
  O  O413  1  0.62729618  0.62650365  0.87942646  1
