# generated using pymatgen
data_V79Zn79O256
_symmetry_space_group_name_H-M   'P 1'
_cell_length_a   16.91013836
_cell_length_b   16.89694483
_cell_length_c   16.87827297
_cell_angle_alpha   90.16026395
_cell_angle_beta   89.88161719
_cell_angle_gamma   90.02952202
_symmetry_Int_Tables_number   1
_chemical_formula_structural   V79Zn79O256
_chemical_formula_sum   'V79 Zn79 O256'
_cell_volume   4822.59366376
_cell_formula_units_Z   1
loop_
 _symmetry_equiv_pos_site_id
 _symmetry_equiv_pos_as_xyz
  1  'x, y, z'
loop_
 _atom_site_type_symbol
 _atom_site_label
 _atom_site_symmetry_multiplicity
 _atom_site_fract_x
 _atom_site_fract_y
 _atom_site_fract_z
 _atom_site_occupancy
  V  V0  1  0.87951587  0.48076504  0.87929032  1
  V  V1  1  0.86488739  -0.00248822  0.87957330  1
  V  V2  1  -0.00092845  0.48831309  0.00906610  1
  V  V3  1  0.24751613  0.74681442  0.50994395  1
  V  V4  1  0.00411486  0.74366159  0.75033218  1
  V  V5  1  0.37335458  -0.00068626  0.86419278  1
  V  V6  1  0.11244790  0.25030098  0.87574596  1
  V  V7  1  0.88460052  0.50353710  0.37770434  1
  V  V8  1  0.25090567  0.11628790  0.37407654  1
  V  V9  1  0.50158980  0.87218423  0.86638485  1
  V  V10  1  0.47902473  0.73719144  0.75036944  1
  V  V11  1  0.87754852  0.62971062  0.24281288  1
  V  V12  1  0.63033436  0.12068997  0.48971810  1
  V  V13  1  0.50089660  0.50360174  0.01073006  1
  V  V14  1  0.11716931  0.75731040  0.38326652  1
  V  V15  1  0.87378281  0.25837084  0.12682521  1
  V  V16  1  0.63037752  0.26285574  0.36877666  1
  V  V17  1  0.37871158  0.25373967  0.62350797  1
  V  V18  1  -0.00325077  0.87365862  0.88392444  1
  V  V19  1  0.12848170  0.74679929  0.88074329  1
  V  V20  1  0.48194942  0.61857749  0.62109931  1
  V  V21  1  0.74613289  0.62748472  0.38116142  1
  V  V22  1  0.37479523  0.12068946  0.74638891  1
  V  V23  1  0.75049100  0.49255623  0.24884428  1
  V  V24  1  0.74642835  0.00446410  0.26098468  1
  V  V25  1  0.89169655  0.00095370  0.37388812  1
  V  V26  1  0.62884452  0.74298331  0.86304725  1
  V  V27  1  0.50636728  0.26054465  0.25057288  1
  V  V28  1  0.37862465  0.12512968  0.25208634  1
  V  V29  1  0.00424147  0.37021528  0.37103793  1
  V  V30  1  0.12146449  0.39144849  0.24697304  1
  V  V31  1  0.36148739  0.88015088  0.00381394  1
  V  V32  1  0.62598550  0.50935566  0.61844546  1
  V  V33  1  0.87672258  0.75024517  0.62395491  1
  V  V34  1  0.61120628  0.75443160  0.37400788  1
  V  V35  1  0.24949263  0.24725423  0.50079701  1
  V  V36  1  0.25214114  -0.00832888  0.24148542  1
  V  V37  1  0.12054896  0.50128036  0.60969040  1
  V  V38  1  0.75590616  0.86736335  0.12089601  1
  V  V39  1  0.12510187  0.89059931  0.74840698  1
  V  V40  1  0.74756858  0.75149255  0.50099782  1
  V  V41  1  -0.00022061  0.12606275  0.13335506  1
  V  V42  1  0.25041097  0.12673202  0.87175646  1
  V  V43  1  0.00349825  0.01077013  -0.00213623  1
  V  V44  1  0.88174185  0.11692396  0.74416659  1
  V  V45  1  0.63181251  0.48912179  0.12990551  1
  V  V46  1  0.12088918  0.24331943  0.36226595  1
  V  V47  1  0.87146571  0.62442116  0.75952583  1
  V  V48  1  0.25239637  0.24925751  -0.00305513  1
  V  V49  1  0.37356160  0.25619751  0.12369492  1
  V  V50  1  0.62868192  0.63468155  0.01267718  1
  V  V51  1  0.63108972  0.12343317  -0.00089031  1
  V  V52  1  0.29652684  0.70580236  0.04415999  1
  V  V53  1  0.89416086  0.24988815  0.63155967  1
  V  V54  1  0.11600608  0.62052465  0.01402007  1
  V  V55  1  0.25145131  0.62308781  0.37543631  1
  V  V56  1  0.50759366  0.12490153  0.62157049  1
  V  V57  1  -0.00403620  0.75195129  0.24765191  1
  V  V58  1  0.39049799  -0.01602164  0.38021800  1
  V  V59  1  0.26324347  0.38673473  0.60955064  1
  V  V60  1  0.75339688  0.88202995  0.63602704  1
  V  V61  1  0.75505386  0.26626514  0.00080309  1
  V  V62  1  0.49967371  0.37749287  0.87930182  1
  V  V63  1  0.11757713  0.37261459  0.75421273  1
  V  V64  1  0.62598017  -0.00102854  0.12448952  1
  V  V65  1  0.37570510  0.49856719  0.87889608  1
  V  V66  1  0.00463606  -0.00334311  0.52016353  1
  V  V67  1  0.75393083  0.37842902  0.62833391  1
  V  V68  1  0.00360057  0.62130191  0.61040945  1
  V  V69  1  0.23987199  0.37978306  0.12616143  1
  V  V70  1  0.63966946  0.00659257  0.64427939  1
  V  V71  1  0.62657202  0.37600614  0.75204804  1
  V  V72  1  0.12021386  0.12010357  0.51439467  1
  V  V73  1  0.25188270  0.62545924  0.87320182  1
  V  V74  1  0.88702464  0.37978268  0.50085320  1
  V  V75  1  0.24864785  0.89268437  0.62703530  1
  V  V76  1  0.75467143  0.24863596  0.49419045  1
  V  V77  1  0.25250558  0.49962367  0.75361800  1
  V  V78  1  0.11699537  0.88182959  0.24424357  1
  Zn  Zn79  1  0.62726535  0.25087296  0.87712179  1
  Zn  Zn80  1  0.13680509  0.00193261  0.10837434  1
  Zn  Zn81  1  0.88562422  0.75191052  0.11158016  1
  Zn  Zn82  1  0.50189631  0.25178208  0.75390027  1
  Zn  Zn83  1  0.76525319  0.74832026  -0.01368755  1
  Zn  Zn84  1  0.74570330  0.12278899  0.86635893  1
  Zn  Zn85  1  0.88088757  0.87483958  0.49658058  1
  Zn  Zn86  1  0.42935659  0.42987545  0.45027759  1
  Zn  Zn87  1  0.74688757  0.50959853  0.76413779  1
  Zn  Zn88  1  0.61815755  0.87048822  0.25306965  1
  Zn  Zn89  1  0.50069540  -0.00094215  -0.00225613  1
  Zn  Zn90  1  0.87161156  0.13143703  0.25896765  1
  Zn  Zn91  1  0.56403831  0.56672545  0.44515529  1
  Zn  Zn92  1  0.41011776  0.79868487  0.57614459  1
  Zn  Zn93  1  0.50149276  0.12712516  0.12196201  1
  Zn  Zn94  1  0.18833605  0.17838506  0.18038046  1
  Zn  Zn95  1  0.19082474  0.19225254  0.69087584  1
  Zn  Zn96  1  0.18255671  0.69803406  0.18935346  1
  Zn  Zn97  1  0.18510799  0.68267681  0.69063081  1
  Zn  Zn98  1  0.69126992  0.18929416  0.18482676  1
  Zn  Zn99  1  0.69769951  0.19139985  0.68716511  1
  Zn  Zn100  1  0.68510635  0.68200213  0.19424703  1
  Zn  Zn101  1  0.68810137  0.68930468  0.68460215  1
  Zn  Zn102  1  0.30243439  0.30261907  0.31095845  1
  Zn  Zn103  1  0.31244431  0.31605078  0.80691585  1
  Zn  Zn104  1  0.30458505  0.81088967  0.31535398  1
  Zn  Zn105  1  0.30840136  0.81645273  0.80973016  1
  Zn  Zn106  1  0.81815587  0.31183338  0.31162057  1
  Zn  Zn107  1  0.81318462  0.30833018  0.81232518  1
  Zn  Zn108  1  0.80929418  0.82032942  0.31210712  1
  Zn  Zn109  1  0.81477379  0.81139554  0.81256606  1
  Zn  Zn110  1  0.26456458  0.43970203  0.42278360  1
  Zn  Zn111  1  0.18317673  0.43569584  0.94192792  1
  Zn  Zn112  1  0.18888086  0.93417296  0.43838991  1
  Zn  Zn113  1  0.18552323  0.94256871  0.92716444  1
  Zn  Zn114  1  0.69930760  0.43642279  0.44019699  1
  Zn  Zn115  1  0.68940532  0.44553655  0.93862234  1
  Zn  Zn116  1  0.68770237  0.93235920  0.44046940  1
  Zn  Zn117  1  0.68422166  0.92861723  0.93900286  1
  Zn  Zn118  1  0.31649254  0.06643173  0.05731399  1
  Zn  Zn119  1  0.31957054  0.06275744  0.55730998  1
  Zn  Zn120  1  0.33652779  0.53737079  0.09166105  1
  Zn  Zn121  1  0.30415961  0.56545455  0.55329864  1
  Zn  Zn122  1  0.81296714  0.06277137  0.06483508  1
  Zn  Zn123  1  0.81729993  0.06706421  0.55930435  1
  Zn  Zn124  1  0.81277081  0.56263642  0.05699489  1
  Zn  Zn125  1  0.81652537  0.56517117  0.56547923  1
  Zn  Zn126  1  0.39217957  0.42081246  0.25190723  1
  Zn  Zn127  1  0.43984900  0.44275911  0.69174328  1
  Zn  Zn128  1  0.43610876  0.93784868  0.18565525  1
  Zn  Zn129  1  0.45281767  0.92861614  0.66907535  1
  Zn  Zn130  1  0.93802815  0.44002051  0.18970546  1
  Zn  Zn131  1  0.93960374  0.44117739  0.69141513  1
  Zn  Zn132  1  0.93513319  0.93937016  0.18675848  1
  Zn  Zn133  1  0.93720587  0.93355849  0.69264704  1
  Zn  Zn134  1  0.06457671  0.06340488  0.31222036  1
  Zn  Zn135  1  0.05692318  0.07109088  0.81391117  1
  Zn  Zn136  1  0.06461582  0.56921941  0.31609768  1
  Zn  Zn137  1  0.06138471  0.55830724  0.81814780  1
  Zn  Zn138  1  0.56295760  0.06984071  0.31237529  1
  Zn  Zn139  1  0.55937242  0.06533973  0.81336015  1
  Zn  Zn140  1  0.56103234  0.44189182  0.31121664  1
  Zn  Zn141  1  0.56388636  0.56430469  0.81232792  1
  Zn  Zn142  1  0.46124326  0.23423940  0.45760554  1
  Zn  Zn143  1  0.43989554  0.18897032  0.93947216  1
  Zn  Zn144  1  0.42866377  0.68171814  0.43177661  1
  Zn  Zn145  1  0.44265491  0.68548354  0.93994135  1
  Zn  Zn146  1  0.93917434  0.18404993  0.43977871  1
  Zn  Zn147  1  0.92992679  0.18631366  0.93721431  1
  Zn  Zn148  1  0.93554194  0.69223649  0.43339417  1
  Zn  Zn149  1  0.94133334  0.68161928  0.94070710  1
  Zn  Zn150  1  0.06141977  0.30536355  0.05952091  1
  Zn  Zn151  1  0.07365681  0.31692371  0.55750343  1
  Zn  Zn152  1  0.06645404  0.81434579  0.06393613  1
  Zn  Zn153  1  0.06348037  0.81608887  0.56756453  1
  Zn  Zn154  1  0.56429347  0.31254788  0.06279425  1
  Zn  Zn155  1  0.56814134  0.32042352  0.56177827  1
  Zn  Zn156  1  0.55599408  0.82052889  0.06165767  1
  Zn  Zn157  1  0.57576281  0.83008612  0.55343294  1
  O  O158  1  0.10650619  0.11868908  0.12600521  1
  O  O159  1  0.13250017  0.13034837  0.61290763  1
  O  O160  1  0.13154222  0.62827383  0.11282009  1
  O  O161  1  0.11722975  0.60928974  0.63125772  1
  O  O162  1  0.62743626  0.11577136  0.11670987  1
  O  O163  1  0.62827063  0.12212735  0.62004083  1
  O  O164  1  0.62092098  0.62216681  0.11674191  1
  O  O165  1  0.62089036  0.61321606  0.63012051  1
  O  O166  1  0.35230889  0.39486577  0.35694390  1
  O  O167  1  0.38539969  0.38597369  0.87166157  1
  O  O168  1  0.37495888  0.88441898  0.36513023  1
  O  O169  1  0.37824750  0.88507112  0.87375155  1
  O  O170  1  0.88549793  0.38091301  0.38073734  1
  O  O171  1  0.88222084  0.38166057  0.86959133  1
  O  O172  1  0.86609385  0.89640984  0.38103099  1
  O  O173  1  0.88643293  0.88824958  0.86254243  1
  O  O174  1  0.25595198  0.00382829  0.36582770  1
  O  O175  1  0.26052143  0.01441129  0.87344173  1
  O  O176  1  0.22084124  0.52728386  0.36725942  1
  O  O177  1  0.25612634  0.50256592  0.87466075  1
  O  O178  1  0.74627283  -0.00004572  0.36305111  1
  O  O179  1  0.76297914  -0.00762916  0.88008065  1
  O  O180  1  0.76024131  0.50849337  0.37073630  1
  O  O181  1  0.77106821  0.49788663  0.87846215  1
  O  O182  1  0.24506630  0.47956121  0.12182023  1
  O  O183  1  0.23656104  0.50025547  0.63589789  1
  O  O184  1  0.24941509  1.01363157  0.13587297  1
  O  O185  1  0.25174731  0.99182000  0.62060070  1
  O  O186  1  0.73899479  0.50911882  0.13275655  1
  O  O187  1  0.74766493  0.48975005  0.62527948  1
  O  O188  1  0.74440592  0.99014380  0.13028588  1
  O  O189  1  0.74719911  0.99955613  0.62190233  1
  O  O190  1  0.00965332  0.37552690  0.25794612  1
  O  O191  1  0.01916562  0.37693612  0.74506303  1
  O  O192  1  0.01032106  0.87522293  0.25164184  1
  O  O193  1  0.00992534  0.86495423  0.75645115  1
  O  O194  1  0.49556404  0.36588216  0.24867637  1
  O  O195  1  0.51015839  0.37704518  0.75924798  1
  O  O196  1  0.50039423  0.84529832  0.22037710  1
  O  O197  1  0.49234987  0.85538109  0.75729627  1
  O  O198  1  0.49210534  0.13640903  0.24541156  1
  O  O199  1  0.49250796  0.13199922  0.74333112  1
  O  O200  1  0.43449414  0.58177420  0.23561917  1
  O  O201  1  0.49770278  0.63063452  0.74372468  1
  O  O202  1  0.99414746  0.11588707  0.23682488  1
  O  O203  1  0.98158892  0.13188144  0.75556308  1
  O  O204  1  0.98893350  0.63758922  0.25696747  1
  O  O205  1  0.99579702  0.63198283  0.74567432  1
  O  O206  1  0.36855371  0.24905257  0.01304741  1
  O  O207  1  0.35858055  0.23364438  0.51157397  1
  O  O208  1  0.36664225  0.76474735  -0.01294435  1
  O  O209  1  0.35270941  0.74726373  0.49559262  1
  O  O210  1  0.86264134  0.24641624  0.00754377  1
  O  O211  1  0.87360872  0.25688314  0.50870180  1
  O  O212  1  0.87623469  0.74814911  -0.00021127  1
  O  O213  1  0.86859259  0.75453840  0.50596702  1
  O  O214  1  0.12954565  0.23468700  0.49094491  1
  O  O215  1  0.13557784  0.25265290  0.98261757  1
  O  O216  1  0.12526399  0.75778613  0.48887696  1
  O  O217  1  0.11429721  0.73889962  0.98886221  1
  O  O218  1  0.63838934  0.24940771  0.49123782  1
  O  O219  1  0.63902344  0.24282590  1.00415579  1
  O  O220  1  0.63778067  0.75668937  0.49382641  1
  O  O221  1  0.61324175  0.73947836  0.99735162  1
  O  O222  1  0.49123885  0.25266544  0.13079557  1
  O  O223  1  0.49447829  0.24210490  0.62886826  1
  O  O224  1  0.49857163  0.78791777  0.16129637  1
  O  O225  1  0.49230939  0.73323923  0.63974966  1
  O  O226  1  0.98859513  0.23344503  0.11355418  1
  O  O227  1  0.99221490  0.25723517  0.61752952  1
  O  O228  1  0.99992510  0.75833044  0.14179380  1
  O  O229  1  0.99935142  0.74239010  0.63320709  1
  O  O230  1  0.00776339  0.25835113  0.37926851  1
  O  O231  1  0.01407058  0.24454253  0.88164682  1
  O  O232  1  0.01013528  0.75374910  0.36829117  1
  O  O233  1  0.00707988  0.75525496  0.86769248  1
  O  O234  1  0.51701078  0.24628520  0.36004026  1
  O  O235  1  0.50332215  0.26416988  0.87657322  1
  O  O236  1  0.51272831  0.74069986  0.38502624  1
  O  O237  1  0.50430992  0.74972480  0.86422349  1
  O  O238  1  0.23889037  0.12574543  0.49291048  1
  O  O239  1  0.25481164  0.13588145  0.98576917  1
  O  O240  1  0.23737755  0.63888788  0.49207837  1
  O  O241  1  0.23606879  0.63183337  0.99113280  1
  O  O242  1  0.74138507  0.13882268  0.50721993  1
  O  O243  1  0.74043524  0.12535547  0.99589577  1
  O  O244  1  0.76054217  0.63768702  0.49398709  1
  O  O245  1  0.73345161  0.63277478  1.00449131  1
  O  O246  1  0.24098233  0.36331516  0.01552316  1
  O  O247  1  0.23093414  0.35414311  0.50257701  1
  O  O248  1  0.26150716  0.88388900  -0.01164247  1
  O  O249  1  0.23943060  0.86617367  0.51964978  1
  O  O250  1  0.74714809  0.36491000  0.00072834  1
  O  O251  1  0.76635963  0.36807192  0.50735372  1
  O  O252  1  0.74363067  0.86627326  0.01582651  1
  O  O253  1  0.75473776  0.86807878  0.51133805  1
  O  O254  1  0.11965770  0.49008930  0.24756121  1
  O  O255  1  0.13510219  0.48659046  0.75777525  1
  O  O256  1  0.13274808  0.99077968  0.25266991  1
  O  O257  1  0.11705337  0.98893785  0.75886356  1
  O  O258  1  0.63202158  0.50069676  0.23789744  1
  O  O259  1  0.63002787  0.49240111  0.74351216  1
  O  O260  1  0.63283046  1.00075699  0.24439289  1
  O  O261  1  0.63834926  1.01293131  0.74334677  1
  O  O262  1  0.36975795  0.00583190  0.25390478  1
  O  O263  1  0.38517017  0.00985426  0.75355699  1
  O  O264  1  0.38047158  0.53257431  0.21331744  1
  O  O265  1  0.36271040  0.49803409  0.76250434  1
  O  O266  1  0.86568843  -0.00071186  0.26200125  1
  O  O267  1  0.87898546  0.01039339  0.75776289  1
  O  O268  1  0.87158128  0.50987483  0.25789184  1
  O  O269  1  0.87768285  0.50680608  0.76280848  1
  O  O270  1  0.11969287  0.36439733  0.35869954  1
  O  O271  1  0.13257509  0.36344570  0.86410795  1
  O  O272  1  0.13087795  0.86512902  0.36313198  1
  O  O273  1  0.11793974  0.86683521  0.86576974  1
  O  O274  1  0.63242849  0.36815828  0.37317255  1
  O  O275  1  0.62008089  0.38048118  0.86650154  1
  O  O276  1  0.62223884  0.86118362  0.37639232  1
  O  O277  1  0.61027751  0.85863755  0.88252645  1
  O  O278  1  0.37482302  0.13561485  0.13516288  1
  O  O279  1  0.38534820  0.12926123  0.62842449  1
  O  O280  1  0.35798415  0.64746074  0.09696851  1
  O  O281  1  0.38255752  0.61186054  0.62498067  1
  O  O282  1  0.88607995  0.12838538  0.12602810  1
  O  O283  1  0.87587408  0.13923801  0.63235670  1
  O  O284  1  0.86308650  0.63175852  0.14035124  1
  O  O285  1  0.88686108  0.62900397  0.63410917  1
  O  O286  1  0.25366440  0.24938151  0.11577702  1
  O  O287  1  0.25793395  0.26122801  0.61854132  1
  O  O288  1  0.24069203  0.75817796  0.10789135  1
  O  O289  1  0.23785555  0.74762884  0.61352312  1
  O  O290  1  0.76232539  0.24592732  0.11280884  1
  O  O291  1  0.75945261  0.26442324  0.61540383  1
  O  O292  1  0.74584932  0.76431714  0.13533012  1
  O  O293  1  0.75453243  0.75856643  0.61880318  1
  O  O294  1  0.24152148  0.23589318  0.38187112  1
  O  O295  1  0.25498745  0.24591085  0.88136977  1
  O  O296  1  0.23683852  0.74974532  0.39165603  1
  O  O297  1  0.23809416  0.74093999  0.86750462  1
  O  O298  1  0.74843550  0.25565484  0.38448178  1
  O  O299  1  0.75102760  0.24836888  0.88990948  1
  O  O300  1  0.74994100  0.74543589  0.38433515  1
  O  O301  1  0.73230832  0.75962341  0.87343212  1
  O  O302  1  -0.00227198  0.11359229  0.00179989  1
  O  O303  1  0.01417848  0.11618540  0.49969856  1
  O  O304  1  0.01243927  0.61740037  0.00262349  1
  O  O305  1  -0.00404029  0.62981722  0.51115171  1
  O  O306  1  0.51390742  0.12423874  0.00135206  1
  O  O307  1  0.52176156  0.14004534  0.51051187  1
  O  O308  1  0.51179747  0.61126017  -0.00432850  1
  O  O309  1  0.49573162  0.62993845  0.51697415  1
  O  O310  1  0.48129723  0.34157295  0.49758847  1
  O  O311  1  0.51522546  0.39060745  0.98851935  1
  O  O312  1  0.48146846  0.88304721  0.56280538  1
  O  O313  1  0.48470972  0.87427927  0.98406114  1
  O  O314  1  0.99491522  0.37359919  0.48917652  1
  O  O315  1  1.01250182  0.38912558  0.99937636  1
  O  O316  1  1.00260881  0.89230255  0.50572893  1
  O  O317  1  1.00365729  0.88207370  0.98856279  1
  O  O318  1  0.49725843  0.49765129  0.38568440  1
  O  O319  1  0.49381961  0.49660702  0.87987122  1
  O  O320  1  0.48954485  0.99887942  0.36267517  1
  O  O321  1  0.49266281  0.98961638  0.87101518  1
  O  O322  1  0.99099116  0.49275508  0.37024417  1
  O  O323  1  0.98700261  0.50407417  0.88553519  1
  O  O324  1  0.99301353  0.99747088  0.37583992  1
  O  O325  1  0.99385939  0.99485345  0.88331367  1
  O  O326  1  -0.00677835  0.00716101  0.10926052  1
  O  O327  1  -0.00296207  0.00327136  0.61896620  1
  O  O328  1  -0.00983237  0.50110420  0.10934508  1
  O  O329  1  0.01208943  0.50499492  0.62672945  1
  O  O330  1  0.51294531  0.00216946  0.12422158  1
  O  O331  1  0.52326806  0.01866146  0.63476402  1
  O  O332  1  0.51464854  0.49843038  0.11174393  1
  O  O333  1  0.50861161  0.51087382  0.62978116  1
  O  O334  1  0.22966867  0.36717906  0.24059681  1
  O  O335  1  0.24605643  0.38406695  0.73627922  1
  O  O336  1  0.23934601  0.88486358  0.24964659  1
  O  O337  1  0.23138563  0.87467967  0.74627748  1
  O  O338  1  0.76066939  0.39361214  0.25443856  1
  O  O339  1  0.74539643  0.37658797  0.74161655  1
  O  O340  1  0.74344655  0.88833587  0.24184937  1
  O  O341  1  0.75535654  0.87223938  0.73566553  1
  O  O342  1  0.25647639  0.11697732  0.25706483  1
  O  O343  1  0.26504543  0.13214565  0.75677628  1
  O  O344  1  0.26439423  0.65822046  0.26493709  1
  O  O345  1  0.24190413  0.61273084  0.76334700  1
  O  O346  1  0.75251195  0.10731176  0.24159002  1
  O  O347  1  0.77218600  0.13795929  0.75389536  1
  O  O348  1  0.75785379  0.61834556  0.26349624  1
  O  O349  1  0.76630715  0.62456312  0.74002784  1
  O  O350  1  0.36442280  0.11901856  0.36252080  1
  O  O351  1  0.37342021  0.12004599  0.86623713  1
  O  O352  1  0.35194158  0.61346806  0.38701828  1
  O  O353  1  0.36216924  0.61269642  0.88861137  1
  O  O354  1  0.87779598  0.11007091  0.37562249  1
  O  O355  1  0.87273821  0.11113162  0.86678278  1
  O  O356  1  0.86957461  0.61858476  0.37014600  1
  O  O357  1  0.87839728  0.62666275  0.86160517  1
  O  O358  1  0.12770322  0.36289848  0.13835980  1
  O  O359  1  0.13560826  0.38505082  0.63265129  1
  O  O360  1  0.12167632  0.88416699  0.13827173  1
  O  O361  1  0.13012091  0.87536851  0.64173197  1
  O  O362  1  0.62971213  0.39065293  0.11911271  1
  O  O363  1  0.63416200  0.38382264  0.63208852  1
  O  O364  1  0.63261023  0.88569903  0.12727082  1
  O  O365  1  0.63787281  0.90030489  0.62445368  1
  O  O366  1  0.12779068  0.23945524  0.26109094  1
  O  O367  1  0.13226056  0.26371971  0.75906408  1
  O  O368  1  0.11638403  0.76614073  0.25473616  1
  O  O369  1  0.11585739  0.75000160  0.75967103  1
  O  O370  1  0.62075367  0.24689585  0.25497448  1
  O  O371  1  0.62733815  0.26462263  0.75083247  1
  O  O372  1  0.62857972  0.74724934  0.27093596  1
  O  O373  1  0.61658300  0.74302432  0.76078020  1
  O  O374  1  0.38124037  0.24261035  0.24554817  1
  O  O375  1  0.37626652  0.24184779  0.73798818  1
  O  O376  1  0.32799447  0.71312617  0.25653444  1
  O  O377  1  0.38023311  0.73971052  0.76048264  1
  O  O378  1  0.86680680  0.24479618  0.23384408  1
  O  O379  1  0.88024761  0.25248119  0.73466919  1
  O  O380  1  0.88220036  0.74646940  0.25670215  1
  O  O381  1  0.88628076  0.74422302  0.74600391  1
  O  O382  1  0.33318987  0.46231257  0.51689127  1
  O  O383  1  0.39363785  0.49765398  0.99796965  1
  O  O384  1  0.37439321  1.00292438  0.47889490  1
  O  O385  1  0.37857227  0.99598555  0.98507622  1
  O  O386  1  0.87094665  0.49004913  0.49057504  1
  O  O387  1  0.88508315  0.50265930  0.99003656  1
  O  O388  1  0.89186700  1.00648741  0.49324540  1
  O  O389  1  0.88425115  1.00214856  0.98524020  1
  O  O390  1  0.10948400  -0.00132433  -0.00611556  1
  O  O391  1  0.11588526  0.00932563  0.49772042  1
  O  O392  1  0.11460927  0.51201503  -0.00464533  1
  O  O393  1  0.12983766  0.49442250  0.51432872  1
  O  O394  1  0.62465509  0.00544466  0.00625327  1
  O  O395  1  0.63424001  0.01927320  0.50076611  1
  O  O396  1  0.62359767  0.51269446  0.00837183  1
  O  O397  1  0.63115240  0.49659591  0.51183336  1
  O  O398  1  0.35164364  0.36372460  0.14633728  1
  O  O399  1  0.36953694  0.36536773  0.63596755  1
  O  O400  1  0.37287541  0.88625148  0.10271050  1
  O  O401  1  0.34734646  0.86850041  0.64853492  1
  O  O402  1  0.88593283  0.35705323  0.12694326  1
  O  O403  1  0.87472251  0.37041600  0.62036415  1
  O  O404  1  0.86018353  0.87330026  0.13034782  1
  O  O405  1  0.87161096  0.86863892  0.62313203  1
  O  O406  1  0.13384887  0.12579307  0.38060899  1
  O  O407  1  0.13774335  0.14184123  0.85990444  1
  O  O408  1  0.13237863  0.65122960  0.35936857  1
  O  O409  1  0.13232892  0.62942250  0.88327635  1
  O  O410  1  0.62702316  0.13622356  0.38624057  1
  O  O411  1  0.62711578  0.12840796  0.88278156  1
  O  O412  1  0.63938551  0.63600200  0.38473528  1
  O  O413  1  0.62218014  0.63814416  0.88408551  1
