# generated using pymatgen
data_V79Zn79O256
_symmetry_space_group_name_H-M   'P 1'
_cell_length_a   16.94841295
_cell_length_b   17.00305080
_cell_length_c   16.92682055
_cell_angle_alpha   89.87534182
_cell_angle_beta   90.10553088
_cell_angle_gamma   90.07817538
_symmetry_Int_Tables_number   1
_chemical_formula_structural   V79Zn79O256
_chemical_formula_sum   'V79 Zn79 O256'
_cell_volume   4877.85754877
_cell_formula_units_Z   1
loop_
 _symmetry_equiv_pos_site_id
 _symmetry_equiv_pos_as_xyz
  1  'x, y, z'
loop_
 _atom_site_type_symbol
 _atom_site_label
 _atom_site_symmetry_multiplicity
 _atom_site_fract_x
 _atom_site_fract_y
 _atom_site_fract_z
 _atom_site_occupancy
  V  V0  1  0.38009586  -0.00017253  0.89108618  1
  V  V1  1  0.00959260  0.61888791  0.62814860  1
  V  V2  1  0.37683029  0.75997124  0.62371743  1
  V  V3  1  0.86388010  0.36012675  0.00444801  1
  V  V4  1  0.74995641  0.74438571  0.00240886  1
  V  V5  1  0.74710622  0.87979948  0.14086394  1
  V  V6  1  0.87345054  0.74795765  0.62213535  1
  V  V7  1  0.62884490  0.12909944  0.50018286  1
  V  V8  1  0.24019235  0.50200307  0.73853253  1
  V  V9  1  0.12545213  0.62775283  0.49159956  1
  V  V10  1  0.38377762  0.37553902  0.00118310  1
  V  V11  1  0.01560080  0.13689640  0.12369515  1
  V  V12  1  0.50402119  0.25214665  0.74797883  1
  V  V13  1  0.25426490  0.63461067  0.36680773  1
  V  V14  1  0.50528864  0.12623588  0.62653558  1
  V  V15  1  0.00391163  0.76033442  0.25994256  1
  V  V16  1  0.61557852  0.61097140  0.00035688  1
  V  V17  1  0.53897576  0.87848954  0.37452977  1
  V  V18  1  0.60822884  -0.00168637  0.12463324  1
  V  V19  1  0.50140855  0.25246433  0.24875283  1
  V  V20  1  0.88383058  0.62043303  0.24866147  1
  V  V21  1  0.74224458  0.62162435  0.36901018  1
  V  V22  1  0.45196129  0.61840862  0.16245786  1
  V  V23  1  0.87316241  0.87122093  0.00153830  1
  V  V24  1  0.24703946  0.74898099  0.50410006  1
  V  V25  1  0.37608771  0.49846083  0.87556538  1
  V  V26  1  0.13908099  0.87189058  0.75005877  1
  V  V27  1  0.87870896  0.49783201  0.88351488  1
  V  V28  1  0.11773434  0.37262857  0.73633361  1
  V  V29  1  0.37924024  0.62552815  0.73893029  1
  V  V30  1  0.88785459  0.24923405  0.63193088  1
  V  V31  1  0.49713724  0.74889165  0.74555894  1
  V  V32  1  0.87670050  0.62064111  0.75079666  1
  V  V33  1  0.23822359  0.24884525  -0.01011497  1
  V  V34  1  0.87318603  0.49727184  0.36885718  1
  V  V35  1  0.00327020  0.74824767  0.75208945  1
  V  V36  1  0.00631543  0.00146294  0.01071019  1
  V  V37  1  0.74532999  0.74456937  0.50067851  1
  V  V38  1  0.37007137  0.37994891  0.49768983  1
  V  V39  1  0.24993977  -0.00248794  0.75067743  1
  V  V40  1  0.23075408  0.00972640  0.25218179  1
  V  V41  1  0.50658310  0.37796910  0.86450121  1
  V  V42  1  0.00949517  0.37420424  0.36525906  1
  V  V43  1  0.88003864  0.12756489  0.23453699  1
  V  V44  1  0.25190543  0.63074005  0.88409417  1
  V  V45  1  0.19475153  0.93101877  0.57168950  1
  V  V46  1  0.88049737  0.74120538  0.12691999  1
  V  V47  1  0.75229987  0.62292116  0.87484887  1
  V  V48  1  0.37356384  0.12466722  0.75146257  1
  V  V49  1  0.23524934  0.88632987  0.12029957  1
  V  V50  1  0.13007564  0.74698332  0.88965661  1
  V  V51  1  0.73861706  0.49905609  0.74549951  1
  V  V52  1  0.37274812  0.11910046  0.26146558  1
  V  V53  1  0.50348708  0.37879802  0.37138388  1
  V  V54  1  0.75133583  0.00034312  0.75410916  1
  V  V55  1  0.24423634  0.23062301  0.49680531  1
  V  V56  1  0.37777372  0.88053786  0.48990332  1
  V  V57  1  0.25078121  0.47135367  0.26246343  1
  V  V58  1  0.87653292  0.37518757  0.50371825  1
  V  V59  1  0.73814855  0.37845304  0.62906052  1
  V  V60  1  0.62036752  0.87603361  0.75316831  1
  V  V61  1  0.49699093  0.13143066  0.11024473  1
  V  V62  1  0.00546742  0.49986460  0.50284654  1
  V  V63  1  0.01329103  0.10843255  0.61470186  1
  V  V64  1  -0.00590701  0.88026771  0.40094749  1
  V  V65  1  0.50517936  0.50310464  0.51521789  1
  V  V66  1  0.12197088  0.23456690  0.36895020  1
  V  V67  1  0.00321375  0.87156211  0.87534592  1
  V  V68  1  0.00604974  0.36958193  0.87896199  1
  V  V69  1  0.75123205  0.87090617  0.62595442  1
  V  V70  1  0.75212842  0.12418719  0.35771501  1
  V  V71  1  0.50067804  0.00405301  0.49362559  1
  V  V72  1  0.49861871  0.87636898  0.90223537  1
  V  V73  1  0.62107302  0.61992333  0.52206440  1
  V  V74  1  0.19989288  0.39671286  0.08696072  1
  V  V75  1  0.87232150  -0.00228355  0.87403563  1
  V  V76  1  0.63390105  0.49576733  0.13774974  1
  V  V77  1  0.62558782  0.25676650  0.37021874  1
  V  V78  1  0.62276084  0.75122037  0.88036276  1
  Zn  Zn79  1  0.37553955  0.76827139  0.10463468  1
  Zn  Zn80  1  0.05890002  0.20570942  0.79831465  1
  Zn  Zn81  1  0.36380374  0.25560588  0.12769835  1
  Zn  Zn82  1  0.88277833  0.12861244  0.75064890  1
  Zn  Zn83  1  0.22231381  0.12681779  0.87966868  1
  Zn  Zn84  1  0.51101713  0.75321689  0.26053445  1
  Zn  Zn85  1  0.06765632  0.55604917  0.04572236  1
  Zn  Zn86  1  0.37079872  0.25320804  0.62362869  1
  Zn  Zn87  1  0.38786163  0.51989407  0.36674755  1
  Zn  Zn88  1  0.74895140  0.25161375  0.50340694  1
  Zn  Zn89  1  0.87465368  -0.00277787  0.38452875  1
  Zn  Zn90  1  0.75568140  0.13921005  0.88471262  1
  Zn  Zn91  1  0.24375915  0.37962514  0.61461817  1
  Zn  Zn92  1  0.62735038  0.00056212  0.62741926  1
  Zn  Zn93  1  0.63233791  0.25027483  0.87943380  1
  Zn  Zn94  1  0.19171835  0.20209625  0.18165977  1
  Zn  Zn95  1  0.19122945  0.18566573  0.67872037  1
  Zn  Zn96  1  0.18654815  0.70569375  0.17980444  1
  Zn  Zn97  1  0.19263063  0.68983874  0.68982332  1
  Zn  Zn98  1  0.64404338  0.13448447  0.00430265  1
  Zn  Zn99  1  0.70985481  0.20882147  0.71631463  1
  Zn  Zn100  1  0.68614809  0.68112162  0.18847554  1
  Zn  Zn101  1  0.68511784  0.68713247  0.69361001  1
  Zn  Zn102  1  0.31866596  0.29897278  0.32488003  1
  Zn  Zn103  1  0.30984702  0.31338104  0.80961199  1
  Zn  Zn104  1  0.33010965  0.83662578  0.25901294  1
  Zn  Zn105  1  0.31058657  0.81710648  0.94041503  1
  Zn  Zn106  1  0.82655402  0.29735235  0.31863433  1
  Zn  Zn107  1  0.81684762  0.31814331  0.81389985  1
  Zn  Zn108  1  0.81791720  0.80703474  0.31906534  1
  Zn  Zn109  1  0.81279399  0.80998536  0.81277895  1
  Zn  Zn110  1  0.18633858  0.44710023  0.43096047  1
  Zn  Zn111  1  0.19330351  0.43548326  0.91912059  1
  Zn  Zn112  1  0.17164914  0.94100637  0.39555075  1
  Zn  Zn113  1  0.18811696  0.94348877  0.93597519  1
  Zn  Zn114  1  0.68802100  0.44012993  0.44143764  1
  Zn  Zn115  1  0.69142565  0.43319172  0.93477685  1
  Zn  Zn116  1  0.71344000  0.95233639  0.45051928  1
  Zn  Zn117  1  0.68376834  0.94093861  0.94606567  1
  Zn  Zn118  1  0.30700874  0.07116068  0.07226508  1
  Zn  Zn119  1  0.32142128  0.06360301  0.56193319  1
  Zn  Zn120  1  0.25424543  0.57771501  0.09400878  1
  Zn  Zn121  1  0.31938872  0.56600550  0.55735231  1
  Zn  Zn122  1  0.81020884  0.06112496  0.06201893  1
  Zn  Zn123  1  0.82120337  0.06254328  0.56023190  1
  Zn  Zn124  1  0.80952897  0.55311942  0.06809298  1
  Zn  Zn125  1  0.81370805  0.56022070  0.56148219  1
  Zn  Zn126  1  0.44000727  0.44368374  0.18777145  1
  Zn  Zn127  1  0.43104238  0.43706003  0.68680319  1
  Zn  Zn128  1  0.44358242  0.94243556  0.19507138  1
  Zn  Zn129  1  0.43761776  0.94017963  0.68758905  1
  Zn  Zn130  1  0.94763751  0.43758867  0.17784920  1
  Zn  Zn131  1  0.93581937  0.43846080  0.69012670  1
  Zn  Zn132  1  0.92925344  0.94445808  0.19788491  1
  Zn  Zn133  1  0.94050198  0.93284254  0.68564545  1
  Zn  Zn134  1  0.04849192  0.05823361  0.31516196  1
  Zn  Zn135  1  0.05618925  0.04828018  0.80441232  1
  Zn  Zn136  1  0.07644494  0.56946516  0.20876627  1
  Zn  Zn137  1  0.05215435  0.57161515  0.84760170  1
  Zn  Zn138  1  0.57022795  0.06707541  0.30456317  1
  Zn  Zn139  1  0.56333694  0.06430295  0.82217283  1
  Zn  Zn140  1  0.56346000  0.56044446  0.31423896  1
  Zn  Zn141  1  0.56122449  0.56512719  0.81526077  1
  Zn  Zn142  1  0.43638450  0.19250301  0.43954589  1
  Zn  Zn143  1  0.42905255  0.19710399  0.93058538  1
  Zn  Zn144  1  0.40968347  0.73134268  0.39120246  1
  Zn  Zn145  1  0.43765870  0.68595392  0.93453650  1
  Zn  Zn146  1  0.93888630  0.18938329  0.44029238  1
  Zn  Zn147  1  0.93805114  0.18331224  0.93979402  1
  Zn  Zn148  1  0.93608924  0.68486934  0.43556840  1
  Zn  Zn149  1  0.94443875  0.68214068  0.94481407  1
  Zn  Zn150  1  0.05087758  0.31203120  0.05997316  1
  Zn  Zn151  1  0.06478564  0.30938152  0.55736997  1
  Zn  Zn152  1  0.05975230  0.81424221  0.06971109  1
  Zn  Zn153  1  0.05814884  0.80593935  0.56310721  1
  Zn  Zn154  1  0.56871998  0.31354585  0.05992279  1
  Zn  Zn155  1  0.55774019  0.31216820  0.56119081  1
  Zn  Zn156  1  0.57386112  0.78677143  0.09585983  1
  Zn  Zn157  1  0.56339394  0.81097244  0.55882520  1
  O  O158  1  0.11506803  0.13497708  0.12389123  1
  O  O159  1  0.11288989  0.12314650  0.62571174  1
  O  O160  1  0.14852276  0.61503947  0.12104550  1
  O  O161  1  0.11208082  0.62807955  0.62469836  1
  O  O162  1  0.60128856  0.11823229  0.11901663  1
  O  O163  1  0.61293811  0.12996138  0.61840699  1
  O  O164  1  0.63138630  0.61131853  0.10696154  1
  O  O165  1  0.62735568  0.61885411  0.62106937  1
  O  O166  1  0.38873190  0.37254492  0.38728187  1
  O  O167  1  0.38015863  0.38205615  0.87428790  1
  O  O168  1  0.37360003  0.87500864  0.39149003  1
  O  O169  1  0.38270149  0.89149050  0.88518516  1
  O  O170  1  0.87756690  0.37797928  0.38571605  1
  O  O171  1  0.88280437  0.38108930  0.88086335  1
  O  O172  1  0.88845598  0.87793970  0.36856154  1
  O  O173  1  0.88080708  0.87379939  0.88355277  1
  O  O174  1  0.24796237  0.00834597  0.35416697  1
  O  O175  1  0.26182732  0.00627299  0.86761979  1
  O  O176  1  0.25699818  0.51718823  0.37036350  1
  O  O177  1  0.25741135  0.50991090  0.85840507  1
  O  O178  1  0.73126549  0.02646805  0.36075509  1
  O  O179  1  0.75984443  -0.01070919  0.86851357  1
  O  O180  1  0.76049999  0.51186741  0.38386683  1
  O  O181  1  0.76003920  0.50292417  0.86414692  1
  O  O182  1  0.25507770  0.46381434  0.14331831  1
  O  O183  1  0.25615167  0.50262009  0.63621039  1
  O  O184  1  0.25339259  0.99465191  0.13469825  1
  O  O185  1  0.25288007  0.99564157  0.63024113  1
  O  O186  1  0.73389833  0.49046888  0.12307521  1
  O  O187  1  0.75757648  0.48742769  0.63092709  1
  O  O188  1  0.76535963  0.97826168  0.12963319  1
  O  O189  1  0.75064829  0.98383046  0.63750118  1
  O  O190  1  -0.00829598  0.37780328  0.26796134  1
  O  O191  1  0.01366237  0.37556933  0.74812346  1
  O  O192  1  -0.00788627  0.85978131  0.24244989  1
  O  O193  1  0.01224685  0.86819962  0.75454206  1
  O  O194  1  0.49155184  0.36757881  0.26239225  1
  O  O195  1  0.48991759  0.36586152  0.75594270  1
  O  O196  1  0.51361932  0.89269815  0.27562968  1
  O  O197  1  0.50957831  0.86957799  0.75301348  1
  O  O198  1  0.49124240  0.13535424  0.24605507  1
  O  O199  1  0.49381664  0.12958169  0.74406161  1
  O  O200  1  0.48384318  0.62486525  0.26237708  1
  O  O201  1  0.49179478  0.63843290  0.76060864  1
  O  O202  1  0.99475254  0.11741917  0.22959470  1
  O  O203  1  0.99717013  0.12402018  0.73400223  1
  O  O204  1  0.98682874  0.63679209  0.25641257  1
  O  O205  1  0.99349131  0.62645722  0.74769847  1
  O  O206  1  0.36514191  0.26531436  -0.00110217  1
  O  O207  1  0.35933068  0.25939228  0.49651058  1
  O  O208  1  0.36632174  0.73991572  -0.00296561  1
  O  O209  1  0.37023844  0.76169749  0.50653712  1
  O  O210  1  0.87851675  0.26188717  -0.00620814  1
  O  O211  1  0.87194869  0.26266103  0.50961958  1
  O  O212  1  0.87132767  0.75045748  0.00490268  1
  O  O213  1  0.86210311  0.73337399  0.51581196  1
  O  O214  1  0.13975355  0.25402894  0.49354535  1
  O  O215  1  0.13972623  0.26867687  0.99601891  1
  O  O216  1  0.13555772  0.73907378  0.51355492  1
  O  O217  1  0.12000645  0.75475525  0.98821320  1
  O  O218  1  0.62124892  0.24369566  0.49065178  1
  O  O219  1  0.62210768  0.24714625  0.99281810  1
  O  O220  1  0.63246645  0.73014624  0.50914743  1
  O  O221  1  0.63448521  0.73745072  1.00055285  1
  O  O222  1  0.50023571  0.24318703  0.13307855  1
  O  O223  1  0.49260079  0.24285196  0.62886072  1
  O  O224  1  0.48064864  0.70899706  0.11719139  1
  O  O225  1  0.49521020  0.75437520  0.63679915  1
  O  O226  1  0.99433661  0.23338270  0.11543432  1
  O  O227  1  0.98992452  0.24594984  0.62055597  1
  O  O228  1  0.98507437  0.74840790  0.12881476  1
  O  O229  1  0.99065698  0.73843959  0.63266385  1
  O  O230  1  0.01137113  0.26561403  0.38786824  1
  O  O231  1  -0.00958612  0.26533444  0.86830757  1
  O  O232  1  -0.01250330  0.75942584  0.36596370  1
  O  O233  1  0.00918910  0.75351894  0.86955911  1
  O  O234  1  0.50601516  0.25955089  0.37147501  1
  O  O235  1  0.49586854  0.26283295  0.86225288  1
  O  O236  1  0.51976260  0.77620985  0.38451242  1
  O  O237  1  0.50324624  0.76212613  0.86657318  1
  O  O238  1  0.25296048  0.13251882  0.50339305  1
  O  O239  1  0.25064340  0.14534508  1.00233758  1
  O  O240  1  0.24108586  0.63092265  0.50352118  1
  O  O241  1  0.25253304  0.60897784  0.97967581  1
  O  O242  1  0.73452239  0.13098908  0.50230016  1
  O  O243  1  0.76005394  0.13279449  0.99738671  1
  O  O244  1  0.73805829  0.62479062  0.49820704  1
  O  O245  1  0.74902626  0.63163465  0.99421976  1
  O  O246  1  0.26258833  0.36884873  -0.00781937  1
  O  O247  1  0.26103245  0.38595840  0.49527793  1
  O  O248  1  0.25192606  0.88652665  0.01268091  1
  O  O249  1  0.25581547  0.87168860  0.50905798  1
  O  O250  1  0.76365648  0.37066992  -0.00753369  1
  O  O251  1  0.76013604  0.37894365  0.51271060  1
  O  O252  1  0.75911147  0.86148653  0.00151306  1
  O  O253  1  0.73535711  0.85382356  0.51858173  1
  O  O254  1  0.15592699  0.50658708  0.25761520  1
  O  O255  1  0.13824869  0.49385735  0.75026438  1
  O  O256  1  0.13175424  1.01752616  0.24724536  1
  O  O257  1  0.13798891  0.98538993  0.75362779  1
  O  O258  1  0.62675757  0.50726224  0.23773767  1
  O  O259  1  0.63978736  0.50904048  0.75413539  1
  O  O260  1  0.62879151  1.01148467  0.22291124  1
  O  O261  1  0.63205079  0.98938106  0.75250899  1
  O  O262  1  0.37853237  0.01883273  0.25373396  1
  O  O263  1  0.36689039  0.00543360  0.75343874  1
  O  O264  1  0.35880536  0.49102121  0.25676896  1
  O  O265  1  0.36852271  0.50794591  0.75410700  1
  O  O266  1  0.88083933  0.02251435  0.26612449  1
  O  O267  1  0.86728178  -0.01260827  0.76161748  1
  O  O268  1  0.88021023  0.50540999  0.26191896  1
  O  O269  1  0.86724603  0.50940178  0.75468242  1
  O  O270  1  0.11050785  0.37727421  0.37894449  1
  O  O271  1  0.11082700  0.38058443  0.86071245  1
  O  O272  1  0.09509495  0.86537499  0.38012214  1
  O  O273  1  0.12514000  0.86529940  0.86802955  1
  O  O274  1  0.61589061  0.36853020  0.38504043  1
  O  O275  1  0.60832180  0.37733571  0.87308021  1
  O  O276  1  0.63728514  0.88612995  0.38622814  1
  O  O277  1  0.61758282  0.87215040  0.87232894  1
  O  O278  1  0.38578008  0.13244613  0.13522324  1
  O  O279  1  0.38706733  0.12539311  0.63497333  1
  O  O280  1  0.35285768  0.61332979  0.14086540  1
  O  O281  1  0.37837129  0.63394907  0.63353167  1
  O  O282  1  0.87877542  0.12186896  0.13298003  1
  O  O283  1  0.87423755  0.14062964  0.62436170  1
  O  O284  1  0.86111450  0.63121517  0.13680065  1
  O  O285  1  0.88128496  0.62908965  0.63502041  1
  O  O286  1  0.24833638  0.27673960  0.10965754  1
  O  O287  1  0.25101028  0.25659147  0.60779573  1
  O  O288  1  0.25813079  0.78103275  0.13964644  1
  O  O289  1  0.26503792  0.74617826  0.61771644  1
  O  O290  1  0.74436307  0.31150004  0.16562341  1
  O  O291  1  0.76068949  0.26625452  0.62660013  1
  O  O292  1  0.75735430  0.75557907  0.11506700  1
  O  O293  1  0.75571931  0.75017925  0.62460259  1
  O  O294  1  0.23702977  0.24624410  0.38860152  1
  O  O295  1  0.25425126  0.24588136  0.88412030  1
  O  O296  1  0.25359758  0.74214750  0.39863385  1
  O  O297  1  0.24589986  0.73858965  0.87768754  1
  O  O298  1  0.74042254  0.24648678  0.37955247  1
  O  O299  1  0.73910436  0.24018344  0.82935130  1
  O  O300  1  0.76071353  0.73154019  0.39062792  1
  O  O301  1  0.74530624  0.74480084  0.88403852  1
  O  O302  1  -0.00886059  0.10871768  0.01181759  1
  O  O303  1  -0.00691309  0.12629891  0.51639054  1
  O  O304  1  0.02126778  0.60448009  -0.04328767  1
  O  O305  1  0.00585523  0.62053071  0.50679690  1
  O  O306  1  0.48581369  0.13606418  0.01139773  1
  O  O307  1  0.50459291  0.12266635  0.50573533  1
  O  O308  1  0.51783312  0.62006925  -0.01731342  1
  O  O309  1  0.51516268  0.61098680  0.50217139  1
  O  O310  1  0.49485038  0.38541694  0.49459877  1
  O  O311  1  0.48742701  0.36852306  0.97691079  1
  O  O312  1  0.50051266  0.88561126  0.49199767  1
  O  O313  1  0.51255400  0.86088732  0.99852492  1
  O  O314  1  0.99192350  0.38327028  0.50012299  1
  O  O315  1  0.99657998  0.37715661  0.98104584  1
  O  O316  1  0.98623879  0.86502146  0.50100615  1
  O  O317  1  0.98894433  0.87889674  0.99762462  1
  O  O318  1  0.50195856  0.49130952  0.38364304  1
  O  O319  1  0.49024912  0.48632306  0.86083398  1
  O  O320  1  0.51589995  0.99859980  0.38912595  1
  O  O321  1  0.48877454  0.99044424  0.87552940  1
  O  O322  1  0.98742142  0.48520324  0.38846586  1
  O  O323  1  0.98522019  0.47986496  0.85669488  1
  O  O324  1  0.99651342  0.98635199  0.38626711  1
  O  O325  1  0.98815886  0.98870879  0.88202023  1
  O  O326  1  -0.00582780  -0.00369575  0.11233535  1
  O  O327  1  -0.00769767  0.00896216  0.62310963  1
  O  O328  1  0.00593115  0.52101463  0.13436390  1
  O  O329  1  -0.01112690  0.51069032  0.61485616  1
  O  O330  1  0.50287256  0.00971761  0.12071946  1
  O  O331  1  0.50465468  0.01040039  0.61865246  1
  O  O332  1  0.49683944  0.53057404  0.13215482  1
  O  O333  1  0.50048461  0.49412031  0.61382762  1
  O  O334  1  0.24395310  0.37458757  0.28024441  1
  O  O335  1  0.24360619  0.38928558  0.74731381  1
  O  O336  1  0.24014853  0.90051802  0.24284258  1
  O  O337  1  0.24309992  0.88429772  0.75086408  1
  O  O338  1  0.75947613  0.35327633  0.22413014  1
  O  O339  1  0.75520573  0.38576166  0.73630756  1
  O  O340  1  0.75385439  0.86111114  0.23801058  1
  O  O341  1  0.73893973  0.87469920  0.74732346  1
  O  O342  1  0.26508098  0.12170346  0.23534058  1
  O  O343  1  0.25852150  0.11487854  0.74632586  1
  O  O344  1  0.24806134  0.64790934  0.26992726  1
  O  O345  1  0.26007005  0.61607979  0.75101997  1
  O  O346  1  0.76493264  0.13630561  0.25770627  1
  O  O347  1  0.75738256  0.10330581  0.74332851  1
  O  O348  1  0.75859525  0.63167353  0.26528317  1
  O  O349  1  0.75921872  0.62007596  0.75425579  1
  O  O350  1  0.37681740  0.13567752  0.36087348  1
  O  O351  1  0.38232909  0.11347002  0.86146561  1
  O  O352  1  0.35763603  0.62897550  0.39130378  1
  O  O353  1  0.36624546  0.61905968  0.86259429  1
  O  O354  1  0.85518011  0.12741254  0.38668940  1
  O  O355  1  0.87679254  0.10864300  0.86978998  1
  O  O356  1  0.86896272  0.61403690  0.36973034  1
  O  O357  1  0.87211641  0.61856758  0.86665852  1
  O  O358  1  0.11965804  0.36548510  0.13721666  1
  O  O359  1  0.12420051  0.37999255  0.63237672  1
  O  O360  1  0.13514610  0.87955469  0.12147652  1
  O  O361  1  0.12967815  0.87245429  0.63007125  1
  O  O362  1  0.59619358  0.40361667  0.11801586  1
  O  O363  1  0.64011989  0.37111331  0.61882708  1
  O  O364  1  0.63878895  0.88900260  0.11653414  1
  O  O365  1  0.63229020  0.87189500  0.63785763  1
  O  O366  1  0.13330396  0.24666622  0.27049410  1
  O  O367  1  0.13779316  0.26981396  0.74376535  1
  O  O368  1  0.10071063  0.74326832  0.24529495  1
  O  O369  1  0.12321371  0.75750957  0.75471146  1
  O  O370  1  0.60964664  0.24993133  0.26473999  1
  O  O371  1  0.60436685  0.24687361  0.74492792  1
  O  O372  1  0.60669328  0.75629940  0.20413179  1
  O  O373  1  0.61837432  0.75626794  0.75919647  1
  O  O374  1  0.38397067  0.24521509  0.24678531  1
  O  O375  1  0.37859840  0.23894849  0.74751779  1
  O  O376  1  0.39779716  0.75390295  0.27713436  1
  O  O377  1  0.38415876  0.74304820  0.73970744  1
  O  O378  1  0.89014112  0.22585102  0.26227359  1
  O  O379  1  0.87796455  0.25308838  0.73451590  1
  O  O380  1  0.88045210  0.73950141  0.24291740  1
  O  O381  1  0.87968073  0.73755830  0.74653197  1
  O  O382  1  0.39072896  0.49706724  0.49636703  1
  O  O383  1  0.36987661  0.48509077  0.98055804  1
  O  O384  1  0.39062705  0.99330299  0.50646074  1
  O  O385  1  0.36930914  1.01617659  0.98669907  1
  O  O386  1  0.88245677  0.49371537  0.49336154  1
  O  O387  1  0.86998719  0.49637612  0.98610240  1
  O  O388  1  0.82108789  0.98375110  0.48484265  1
  O  O389  1  0.87928500  0.98589844  0.99163351  1
  O  O390  1  0.10389543  -0.00556110  -0.00681295  1
  O  O391  1  0.14387181  -0.01626111  0.50672172  1
  O  O392  1  0.15110896  0.46746007  0.02282509  1
  O  O393  1  0.11195093  0.50982906  0.49799777  1
  O  O394  1  0.64203811  0.01289747  0.02173757  1
  O  O395  1  0.61966872  0.01449293  0.50763111  1
  O  O396  1  0.63109835  0.51070740  -0.00557057  1
  O  O397  1  0.61681776  0.50805035  0.50151213  1
  O  O398  1  0.39266205  0.37855333  0.10334080  1
  O  O399  1  0.37183896  0.37371546  0.61004609  1
  O  O400  1  0.37129034  0.87357103  0.14713733  1
  O  O401  1  0.38311330  0.86623716  0.61598328  1
  O  O402  1  0.88694582  0.38109724  0.10149413  1
  O  O403  1  0.87549523  0.36694815  0.61904640  1
  O  O404  1  0.86606459  0.86225436  0.11720196  1
  O  O405  1  0.86371877  0.85678858  0.63828903  1
  O  O406  1  0.10469231  0.13779823  0.37934199  1
  O  O407  1  0.11198496  0.12733150  0.86244350  1
  O  O408  1  0.13894573  0.62761965  0.39098703  1
  O  O409  1  0.14634950  0.63513710  0.85968013  1
  O  O410  1  0.63121302  0.13824480  0.38011398  1
  O  O411  1  0.63288510  0.12710638  0.88129276  1
  O  O412  1  0.64113982  0.62079675  0.37820035  1
  O  O413  1  0.63389410  0.63101943  0.88227450  1
