# generated using pymatgen
data_V79Zn79O256
_symmetry_space_group_name_H-M   'P 1'
_cell_length_a   16.90950948
_cell_length_b   16.90181232
_cell_length_c   16.91140932
_cell_angle_alpha   90.15929427
_cell_angle_beta   89.90009262
_cell_angle_gamma   89.95584039
_symmetry_Int_Tables_number   1
_chemical_formula_structural   V79Zn79O256
_chemical_formula_sum   'V79 Zn79 O256'
_cell_volume   4833.27623008
_cell_formula_units_Z   1
loop_
 _symmetry_equiv_pos_site_id
 _symmetry_equiv_pos_as_xyz
  1  'x, y, z'
loop_
 _atom_site_type_symbol
 _atom_site_label
 _atom_site_symmetry_multiplicity
 _atom_site_fract_x
 _atom_site_fract_y
 _atom_site_fract_z
 _atom_site_occupancy
  V  V0  1  0.12509136  0.12663882  -0.01182602  1
  V  V1  1  0.25342030  0.00312902  0.25045472  1
  V  V2  1  0.74658576  0.62881464  0.87512606  1
  V  V3  1  0.00252704  0.50243438  0.00395479  1
  V  V4  1  0.25261836  0.37356931  0.12179988  1
  V  V5  1  0.75346388  0.24638151  0.51102813  1
  V  V6  1  0.12364379  0.00301159  0.12357889  1
  V  V7  1  0.75025872  0.11974902  0.86844399  1
  V  V8  1  -0.00023146  0.13410228  0.62493164  1
  V  V9  1  0.00477315  0.87856282  0.88492510  1
  V  V10  1  0.49991173  0.00587705  0.50719711  1
  V  V11  1  0.36541498  0.27880187  0.60562072  1
  V  V12  1  0.87741562  0.49864536  0.87587313  1
  V  V13  1  0.88552084  0.62276303  0.24554260  1
  V  V14  1  0.62765555  0.24354977  0.37393609  1
  V  V15  1  0.37430610  0.87568492  0.49840804  1
  V  V16  1  -0.00505573  0.49427465  0.50023121  1
  V  V17  1  0.12378976  0.62661014  0.00097055  1
  V  V18  1  0.38076249  0.62606943  0.74131606  1
  V  V19  1  0.00562751  0.75045068  0.75787885  1
  V  V20  1  0.87246498  0.62638721  0.75145424  1
  V  V21  1  0.73894251  0.01044541  0.24866731  1
  V  V22  1  0.12259891  0.36151203  0.75539975  1
  V  V23  1  0.24711803  0.62614637  0.87286001  1
  V  V24  1  0.49636746  0.48586481  -0.00565264  1
  V  V25  1  0.74309467  0.48656399  0.74446940  1
  V  V26  1  0.13048620  0.63188288  0.50709647  1
  V  V27  1  0.37444425  0.75159509  0.12117614  1
  V  V28  1  0.00143944  0.25403185  0.26041302  1
  V  V29  1  0.25015986  0.49598285  0.74361222  1
  V  V30  1  0.24502618  0.13451912  0.38633497  1
  V  V31  1  0.11761851  0.87197759  0.25568431  1
  V  V32  1  0.36862262  0.61324349  0.25116783  1
  V  V33  1  0.86615974  0.37391236  0.51782815  1
  V  V34  1  0.00412471  0.35903855  0.87606221  1
  V  V35  1  0.50126963  0.62192584  0.12183267  1
  V  V36  1  0.73856642  0.63053394  0.37782169  1
  V  V37  1  0.62710134  0.11726617  0.00246618  1
  V  V38  1  0.12482510  0.00415568  0.62177553  1
  V  V39  1  -0.00768657  -0.00731224  0.49504792  1
  V  V40  1  0.75109957  0.25079685  0.00215978  1
  V  V41  1  0.62847642  0.48699581  0.11927589  1
  V  V42  1  0.89057455  0.74100024  0.12832406  1
  V  V43  1  0.50175567  -0.00287817  -0.00927504  1
  V  V44  1  0.12432175  0.49646921  0.63042748  1
  V  V45  1  0.24732106  0.75105933  -0.00650292  1
  V  V46  1  0.88055208  0.13655353  0.74836583  1
  V  V47  1  0.87417994  0.37368897  0.00450927  1
  V  V48  1  0.37996996  0.87411628  -0.01330861  1
  V  V49  1  0.37492133  0.25143249  0.12075969  1
  V  V50  1  0.87368542  0.12182905  0.26265325  1
  V  V51  1  0.62463527  0.87909602  0.23842286  1
  V  V52  1  0.87764243  -0.00179745  0.87568623  1
  V  V53  1  0.61638858  0.25940248  0.87006593  1
  V  V54  1  0.62142826  0.37182433  0.25379782  1
  V  V55  1  0.44082071  0.44254040  0.43030087  1
  V  V56  1  -0.00536759  0.62494312  0.62510293  1
  V  V57  1  0.87195705  0.49061357  0.37284958  1
  V  V58  1  0.63264076  -0.00856657  0.63635298  1
  V  V59  1  0.37319418  0.12884252  0.73239199  1
  V  V60  1  0.12808527  0.87714585  0.75267310  1
  V  V61  1  0.25192825  0.87766715  0.62784207  1
  V  V62  1  0.50314289  0.75198354  0.25043740  1
  V  V63  1  0.74980965  0.74967414  0.00671311  1
  V  V64  1  0.62197581  0.49425726  0.60529651  1
  V  V65  1  0.00119235  0.11858830  0.12561526  1
  V  V66  1  0.62444315  0.12610601  0.50657230  1
  V  V67  1  0.50312598  0.87530104  0.37324800  1
  V  V68  1  0.62257645  0.62825659  -0.00581387  1
  V  V69  1  0.49995538  0.12030233  0.12520321  1
  V  V70  1  0.74891676  0.49254733  0.24194851  1
  V  V71  1  0.12565977  0.37920261  0.25396911  1
  V  V72  1  0.37752982  0.48795116  0.87611660  1
  V  V73  1  0.13029858  0.49949923  0.12638016  1
  V  V74  1  0.36031952  0.01315707  0.87063063  1
  V  V75  1  0.87436832  0.25153668  0.12819004  1
  V  V76  1  0.24842783  0.24863979  -0.01444082  1
  V  V77  1  0.86934172  0.76135506  0.61267185  1
  V  V78  1  0.51545274  0.76086203  0.76084573  1
  Zn  Zn79  1  0.51384070  0.62534900  0.61649788  1
  Zn  Zn80  1  0.25162484  0.87801372  0.12446211  1
  Zn  Zn81  1  0.75045299  0.87226848  0.58880424  1
  Zn  Zn82  1  0.12764028  0.75430329  0.36980992  1
  Zn  Zn83  1  0.25269085  0.75113224  0.49669383  1
  Zn  Zn84  1  0.12763982  0.25207145  0.38128252  1
  Zn  Zn85  1  0.37390867  0.12860317  0.25157222  1
  Zn  Zn86  1  0.37550984  0.00617214  0.37447733  1
  Zn  Zn87  1  0.24796357  0.61332531  0.36818111  1
  Zn  Zn88  1  0.37869307  0.75048206  0.62561616  1
  Zn  Zn89  1  0.86266053  -0.00906865  0.38425214  1
  Zn  Zn90  1  0.74896122  0.87708149  0.12550826  1
  Zn  Zn91  1  0.49314329  0.25072386  0.26003636  1
  Zn  Zn92  1  0.50064366  0.25770115  0.73774912  1
  Zn  Zn93  1  0.88368851  0.88598971  0.01751567  1
  Zn  Zn94  1  0.18906236  0.19013687  0.18851614  1
  Zn  Zn95  1  0.19822947  0.18470782  0.68570903  1
  Zn  Zn96  1  0.18798492  0.68620592  0.18404872  1
  Zn  Zn97  1  0.19115842  0.68929874  0.68387864  1
  Zn  Zn98  1  0.68724319  0.18737400  0.18427300  1
  Zn  Zn99  1  0.68686499  0.18678896  0.68899268  1
  Zn  Zn100  1  0.69074796  0.68586241  0.19460413  1
  Zn  Zn101  1  0.68758178  0.68649191  0.67985540  1
  Zn  Zn102  1  0.31465884  0.31856239  0.31391792  1
  Zn  Zn103  1  0.31311107  0.30907629  0.79965011  1
  Zn  Zn104  1  0.30661152  0.80906063  0.31442047  1
  Zn  Zn105  1  0.31450392  0.81320869  0.81114425  1
  Zn  Zn106  1  0.80672980  0.31023879  0.31661224  1
  Zn  Zn107  1  0.81420093  0.30883854  0.81793993  1
  Zn  Zn108  1  0.78387912  0.82542401  0.37995791  1
  Zn  Zn109  1  0.81886937  0.80994750  0.81829709  1
  Zn  Zn110  1  0.18690857  0.43821350  0.43732299  1
  Zn  Zn111  1  0.19027157  0.43481390  0.93579325  1
  Zn  Zn112  1  0.18648699  0.94543190  0.43788313  1
  Zn  Zn113  1  0.18723594  0.93961700  0.93911922  1
  Zn  Zn114  1  0.68692869  0.43430956  0.43220746  1
  Zn  Zn115  1  0.68945027  0.44027410  0.93418853  1
  Zn  Zn116  1  0.67940847  0.94683310  0.43122963  1
  Zn  Zn117  1  0.69451722  0.93692003  0.93807744  1
  Zn  Zn118  1  0.31125574  0.06569195  0.05912981  1
  Zn  Zn119  1  0.30988508  0.06406445  0.56163975  1
  Zn  Zn120  1  0.31286608  0.56098678  0.06049328  1
  Zn  Zn121  1  0.30605909  0.53294723  0.53476277  1
  Zn  Zn122  1  0.81480626  0.06101445  0.06620219  1
  Zn  Zn123  1  0.81156276  0.06282637  0.56636194  1
  Zn  Zn124  1  0.81166129  0.56217495  0.06227570  1
  Zn  Zn125  1  0.80229029  0.56692305  0.56116475  1
  Zn  Zn126  1  0.43961885  0.43235259  0.18689154  1
  Zn  Zn127  1  0.44781897  0.42963345  0.67147259  1
  Zn  Zn128  1  0.43587054  0.93894949  0.18128834  1
  Zn  Zn129  1  0.44156625  0.94089172  0.69266656  1
  Zn  Zn130  1  0.94372623  0.43827228  0.18794834  1
  Zn  Zn131  1  0.93800635  0.43353314  0.69385807  1
  Zn  Zn132  1  0.90481989  0.89641805  0.23876412  1
  Zn  Zn133  1  0.93692038  0.94159002  0.69213615  1
  Zn  Zn134  1  0.06534346  0.06432289  0.31300539  1
  Zn  Zn135  1  0.06030273  0.05928046  0.80801333  1
  Zn  Zn136  1  0.00698418  0.62743318  0.36723543  1
  Zn  Zn137  1  0.06164441  0.55908075  0.81694948  1
  Zn  Zn138  1  0.56070778  0.06618148  0.31712510  1
  Zn  Zn139  1  0.55373550  0.07188864  0.81053201  1
  Zn  Zn140  1  0.56056141  0.56087350  0.31087235  1
  Zn  Zn141  1  0.56130238  0.55634109  0.80802686  1
  Zn  Zn142  1  0.43608209  0.19154577  0.43822826  1
  Zn  Zn143  1  0.43692224  0.18823286  0.93878617  1
  Zn  Zn144  1  0.43623993  0.68561757  0.43414963  1
  Zn  Zn145  1  0.43601221  0.68209060  0.93034526  1
  Zn  Zn146  1  0.94014554  0.18741161  0.44420758  1
  Zn  Zn147  1  0.93879480  0.18025975  0.94094939  1
  Zn  Zn148  1  0.95086053  0.81506379  0.41811328  1
  Zn  Zn149  1  0.93711422  0.68953863  0.93993349  1
  Zn  Zn150  1  0.06324604  0.30840442  0.06422920  1
  Zn  Zn151  1  0.05717204  0.31973789  0.56809489  1
  Zn  Zn152  1  0.06728955  0.81316864  0.06973453  1
  Zn  Zn153  1  0.05683233  0.81519318  0.56992738  1
  Zn  Zn154  1  0.56230744  0.30598232  0.05896351  1
  Zn  Zn155  1  0.55613369  0.32024276  0.56041440  1
  Zn  Zn156  1  0.56167534  0.81309073  0.05914176  1
  Zn  Zn157  1  0.55632353  0.81188878  0.57369833  1
  O  O158  1  0.11817671  0.12011227  0.12482508  1
  O  O159  1  0.11436499  0.11139462  0.63850450  1
  O  O160  1  0.13480828  0.61330955  0.11131017  1
  O  O161  1  0.11218139  0.61690943  0.62806861  1
  O  O162  1  0.61638379  0.13196849  0.11108865  1
  O  O163  1  0.63092364  0.11475820  0.61282327  1
  O  O164  1  0.61529156  0.61487758  0.11628259  1
  O  O165  1  0.62887106  0.60372102  0.63371511  1
  O  O166  1  0.36680732  0.38599254  0.38505342  1
  O  O167  1  0.36606308  0.39014139  0.86847856  1
  O  O168  1  0.38066052  0.87796541  0.38330008  1
  O  O169  1  0.37214664  0.88430477  0.88255671  1
  O  O170  1  0.87248966  0.38692401  0.37758993  1
  O  O171  1  0.88491481  0.37816225  0.88580761  1
  O  O172  1  0.88162344  0.87763636  0.35227635  1
  O  O173  1  0.88827495  0.88089742  0.87668483  1
  O  O174  1  0.25078407  0.01200439  0.36623704  1
  O  O175  1  0.26128520  -0.00242710  0.87465203  1
  O  O176  1  0.26187802  0.51664592  0.42509416  1
  O  O177  1  0.25792219  0.50641622  0.86836309  1
  O  O178  1  0.74863366  0.00205951  0.35519495  1
  O  O179  1  0.75848578  0.01413079  0.87892892  1
  O  O180  1  0.75570164  0.50256708  0.36210870  1
  O  O181  1  0.75879545  0.50987637  0.86954764  1
  O  O182  1  0.24190429  0.48695553  0.11203116  1
  O  O183  1  0.23701712  0.50329288  0.63257971  1
  O  O184  1  0.24252357  1.00294845  0.13233679  1
  O  O185  1  0.23351728  0.99275610  0.61963599  1
  O  O186  1  0.73811149  0.50204679  0.12681143  1
  O  O187  1  0.74537968  0.50285758  0.63961088  1
  O  O188  1  0.75842419  0.99499779  0.14168070  1
  O  O189  1  0.73762672  0.99386040  0.62026643  1
  O  O190  1  0.01294185  0.36565383  0.24325015  1
  O  O191  1  0.01114009  0.37852388  0.76244955  1
  O  O192  1  0.01930373  0.88227922  0.24554765  1
  O  O193  1  0.00757065  0.86751426  0.75892081  1
  O  O194  1  0.51687602  0.36374741  0.23494319  1
  O  O195  1  0.48765930  0.36953771  0.75607377  1
  O  O196  1  0.50202563  0.87197120  0.25120597  1
  O  O197  1  0.49694518  0.86009311  0.74972474  1
  O  O198  1  0.50107618  0.12817201  0.23735729  1
  O  O199  1  0.47876555  0.14217381  0.76440684  1
  O  O200  1  0.49400610  0.63248074  0.23702201  1
  O  O201  1  0.48539648  0.62440139  0.75303259  1
  O  O202  1  0.99279232  0.13299196  0.24493200  1
  O  O203  1  0.99017937  0.12190243  0.74120538  1
  O  O204  1  0.98368841  0.60969502  0.25027857  1
  O  O205  1  0.99315058  0.62859532  0.74688065  1
  O  O206  1  0.35875769  0.24229670  0.00828447  1
  O  O207  1  0.37509030  0.25413626  0.50742119  1
  O  O208  1  0.37093707  0.75426102  0.00175836  1
  O  O209  1  0.37710885  0.76302900  0.50364062  1
  O  O210  1  0.87104992  0.25340004  0.00761586  1
  O  O211  1  0.86536785  0.26214481  0.49632153  1
  O  O212  1  0.86785269  0.74540168  0.01474942  1
  O  O213  1  0.88670316  0.76055970  0.51534827  1
  O  O214  1  0.14268718  0.28698487  0.49598552  1
  O  O215  1  0.13462204  0.23793381  1.00319421  1
  O  O216  1  0.12048897  0.73651082  0.51341626  1
  O  O217  1  0.13722762  0.74042898  1.00858332  1
  O  O218  1  0.63311233  0.24583670  0.49448062  1
  O  O219  1  0.63614504  0.24108717  0.99382856  1
  O  O220  1  0.58472920  0.72401693  0.49573064  1
  O  O221  1  0.63237613  0.73660703  1.00614738  1
  O  O222  1  0.48944515  0.23805718  0.11572074  1
  O  O223  1  0.47953695  0.26370383  0.62300256  1
  O  O224  1  0.49170024  0.74118911  0.12540979  1
  O  O225  1  0.49451597  0.74078536  0.64274667  1
  O  O226  1  0.99170519  0.24223312  0.13530007  1
  O  O227  1  1.00749096  0.23318681  0.62088621  1
  O  O228  1  0.98960081  0.74451607  0.11916849  1
  O  O229  1  0.98815299  0.74371656  0.63803498  1
  O  O230  1  0.00576440  0.24494822  0.36538447  1
  O  O231  1  -0.00169726  0.25987542  0.88270951  1
  O  O232  1  0.01634075  0.73756787  0.37506418  1
  O  O233  1  -0.00573639  0.76068663  0.86631135  1
  O  O234  1  0.51966522  0.24431276  0.37466846  1
  O  O235  1  0.51669576  0.25172260  0.88904907  1
  O  O236  1  0.48944318  0.76204896  0.35770610  1
  O  O237  1  0.49798101  0.74353053  0.86093814  1
  O  O238  1  0.24946362  0.12160097  0.48577370  1
  O  O239  1  0.23637337  0.13616814  1.00250541  1
  O  O240  1  0.23165310  0.63118766  0.52749631  1
  O  O241  1  0.24545599  0.63079793  0.99168229  1
  O  O242  1  0.74672048  0.13884514  0.50183622  1
  O  O243  1  0.74559459  0.13093082  0.99492491  1
  O  O244  1  0.75823699  0.62640513  0.47717979  1
  O  O245  1  0.74192452  0.62748193  0.99410593  1
  O  O246  1  0.23967692  0.35843607  0.00837801  1
  O  O247  1  0.20386332  0.34091971  0.50269161  1
  O  O248  1  0.25792529  0.86544692  -0.00035297  1
  O  O249  1  0.25821119  0.87821529  0.50651565  1
  O  O250  1  0.76502019  0.36551739  -0.00736829  1
  O  O251  1  0.76118447  0.36746926  0.49932202  1
  O  O252  1  0.75392821  0.86232930  0.00271043  1
  O  O253  1  0.74691181  0.87074155  0.47615410  1
  O  O254  1  0.12060416  0.48541100  0.23323817  1
  O  O255  1  0.13236678  0.50072713  0.74587872  1
  O  O256  1  0.13358341  0.99412186  0.24282466  1
  O  O257  1  0.11605856  0.98614245  0.73700456  1
  O  O258  1  0.62934616  0.49005313  0.23720478  1
  O  O259  1  0.64281168  0.49361440  0.75987155  1
  O  O260  1  0.63219562  1.00037124  0.24863113  1
  O  O261  1  0.61656093  1.01041996  0.73367393  1
  O  O262  1  0.36488375  0.00140507  0.24891434  1
  O  O263  1  0.38443408  0.01173258  0.76449331  1
  O  O264  1  0.37803366  0.51512713  0.23497794  1
  O  O265  1  0.36577245  0.50919541  0.75860032  1
  O  O266  1  0.86661302  0.01080220  0.25522909  1
  O  O267  1  0.87963674  0.00987689  0.76711960  1
  O  O268  1  0.86778414  0.49897755  0.24910112  1
  O  O269  1  0.87088163  0.51111631  0.75438747  1
  O  O270  1  0.13025125  0.37815274  0.35629012  1
  O  O271  1  0.11777935  0.37876030  0.86449176  1
  O  O272  1  0.13160460  0.87804252  0.36037187  1
  O  O273  1  0.11406700  0.88092259  0.86870918  1
  O  O274  1  0.62802548  0.36340821  0.36220282  1
  O  O275  1  0.63573162  0.35757502  0.87964808  1
  O  O276  1  0.60788169  0.88072563  0.35939011  1
  O  O277  1  0.66529329  0.87628590  0.83580335  1
  O  O278  1  0.38232576  0.13273145  0.12463942  1
  O  O279  1  0.38206494  0.11374411  0.63266242  1
  O  O280  1  0.38299777  0.63144447  0.12601121  1
  O  O281  1  0.37260547  0.62019819  0.63990914  1
  O  O282  1  0.88316052  0.13427362  0.13205764  1
  O  O283  1  0.88477414  0.12026171  0.63964024  1
  O  O284  1  0.87334320  0.62825726  0.13191616  1
  O  O285  1  0.87854634  0.63287217  0.63250456  1
  O  O286  1  0.25712365  0.25533198  0.11836517  1
  O  O287  1  0.26793049  0.24605460  0.62246544  1
  O  O288  1  0.26228324  0.74754928  0.11145526  1
  O  O289  1  0.25406918  0.76574550  0.62121898  1
  O  O290  1  0.76174602  0.24411259  0.11354667  1
  O  O291  1  0.74315713  0.25132633  0.61049891  1
  O  O292  1  0.75420151  0.74598502  0.11644987  1
  O  O293  1  0.76479885  0.75132067  0.62495066  1
  O  O294  1  0.24921673  0.23768336  0.36645501  1
  O  O295  1  0.25545253  0.25507142  0.88727306  1
  O  O296  1  0.24351348  0.73641554  0.38067625  1
  O  O297  1  0.25542174  0.74070289  0.88438081  1
  O  O298  1  0.73696889  0.25370854  0.38857322  1
  O  O299  1  0.74740842  0.23890118  0.88561792  1
  O  O300  1  0.74776996  0.72715513  0.34823985  1
  O  O301  1  0.76062063  0.73521325  0.88946570  1
  O  O302  1  0.01456071  0.13353331  0.01342276  1
  O  O303  1  -0.00597293  0.11525299  0.51878301  1
  O  O304  1  0.01196661  0.61540022  -0.00999340  1
  O  O305  1  0.00615847  0.61565870  0.51746792  1
  O  O306  1  0.50911434  0.11729700  0.00431199  1
  O  O307  1  0.50917344  0.11427638  0.49474610  1
  O  O308  1  0.50502447  0.61826114  0.00499928  1
  O  O309  1  0.53173956  0.66274542  0.49843613  1
  O  O310  1  0.50308604  0.38201606  0.48189603  1
  O  O311  1  0.50212819  0.38716008  1.00260113  1
  O  O312  1  0.49400412  0.88190990  0.49183512  1
  O  O313  1  0.49135890  0.88329739  1.00234424  1
  O  O314  1  0.98413249  0.38491442  0.50520705  1
  O  O315  1  0.99465545  0.38028727  0.99533703  1
  O  O316  1  1.00005753  0.88651827  0.49986838  1
  O  O317  1  1.00149874  0.86605737  0.98797830  1
  O  O318  1  0.49497143  0.48582920  0.35509592  1
  O  O319  1  0.48544335  0.50394543  0.87964880  1
  O  O320  1  0.49679074  0.99298479  0.38379060  1
  O  O321  1  0.49032260  1.00549546  0.88720953  1
  O  O322  1  0.98509107  0.51493898  0.39467073  1
  O  O323  1  0.99583510  0.49158125  0.88662211  1
  O  O324  1  1.00357618  1.00970329  0.39451737  1
  O  O325  1  0.99563739  0.98512994  0.87487702  1
  O  O326  1  0.01148511  0.01363075  0.13004380  1
  O  O327  1  0.00685421  0.00258697  0.61765701  1
  O  O328  1  0.01100252  0.49429287  0.11021861  1
  O  O329  1  0.00055608  0.50739744  0.62375804  1
  O  O330  1  0.49111069  0.01199863  0.10946993  1
  O  O331  1  0.51345192  -0.00934211  0.61261483  1
  O  O332  1  0.50624381  0.50578567  0.11493890  1
  O  O333  1  0.51568262  0.50705015  0.62451184  1
  O  O334  1  0.23515042  0.36782539  0.23491181  1
  O  O335  1  0.23405426  0.38708227  0.75697930  1
  O  O336  1  0.24683425  0.88737344  0.24665926  1
  O  O337  1  0.23975521  0.86951877  0.74242800  1
  O  O338  1  0.74087897  0.38389565  0.24861666  1
  O  O339  1  0.76477961  0.38931292  0.75603442  1
  O  O340  1  0.73332773  0.88571949  0.25081355  1
  O  O341  1  0.72283523  0.87299527  0.78358401  1
  O  O342  1  0.25001370  0.11505541  0.25355274  1
  O  O343  1  0.27179592  0.12609007  0.75095419  1
  O  O344  1  0.26382657  0.62535490  0.24692793  1
  O  O345  1  0.25436647  0.61819484  0.75479183  1
  O  O346  1  0.75702554  0.11723173  0.24375028  1
  O  O347  1  0.76437375  0.13023386  0.75861571  1
  O  O348  1  0.75411388  0.60560086  0.24849428  1
  O  O349  1  0.75861584  0.62030028  0.75922335  1
  O  O350  1  0.36420627  0.12563327  0.37072606  1
  O  O351  1  0.36876443  0.11399522  0.88331090  1
  O  O352  1  0.38017970  0.62880254  0.35270227  1
  O  O353  1  0.36198308  0.61587149  0.86625272  1
  O  O354  1  0.87801787  0.12831767  0.36437868  1
  O  O355  1  0.87242030  0.12041155  0.86835232  1
  O  O356  1  0.86362075  0.60944663  0.35410222  1
  O  O357  1  0.87010816  0.61956144  0.86978626  1
  O  O358  1  0.13198650  0.37985179  0.12684962  1
  O  O359  1  0.11116168  0.38818011  0.64483951  1
  O  O360  1  0.13027723  0.88718732  0.13033070  1
  O  O361  1  0.13056998  0.88285806  0.63210563  1
  O  O362  1  0.62525630  0.38230170  0.12444072  1
  O  O363  1  0.62486586  0.39257802  0.62142977  1
  O  O364  1  0.62280021  0.87727713  0.13308862  1
  O  O365  1  0.63149159  0.88552572  0.62000416  1
  O  O366  1  0.11616085  0.26131369  0.24672497  1
  O  O367  1  0.13249598  0.26397809  0.74500174  1
  O  O368  1  0.13568572  0.76861609  0.24228020  1
  O  O369  1  0.11396064  0.75877877  0.74257776  1
  O  O370  1  0.63200144  0.25281307  0.26061464  1
  O  O371  1  0.62149735  0.24021607  0.76649687  1
  O  O372  1  0.60967494  0.75872687  0.23816744  1
  O  O373  1  0.61441055  0.74273317  0.74853992  1
  O  O374  1  0.37664070  0.25042693  0.23572049  1
  O  O375  1  0.37364085  0.24385263  0.73149054  1
  O  O376  1  0.38154872  0.74595089  0.23538372  1
  O  O377  1  0.37443904  0.73443155  0.75071996  1
  O  O378  1  0.87879706  0.24644859  0.24562080  1
  O  O379  1  0.87924520  0.23629179  0.75624086  1
  O  O380  1  0.87555080  0.72998720  0.23615127  1
  O  O381  1  0.88244365  0.73922538  0.74927693  1
  O  O382  1  0.41029756  0.52064672  0.49438852  1
  O  O383  1  0.38070962  0.50417033  0.98489413  1
  O  O384  1  0.38330245  0.99130785  0.50075075  1
  O  O385  1  0.37804661  0.99302618  0.99043011  1
  O  O386  1  0.87301506  0.48899150  0.49708531  1
  O  O387  1  0.88211147  0.49276116  0.99858760  1
  O  O388  1  0.88590277  1.00254601  0.49986333  1
  O  O389  1  0.87262894  0.99896935  0.98719003  1
  O  O390  1  0.13408830  0.01460136  0.01200460  1
  O  O391  1  0.11275009  -0.00306641  0.51527292  1
  O  O392  1  0.12052005  0.50512578  0.00409259  1
  O  O393  1  0.11266313  0.50400517  0.51566736  1
  O  O394  1  0.61883374  0.00713529  -0.00875632  1
  O  O395  1  0.61798433  0.00928221  0.50489526  1
  O  O396  1  0.61812152  0.50603194  0.00218533  1
  O  O397  1  0.63531911  0.50242709  0.50573805  1
  O  O398  1  0.36479161  0.36604935  0.12659068  1
  O  O399  1  0.36064067  0.38133247  0.61456857  1
  O  O400  1  0.37449151  0.86506926  0.11145034  1
  O  O401  1  0.36618529  0.88146812  0.61894547  1
  O  O402  1  0.88398566  0.36354550  0.11518960  1
  O  O403  1  0.87348572  0.37671585  0.61679638  1
  O  O404  1  0.87173600  0.85375190  0.13372914  1
  O  O405  1  0.86941542  0.86382066  0.63848002  1
  O  O406  1  0.13868359  0.13041909  0.37189908  1
  O  O407  1  0.11581213  0.11753076  0.88971244  1
  O  O408  1  0.12592307  0.61887420  0.40369361  1
  O  O409  1  0.13747268  0.61766838  0.88520799  1
  O  O410  1  0.62850693  0.13450279  0.38630412  1
  O  O411  1  0.63324390  0.13123379  0.88430304  1
  O  O412  1  0.63862598  0.61634310  0.36577600  1
  O  O413  1  0.63395106  0.61599379  0.88506349  1
