# generated using pymatgen
data_V79Zn79O256
_symmetry_space_group_name_H-M   'P 1'
_cell_length_a   16.87258431
_cell_length_b   16.89980076
_cell_length_c   16.86864763
_cell_angle_alpha   90.00811029
_cell_angle_beta   89.96266968
_cell_angle_gamma   90.01721688
_symmetry_Int_Tables_number   1
_chemical_formula_structural   V79Zn79O256
_chemical_formula_sum   'V79 Zn79 O256'
_cell_volume   4809.98078817
_cell_formula_units_Z   1
loop_
 _symmetry_equiv_pos_site_id
 _symmetry_equiv_pos_as_xyz
  1  'x, y, z'
loop_
 _atom_site_type_symbol
 _atom_site_label
 _atom_site_symmetry_multiplicity
 _atom_site_fract_x
 _atom_site_fract_y
 _atom_site_fract_z
 _atom_site_occupancy
  V  V0  1  0.85849942  0.00038546  0.37161039  1
  V  V1  1  -0.00381146  0.63029659  0.13531477  1
  V  V2  1  0.25156117  0.49842238  0.24302933  1
  V  V3  1  0.25289266  0.87352126  0.60453372  1
  V  V4  1  0.62569317  0.37510617  0.26338959  1
  V  V5  1  -0.00419184  -0.00042565  -0.00730520  1
  V  V6  1  0.12205754  0.61435823  0.49521103  1
  V  V7  1  0.00575226  0.26615638  0.75763013  1
  V  V8  1  0.74738942  0.87535223  0.63207126  1
  V  V9  1  -0.00134340  0.87178176  0.36496117  1
  V  V10  1  0.37711969  0.13161691  0.24608432  1
  V  V11  1  0.88523718  0.62723110  0.74594945  1
  V  V12  1  0.00031976  0.00303213  0.49958258  1
  V  V13  1  0.36267790  -0.01123981  0.87566633  1
  V  V14  1  0.50976727  0.35811317  0.86404549  1
  V  V15  1  0.62098080  0.87363332  0.76513559  1
  V  V16  1  0.89269810  0.12142350  0.74655609  1
  V  V17  1  0.13652575  0.87585643  0.75649405  1
  V  V18  1  0.49828200  0.49199881  0.50041604  1
  V  V19  1  0.88931282  0.24298827  0.61117533  1
  V  V20  1  0.63335189  -0.00197792  0.12655939  1
  V  V21  1  0.25191061  0.63171212  0.37835341  1
  V  V22  1  0.11943493  0.24841414  0.37559853  1
  V  V23  1  0.61977460  -0.00384142  0.62480787  1
  V  V24  1  0.75216060  0.49896824  0.74972931  1
  V  V25  1  0.26736599  0.24917611  -0.00159444  1
  V  V26  1  -0.00417043  0.75889058  0.74825548  1
  V  V27  1  0.35110731  0.12309370  0.76007524  1
  V  V28  1  0.74235426  0.74511656  -0.00211016  1
  V  V29  1  0.51024017  0.62696388  0.11235880  1
  V  V30  1  0.12217932  0.13090895  -0.01509950  1
  V  V31  1  0.12418911  0.37401067  0.24508124  1
  V  V32  1  0.88190882  0.75828727  0.13852353  1
  V  V33  1  0.49398764  0.87560707  0.38374114  1
  V  V34  1  0.85067549  0.12525318  0.25703438  1
  V  V35  1  0.37838229  0.62501870  0.24711858  1
  V  V36  1  0.49486950  -0.01017240  -0.00550074  1
  V  V37  1  0.87557771  0.86794551  -0.00864719  1
  V  V38  1  0.49174024  0.12413812  0.63929495  1
  V  V39  1  0.12068505  0.12424732  0.50161670  1
  V  V40  1  0.62218116  0.62507707  0.50542733  1
  V  V41  1  0.24546697  0.38086489  0.63915154  1
  V  V42  1  -0.00577997  0.23990070  0.25066653  1
  V  V43  1  0.37408546  0.00027864  0.37238845  1
  V  V44  1  0.49102461  0.62621067  0.63349638  1
  V  V45  1  0.49488083  0.13797805  0.11868092  1
  V  V46  1  0.63555447  0.13763908  -0.00618497  1
  V  V47  1  0.24963333  0.12088372  0.36776550  1
  V  V48  1  0.37598276  0.76029888  0.12272235  1
  V  V49  1  0.75219174  0.37286568  0.11214208  1
  V  V50  1  0.62492040  0.75139499  0.37699843  1
  V  V51  1  0.12849153  -0.00064872  0.62391654  1
  V  V52  1  0.49600842  0.00641702  0.50080383  1
  V  V53  1  0.87597852  0.86876210  0.50608390  1
  V  V54  1  0.87865572  0.39715372  0.49555534  1
  V  V55  1  0.76184611  0.62051644  0.37206304  1
  V  V56  1  -0.00057055  0.49131834  -0.00242391  1
  V  V57  1  0.50094482  0.75445060  0.25352927  1
  V  V58  1  0.75570645  0.37201184  0.62237456  1
  V  V59  1  0.49032948  0.75785528  0.76102271  1
  V  V60  1  0.12642126  0.75265730  0.38067067  1
  V  V61  1  0.63095422  0.51180326  0.11403680  1
  V  V62  1  0.36836925  0.75041994  0.61065531  1
  V  V63  1  0.74850579  0.12531566  0.85040458  1
  V  V64  1  0.38446912  0.50159050  0.86911723  1
  V  V65  1  0.12400774  0.62782068  -0.00385499  1
  V  V66  1  0.87154423  0.24779132  0.11292233  1
  V  V67  1  0.12240541  0.50146053  0.63851860  1
  V  V68  1  0.87813215  0.48747743  0.87871242  1
  V  V69  1  0.12136580  0.01481308  0.13164780  1
  V  V70  1  0.75115146  0.74808545  0.51379376  1
  V  V71  1  0.62409593  0.49349826  0.63181261  1
  V  V72  1  -0.00653047  0.38613822  0.37568304  1
  V  V73  1  0.25133785  0.75595095  0.00336321  1
  V  V74  1  0.62490575  0.23510240  0.40437324  1
  V  V75  1  0.13085782  0.87012846  0.24223758  1
  V  V76  1  0.38231795  0.49628647  0.37396004  1
  V  V77  1  0.37087008  0.37271317  0.49868222  1
  V  V78  1  0.25202951  0.61912098  0.85999846  1
  Zn  Zn79  1  0.49874288  0.26231793  0.25772868  1
  Zn  Zn80  1  0.12878115  0.26809059  0.87083064  1
  Zn  Zn81  1  0.87154845  -0.00688213  0.86225538  1
  Zn  Zn82  1  0.26313367  0.89116699  0.12508487  1
  Zn  Zn83  1  0.39222785  0.39071084  0.00766878  1
  Zn  Zn84  1  0.28135406  0.35241629  0.13482654  1
  Zn  Zn85  1  0.24972622  0.24948205  0.50178213  1
  Zn  Zn86  1  0.76136095  0.50017340  0.25380815  1
  Zn  Zn87  1  0.74378552  0.62272116  0.88412365  1
  Zn  Zn88  1  0.64259371  0.89524213  0.25447774  1
  Zn  Zn89  1  0.12246769  0.75395963  0.87750533  1
  Zn  Zn90  1  0.37136078  0.25638505  0.63889367  1
  Zn  Zn91  1  -0.00569632  0.62532375  0.61205440  1
  Zn  Zn92  1  0.12450738  0.50119180  0.12387988  1
  Zn  Zn93  1  0.63299954  0.26024938  0.81462557  1
  Zn  Zn94  1  0.18789015  0.18760783  0.18531493  1
  Zn  Zn95  1  0.18660191  0.19114762  0.68615646  1
  Zn  Zn96  1  0.18589106  0.68912019  0.18557245  1
  Zn  Zn97  1  0.18214946  0.69116254  0.68260487  1
  Zn  Zn98  1  0.68109397  0.19338831  0.18184377  1
  Zn  Zn99  1  0.70262187  0.17347339  0.63870983  1
  Zn  Zn100  1  0.70607915  0.71705831  0.19773944  1
  Zn  Zn101  1  0.66723685  0.67181540  0.72626227  1
  Zn  Zn102  1  0.31151577  0.31014594  0.31547241  1
  Zn  Zn103  1  0.31522962  0.31289776  0.82100638  1
  Zn  Zn104  1  0.31046883  0.81635382  0.30915394  1
  Zn  Zn105  1  0.31209819  0.80729411  0.81209852  1
  Zn  Zn106  1  0.80238087  0.31263976  0.31324129  1
  Zn  Zn107  1  0.81579429  0.30644333  0.80769730  1
  Zn  Zn108  1  0.81068820  0.81278926  0.31900650  1
  Zn  Zn109  1  0.81086663  0.80974389  0.81457542  1
  Zn  Zn110  1  0.19115552  0.43821160  0.43265506  1
  Zn  Zn111  1  0.20148900  0.43669429  0.94644079  1
  Zn  Zn112  1  0.18879002  0.93854774  0.43182070  1
  Zn  Zn113  1  0.18596052  0.94067493  0.94429781  1
  Zn  Zn114  1  0.68923057  0.43591682  0.44306051  1
  Zn  Zn115  1  0.68346630  0.43389184  0.93215320  1
  Zn  Zn116  1  0.68210470  0.93580133  0.44616743  1
  Zn  Zn117  1  0.69486965  0.94545612  0.94414248  1
  Zn  Zn118  1  0.30811440  0.06680218  0.05629251  1
  Zn  Zn119  1  0.31197717  0.06130497  0.55886634  1
  Zn  Zn120  1  0.31789895  0.56754198  0.05739891  1
  Zn  Zn121  1  0.30814123  0.56221717  0.56497181  1
  Zn  Zn122  1  0.81461005  0.06729896  0.06287163  1
  Zn  Zn123  1  0.81589864  0.05268424  0.56892362  1
  Zn  Zn124  1  0.81558901  0.56659892  0.06738133  1
  Zn  Zn125  1  0.81016767  0.56533388  0.56440785  1
  Zn  Zn126  1  0.44923312  0.44245554  0.18422091  1
  Zn  Zn127  1  0.43137504  0.43998208  0.69319299  1
  Zn  Zn128  1  0.45017192  0.94602226  0.19008903  1
  Zn  Zn129  1  0.42902287  0.93666342  0.69391394  1
  Zn  Zn130  1  0.93306048  0.43827897  0.18593917  1
  Zn  Zn131  1  0.93865671  0.44324235  0.68114266  1
  Zn  Zn132  1  0.93771679  0.94568589  0.18310060  1
  Zn  Zn133  1  0.94277389  0.93567954  0.68281979  1
  Zn  Zn134  1  0.05616670  0.05928044  0.31392344  1
  Zn  Zn135  1  0.06522403  0.05730297  0.81085117  1
  Zn  Zn136  1  0.06265840  0.56313616  0.31191807  1
  Zn  Zn137  1  0.06852020  0.44191178  0.81646962  1
  Zn  Zn138  1  0.56550782  0.07277833  0.31279336  1
  Zn  Zn139  1  0.56164509  0.05711854  0.81343683  1
  Zn  Zn140  1  0.57061157  0.56205627  0.30775772  1
  Zn  Zn141  1  0.56250125  0.56568464  0.82378676  1
  Zn  Zn142  1  0.44386571  0.19166674  0.43818473  1
  Zn  Zn143  1  0.44605912  0.18225973  0.92515071  1
  Zn  Zn144  1  0.43737022  0.68356790  0.44016782  1
  Zn  Zn145  1  0.43056683  0.68676971  0.93795156  1
  Zn  Zn146  1  0.79501817  0.18141990  0.44920283  1
  Zn  Zn147  1  0.94168322  0.18488887  0.93235429  1
  Zn  Zn148  1  0.94162549  0.69031529  0.43389356  1
  Zn  Zn149  1  0.93990800  0.68035367  0.92831920  1
  Zn  Zn150  1  0.05717552  0.30740632  0.06552501  1
  Zn  Zn151  1  0.06275753  0.31759979  0.56068769  1
  Zn  Zn152  1  0.05841629  0.81531114  0.05937218  1
  Zn  Zn153  1  0.06217199  0.80981516  0.56306775  1
  Zn  Zn154  1  0.56464308  0.32297681  0.05765574  1
  Zn  Zn155  1  0.58145822  0.28817997  0.61389481  1
  Zn  Zn156  1  0.56212584  0.81589552  0.06417154  1
  Zn  Zn157  1  0.55808320  0.81301466  0.56706650  1
  O  O158  1  0.11957571  0.11680163  0.12231693  1
  O  O159  1  0.13568271  0.11187868  0.61274357  1
  O  O160  1  0.11463951  0.62602566  0.11733312  1
  O  O161  1  0.13373882  0.61280968  0.61219880  1
  O  O162  1  0.61662336  0.12109314  0.11309784  1
  O  O163  1  0.60176588  0.10408542  0.63158992  1
  O  O164  1  0.62579054  0.61749509  0.13401347  1
  O  O165  1  0.61655774  0.61768875  0.61949109  1
  O  O166  1  0.36980219  0.38832756  0.38144926  1
  O  O167  1  0.38579187  0.38547698  0.87767721  1
  O  O168  1  0.38404740  0.88591761  0.36283010  1
  O  O169  1  0.37093521  0.88846906  0.86978815  1
  O  O170  1  0.88359573  0.37074628  0.38495297  1
  O  O171  1  0.87010984  0.38855646  0.87244941  1
  O  O172  1  0.88136428  0.87836439  0.38228172  1
  O  O173  1  0.87464353  0.87876282  0.88528669  1
  O  O174  1  0.25872403  0.01044523  0.37594421  1
  O  O175  1  0.26373802  0.00263434  0.88996622  1
  O  O176  1  0.26041296  0.50941442  0.36238298  1
  O  O177  1  0.25117929  0.51581142  0.87515363  1
  O  O178  1  0.75950309  -0.01839147  0.37519182  1
  O  O179  1  0.75774406  0.02001445  0.87920041  1
  O  O180  1  0.74325338  0.51836007  0.38098136  1
  O  O181  1  0.75969491  0.49889915  0.86720725  1
  O  O182  1  0.25192493  0.50534688  0.13854871  1
  O  O183  1  0.24108866  0.48965721  0.62304692  1
  O  O184  1  0.22852489  1.00024225  0.11218792  1
  O  O185  1  0.24162496  0.98411139  0.61537364  1
  O  O186  1  0.74637794  0.49387194  0.12756112  1
  O  O187  1  0.74407173  0.49243424  0.62793333  1
  O  O188  1  0.73298348  1.00684656  0.11770080  1
  O  O189  1  0.73652048  0.98384586  0.62364697  1
  O  O190  1  0.00358126  0.36707718  0.26064897  1
  O  O191  1  -0.00124893  0.37051573  0.74991856  1
  O  O192  1  0.00888581  0.88495402  0.25979353  1
  O  O193  1  0.00679933  0.86353687  0.74423984  1
  O  O194  1  0.52017623  0.38031017  0.24891183  1
  O  O195  1  0.49504851  0.37677113  0.76252046  1
  O  O196  1  0.50773504  0.86517921  0.26098710  1
  O  O197  1  0.50582396  0.86729958  0.75074550  1
  O  O198  1  0.49655838  0.13103436  0.23385609  1
  O  O199  1  0.49036824  0.11679102  0.74138607  1
  O  O200  1  0.48985875  0.63086480  0.24798280  1
  O  O201  1  0.50473087  0.63987985  0.73732058  1
  O  O202  1  0.99164436  0.13687151  0.25818827  1
  O  O203  1  0.99504345  0.13483390  0.75427076  1
  O  O204  1  1.00648286  0.62354443  0.23453710  1
  O  O205  1  0.98779111  0.63117030  0.74653906  1
  O  O206  1  0.36676233  0.23646841  -0.00574330  1
  O  O207  1  0.37377838  0.26419719  0.49798979  1
  O  O208  1  0.36693362  0.74721579  0.01414896  1
  O  O209  1  0.37617008  0.75140577  0.51057411  1
  O  O210  1  0.88111667  0.24048705  0.01462535  1
  O  O211  1  0.88382572  0.24522079  0.51106304  1
  O  O212  1  0.88249610  0.76270973  -0.00197843  1
  O  O213  1  0.86721470  0.76075995  0.49734416  1
  O  O214  1  0.12170122  0.24130367  0.49252602  1
  O  O215  1  0.11163448  0.23594686  0.99676151  1
  O  O216  1  0.12683034  0.74452456  0.48581536  1
  O  O217  1  0.12954952  0.74520301  0.99896386  1
  O  O218  1  0.61858598  0.25144918  0.50340126  1
  O  O219  1  0.62373241  0.23599281  1.00044834  1
  O  O220  1  0.62738669  0.74334796  0.49746756  1
  O  O221  1  0.64446208  0.75842561  1.01263158  1
  O  O222  1  0.50592006  0.23870875  0.12133978  1
  O  O223  1  0.48509754  0.22716828  0.62115460  1
  O  O224  1  0.49678009  0.74687628  0.13552856  1
  O  O225  1  0.48538420  0.74523641  0.62653779  1
  O  O226  1  0.97972727  0.25977867  0.13961914  1
  O  O227  1  0.99313448  0.25999016  0.63408246  1
  O  O228  1  0.99457673  0.74009562  0.12107757  1
  O  O229  1  1.01053784  0.74134768  0.64020667  1
  O  O230  1  0.01283805  0.26046646  0.36688291  1
  O  O231  1  -0.00091805  0.25517489  0.86113379  1
  O  O232  1  0.01040643  0.76257531  0.37495499  1
  O  O233  1  0.00597964  0.74330727  0.85428216  1
  O  O234  1  0.51995065  0.24881389  0.37506362  1
  O  O235  1  0.51143508  0.25369741  0.86159545  1
  O  O236  1  0.50218056  0.75609981  0.37425052  1
  O  O237  1  0.48890125  0.74638662  0.85980120  1
  O  O238  1  0.24070346  0.12668897  0.48798647  1
  O  O239  1  0.23110276  0.13673218  1.00282288  1
  O  O240  1  0.24370661  0.62069196  0.48413753  1
  O  O241  1  0.23974257  0.63791974  1.00618929  1
  O  O242  1  0.74543159  0.13289060  0.53837283  1
  O  O243  1  0.73806198  0.12625766  0.99479941  1
  O  O244  1  0.73956732  0.63016403  0.49912638  1
  O  O245  1  0.75620172  0.63914330  1.00028247  1
  O  O246  1  0.26093677  0.36019918  0.01055538  1
  O  O247  1  0.25915295  0.37600773  0.50265902  1
  O  O248  1  0.23941412  0.86019250  0.00819962  1
  O  O249  1  0.24615249  0.86954799  0.50521083  1
  O  O250  1  0.74781279  0.37840483  0.01265824  1
  O  O251  1  0.76942539  0.38037766  0.50681511  1
  O  O252  1  0.76864186  0.86960462  0.00138983  1
  O  O253  1  0.75557778  0.86618736  0.50881076  1
  O  O254  1  0.13535776  0.49177539  0.25081443  1
  O  O255  1  0.12460332  0.50445416  0.73732686  1
  O  O256  1  0.11830498  0.99515842  0.23753868  1
  O  O257  1  0.11505765  0.98484614  0.73646375  1
  O  O258  1  0.63561305  0.49120404  0.24511217  1
  O  O259  1  0.63446493  0.50301676  0.73687227  1
  O  O260  1  0.61809747  1.00640292  0.23476529  1
  O  O261  1  0.61304618  0.98144100  0.73979502  1
  O  O262  1  0.38650014  0.01657224  0.26155160  1
  O  O263  1  0.37368557  0.00748101  0.76530834  1
  O  O264  1  0.37356049  0.50760573  0.25546662  1
  O  O265  1  0.36970542  0.50248597  0.76756560  1
  O  O266  1  0.87839288  0.01695899  0.25590463  1
  O  O267  1  0.88962847  0.01589165  0.74547245  1
  O  O268  1  0.87263016  0.50282635  0.25106631  1
  O  O269  1  0.87606271  0.50649579  0.75978611  1
  O  O270  1  0.11827223  0.36903499  0.36719796  1
  O  O271  1  0.12742633  0.37985305  0.88527070  1
  O  O272  1  0.12000707  0.87194005  0.36525860  1
  O  O273  1  0.13180447  0.87876804  0.85971858  1
  O  O274  1  0.63103295  0.37229469  0.36711109  1
  O  O275  1  0.61702678  0.37133623  0.86480835  1
  O  O276  1  0.61545434  0.86336080  0.37824348  1
  O  O277  1  0.63338680  0.88218707  0.86317509  1
  O  O278  1  0.38644422  0.12113710  0.12999916  1
  O  O279  1  0.37727162  0.11441269  0.63984095  1
  O  O280  1  0.38652849  0.63296434  0.13278710  1
  O  O281  1  0.37772130  0.63714853  0.62062211  1
  O  O282  1  0.86486178  0.14033710  0.14015176  1
  O  O283  1  0.88142812  0.13499329  0.63584384  1
  O  O284  1  0.89026058  0.63836029  0.12080160  1
  O  O285  1  0.88010078  0.61550729  0.63755211  1
  O  O286  1  0.24414545  0.24660518  0.10839810  1
  O  O287  1  0.24863985  0.26575756  0.61975320  1
  O  O288  1  0.26134292  0.75243238  0.12320111  1
  O  O289  1  0.25937736  0.75852954  0.62457123  1
  O  O290  1  0.75807004  0.26229916  0.12474294  1
  O  O291  1  0.78111777  0.26740238  0.63225398  1
  O  O292  1  0.77687257  0.74513684  0.10968107  1
  O  O293  1  0.74130679  0.75610110  0.61639941  1
  O  O294  1  0.23532571  0.24274952  0.37578900  1
  O  O295  1  0.24401633  0.25484938  0.89365640  1
  O  O296  1  0.24296995  0.74042628  0.36524502  1
  O  O297  1  0.25220078  0.73980482  0.88660203  1
  O  O298  1  0.73361600  0.25325411  0.38406644  1
  O  O299  1  0.74238146  0.23451303  0.85884313  1
  O  O300  1  0.74005550  0.73981187  0.39334377  1
  O  O301  1  0.75543904  0.74980635  0.89356399  1
  O  O302  1  0.00838802  0.11337067  -0.00214299  1
  O  O303  1  0.01358500  0.11043125  0.49312426  1
  O  O304  1  0.00960624  0.62016596  0.00270454  1
  O  O305  1  0.01585925  0.63132748  0.49678528  1
  O  O306  1  0.50875470  0.12211799  0.00672003  1
  O  O307  1  0.48761380  0.11119192  0.51342365  1
  O  O308  1  0.50375542  0.63837761  0.01365398  1
  O  O309  1  0.50429725  0.61728864  0.51190227  1
  O  O310  1  0.48749338  0.39061703  0.50995037  1
  O  O311  1  0.50228583  0.36886236  0.97540348  1
  O  O312  1  0.49789360  0.88070735  0.48939594  1
  O  O313  1  0.50014097  0.89038767  1.00305130  1
  O  O314  1  0.99124839  0.37384641  0.48594838  1
  O  O315  1  1.00183964  0.39345287  1.01064892  1
  O  O316  1  0.99325118  0.87944034  0.49224559  1
  O  O317  1  0.99399505  0.88845543  0.99628741  1
  O  O318  1  0.49032372  0.51143769  0.38526829  1
  O  O319  1  0.48912169  0.50197158  0.87503377  1
  O  O320  1  0.49663935  0.99529736  0.38150379  1
  O  O321  1  0.49353471  1.00469771  0.88989449  1
  O  O322  1  1.00307264  0.48468471  0.36957451  1
  O  O323  1  0.98952344  0.49861879  0.88483960  1
  O  O324  1  0.99037283  0.99040043  0.38289276  1
  O  O325  1  0.99334217  1.00426324  0.88717152  1
  O  O326  1  0.01424445  -0.00302351  0.11136633  1
  O  O327  1  0.01433646  -0.01016974  0.60916247  1
  O  O328  1  -0.00397134  0.51360870  0.11271179  1
  O  O329  1  0.01806908  0.50290345  0.62163451  1
  O  O330  1  0.50600395  0.01345103  0.11237337  1
  O  O331  1  0.49676881  -0.00102757  0.61851143  1
  O  O332  1  0.52014362  0.51426833  0.12825393  1
  O  O333  1  0.50353555  0.50702497  0.62253447  1
  O  O334  1  0.24334511  0.38023456  0.24843191  1
  O  O335  1  0.25137038  0.37140733  0.73755924  1
  O  O336  1  0.23503920  0.88038488  0.24760152  1
  O  O337  1  0.23789966  0.87005237  0.73984559  1
  O  O338  1  0.73991673  0.37801801  0.24111626  1
  O  O339  1  0.76620851  0.38969370  0.73592074  1
  O  O340  1  0.72532275  0.82309080  0.24967377  1
  O  O341  1  0.73550956  0.86173044  0.74168290  1
  O  O342  1  0.25878045  0.13096382  0.25937517  1
  O  O343  1  0.25128660  0.11816934  0.74886514  1
  O  O344  1  0.25983358  0.61986990  0.25488597  1
  O  O345  1  0.24395937  0.63436646  0.76207735  1
  O  O346  1  0.75241264  0.12818364  0.24894071  1
  O  O347  1  0.76108827  0.12010551  0.74865685  1
  O  O348  1  0.74388282  0.63233482  0.27117246  1
  O  O349  1  0.76576202  0.60849459  0.73772258  1
  O  O350  1  0.36873440  0.12142379  0.36945207  1
  O  O351  1  0.37402084  0.11589941  0.86357357  1
  O  O352  1  0.37001839  0.62017238  0.36723278  1
  O  O353  1  0.36150932  0.61781707  0.87744775  1
  O  O354  1  0.85787239  0.11552542  0.36796242  1
  O  O355  1  0.86621879  0.13058866  0.85815586  1
  O  O356  1  0.86088799  0.63155127  0.38254619  1
  O  O357  1  0.86860016  0.61551323  0.86048382  1
  O  O358  1  0.11745849  0.37642542  0.14062157  1
  O  O359  1  0.13534714  0.38883896  0.61767876  1
  O  O360  1  0.12148396  0.87757211  0.13753668  1
  O  O361  1  0.13701798  0.87811721  0.62677856  1
  O  O362  1  0.63606131  0.38722897  0.12855972  1
  O  O363  1  0.64031428  0.38730925  0.61259343  1
  O  O364  1  0.61842510  0.89504596  0.12722340  1
  O  O365  1  0.62931397  0.87932405  0.62904730  1
  O  O366  1  0.11703199  0.25481164  0.25429575  1
  O  O367  1  0.10944983  0.24726212  0.74962355  1
  O  O368  1  0.12622575  0.76404501  0.25731617  1
  O  O369  1  0.11865643  0.76360862  0.75032015  1
  O  O370  1  0.62433169  0.26664341  0.24938975  1
  O  O371  1  0.63839296  0.24361900  0.70367519  1
  O  O372  1  0.60549454  0.73132930  0.26575922  1
  O  O373  1  0.60513120  0.76682706  0.74086808  1
  O  O374  1  0.38149614  0.23873419  0.25832112  1
  O  O375  1  0.36436685  0.23016910  0.75347055  1
  O  O376  1  0.38258398  0.74276214  0.24623679  1
  O  O377  1  0.38593765  0.75770739  0.73611271  1
  O  O378  1  0.87513584  0.23743418  0.25629737  1
  O  O379  1  0.89130636  0.24296531  0.74181372  1
  O  O380  1  0.87948109  0.75896244  0.23760347  1
  O  O381  1  0.88364428  0.74076741  0.75160139  1
  O  O382  1  0.37891055  0.49685501  0.49258073  1
  O  O383  1  0.36605967  0.50153389  0.98169752  1
  O  O384  1  0.38072188  1.00101906  0.48337115  1
  O  O385  1  0.38586951  1.00712766  0.99232543  1
  O  O386  1  0.87980280  0.49551182  0.49901292  1
  O  O387  1  0.88563843  0.50851008  0.98751087  1
  O  O388  1  0.88100114  0.99117668  0.49306674  1
  O  O389  1  0.88617540  0.99408980  1.00677558  1
  O  O390  1  0.11417207  0.01082689  0.00398470  1
  O  O391  1  0.12004652  0.00369651  0.50175649  1
  O  O392  1  0.11527830  0.50896558  0.00310180  1
  O  O393  1  0.12769675  0.51111090  0.49506746  1
  O  O394  1  0.61499760  0.00976209  0.00572957  1
  O  O395  1  0.60909873  -0.00766607  0.51208726  1
  O  O396  1  0.63506665  0.50425168  0.01438770  1
  O  O397  1  0.61669159  0.50725288  0.50832223  1
  O  O398  1  0.39014384  0.37474063  0.12082574  1
  O  O399  1  0.36158886  0.37882909  0.61844786  1
  O  O400  1  0.37844898  0.86501401  0.13996933  1
  O  O401  1  0.36059731  0.86780838  0.62435279  1
  O  O402  1  0.86167418  0.36339184  0.12874878  1
  O  O403  1  0.87882600  0.37412803  0.60734588  1
  O  O404  1  0.88915702  0.86384996  0.11408594  1
  O  O405  1  0.86450837  0.88247332  0.61487571  1
  O  O406  1  0.13008197  0.12829320  0.37844890  1
  O  O407  1  0.12353305  0.12607540  0.88332206  1
  O  O408  1  0.13154593  0.63251453  0.37625481  1
  O  O409  1  0.14060348  0.62867846  0.88941248  1
  O  O410  1  0.62586955  0.13373885  0.38763776  1
  O  O411  1  0.63526269  0.12359089  0.87723204  1
  O  O412  1  0.62197426  0.63334722  0.39121098  1
  O  O413  1  0.64302173  0.63705129  0.83631250  1
