# generated using pymatgen
data_V79Zn79O256
_symmetry_space_group_name_H-M   'P 1'
_cell_length_a   16.93836346
_cell_length_b   16.87218435
_cell_length_c   16.90920481
_cell_angle_alpha   89.97588538
_cell_angle_beta   90.10335245
_cell_angle_gamma   89.92171176
_symmetry_Int_Tables_number   1
_chemical_formula_structural   V79Zn79O256
_chemical_formula_sum   'V79 Zn79 O256'
_cell_volume   4832.42133675
_cell_formula_units_Z   1
loop_
 _symmetry_equiv_pos_site_id
 _symmetry_equiv_pos_as_xyz
  1  'x, y, z'
loop_
 _atom_site_type_symbol
 _atom_site_label
 _atom_site_symmetry_multiplicity
 _atom_site_fract_x
 _atom_site_fract_y
 _atom_site_fract_z
 _atom_site_occupancy
  V  V0  1  0.62209791  0.38537024  0.74839133  1
  V  V1  1  0.25036098  0.50112906  0.75105194  1
  V  V2  1  0.49891306  -0.01106731  0.00226925  1
  V  V3  1  0.62098315  0.87171569  0.23641060  1
  V  V4  1  0.12247524  0.37231088  0.75356952  1
  V  V5  1  0.00159610  0.12058672  0.62419733  1
  V  V6  1  0.61855116  0.74964215  0.38465931  1
  V  V7  1  0.37943955  0.63619022  0.74574320  1
  V  V8  1  0.62755127  0.62054035  -0.00230546  1
  V  V9  1  0.11930381  0.61594654  0.00158314  1
  V  V10  1  0.12591633  0.87246132  0.74481327  1
  V  V11  1  -0.00023924  0.24922921  0.24943669  1
  V  V12  1  0.87312234  0.49454308  0.88773596  1
  V  V13  1  0.86972079  0.24749565  0.62076467  1
  V  V14  1  0.49636963  0.86889777  0.37007576  1
  V  V15  1  0.50018104  0.62695335  0.13802785  1
  V  V16  1  -0.00851441  0.62737240  0.62423490  1
  V  V17  1  0.87252467  0.26182677  0.12235584  1
  V  V18  1  0.75225017  0.12817598  0.87476616  1
  V  V19  1  0.37082406  0.86789584  0.51200095  1
  V  V20  1  0.00291424  0.00033152  -0.01525593  1
  V  V21  1  0.11978270  0.49959558  0.62336662  1
  V  V22  1  0.49828222  0.25761073  0.75370249  1
  V  V23  1  0.49686480  0.14399106  0.12609226  1
  V  V24  1  -0.00700723  0.37731598  0.37208947  1
  V  V25  1  0.11834652  0.62727344  0.49241658  1
  V  V26  1  0.11582783  0.50085865  0.12981638  1
  V  V27  1  0.62621292  0.60699038  0.50049110  1
  V  V28  1  0.37048251  0.61140576  0.25046010  1
  V  V29  1  0.00427140  0.11883046  0.12286310  1
  V  V30  1  0.76348739  0.62646556  0.37752820  1
  V  V31  1  0.12078858  0.76462106  0.36300920  1
  V  V32  1  0.76066276  0.49530192  0.26085385  1
  V  V33  1  0.75302197  0.50207619  0.74809930  1
  V  V34  1  0.62357748  0.13071991  -0.00060419  1
  V  V35  1  0.75377646  0.26544632  0.00350993  1
  V  V36  1  0.76413800  0.86943105  0.61224823  1
  V  V37  1  0.87424283  0.62580604  0.75493712  1
  V  V38  1  0.62693018  0.49832153  0.13876347  1
  V  V39  1  0.73722625  0.74140250  0.01302195  1
  V  V40  1  0.76154543  0.11972236  0.38319242  1
  V  V41  1  0.24975980  -0.00433360  0.24681929  1
  V  V42  1  0.74656318  0.37482337  0.62253521  1
  V  V43  1  0.11965335  0.75181346  0.87434061  1
  V  V44  1  0.61400291  0.36562001  0.25869798  1
  V  V45  1  0.49476735  0.49636682  -0.00224030  1
  V  V46  1  -0.00888575  0.49866441  0.49399573  1
  V  V47  1  -0.00063169  0.37612087  0.88694830  1
  V  V48  1  -0.00784818  -0.00725691  0.48599675  1
  V  V49  1  0.86921224  0.36933247  0.49535555  1
  V  V50  1  0.26002738  0.37618803  0.12934005  1
  V  V51  1  0.25595169  0.37772295  0.62127426  1
  V  V52  1  0.37505129  0.24645019  0.62906441  1
  V  V53  1  0.25729548  0.13097364  0.86868730  1
  V  V54  1  0.50232792  0.12824049  0.63385198  1
  V  V55  1  0.24177623  0.61752692  0.36724767  1
  V  V56  1  0.62522472  0.13942993  0.49587279  1
  V  V57  1  0.12746839  0.12475716  0.50051486  1
  V  V58  1  0.87263749  0.09738202  0.24564381  1
  V  V59  1  0.25920201  0.75347702  -0.00046331  1
  V  V60  1  0.12929137  0.13479049  -0.00851010  1
  V  V61  1  0.74674726  -0.00503761  0.75330653  1
  V  V62  1  0.62286198  -0.00870469  0.62718963  1
  V  V63  1  0.25299657  0.62119397  0.87552442  1
  V  V64  1  0.38146045  0.75349844  0.13373491  1
  V  V65  1  0.49550184  0.37073207  0.39307881  1
  V  V66  1  0.38119513  0.13917917  0.24780988  1
  V  V67  1  0.37716716  -0.00259989  0.37272525  1
  V  V68  1  0.62225220  0.26077891  0.87579588  1
  V  V69  1  0.88352575  0.86732409  0.00164673  1
  V  V70  1  -0.00577333  0.75225699  0.75141758  1
  V  V71  1  0.00214509  0.25129729  0.75149419  1
  V  V72  1  0.25034965  0.87545821  0.12409906  1
  V  V73  1  0.12504175  0.25131033  0.37444771  1
  V  V74  1  0.25483751  0.25459248  0.49982052  1
  V  V75  1  0.25745954  -0.00557001  0.74472664  1
  V  V76  1  0.38109067  -0.01136162  0.87878093  1
  V  V77  1  0.50182149  0.62295232  0.61530808  1
  V  V78  1  0.37386599  0.49969290  0.40301712  1
  Zn  Zn79  1  0.38242312  0.36063426  0.99413425  1
  Zn  Zn80  1  0.25428524  0.12863210  0.37089933  1
  Zn  Zn81  1  0.63321065  0.01233520  0.13836718  1
  Zn  Zn82  1  0.13140958  -0.01306432  0.61962011  1
  Zn  Zn83  1  0.26031756  0.24939627  0.00682821  1
  Zn  Zn84  1  0.87913102  -0.00456092  0.86876494  1
  Zn  Zn85  1  0.75629078  0.87851053  0.12975446  1
  Zn  Zn86  1  0.92056813  0.69398030  0.16688260  1
  Zn  Zn87  1  0.87482064  0.12494923  0.75031537  1
  Zn  Zn88  1  0.12838335  -0.00190875  0.12395561  1
  Zn  Zn89  1  0.24611901  0.75893297  0.50831426  1
  Zn  Zn90  1  0.50085772  -0.00046283  0.50181833  1
  Zn  Zn91  1  0.52415952  0.76266817  0.76151789  1
  Zn  Zn92  1  0.13462259  0.38907097  0.25569755  1
  Zn  Zn93  1  0.39810104  0.49115324  0.85974549  1
  Zn  Zn94  1  0.19111075  0.18750401  0.18563591  1
  Zn  Zn95  1  0.18824666  0.18602146  0.68871831  1
  Zn  Zn96  1  0.18746430  0.68695668  0.18497942  1
  Zn  Zn97  1  0.18533204  0.69161583  0.68456150  1
  Zn  Zn98  1  0.69355652  0.18878345  0.19337923  1
  Zn  Zn99  1  0.68317307  0.18737518  0.69071489  1
  Zn  Zn100  1  0.68693878  0.68819026  0.19468095  1
  Zn  Zn101  1  0.68835424  0.69272674  0.68231313  1
  Zn  Zn102  1  0.31542958  0.32256817  0.31538976  1
  Zn  Zn103  1  0.31599293  0.31687056  0.81467402  1
  Zn  Zn104  1  0.30384612  0.80650465  0.31551684  1
  Zn  Zn105  1  0.31267058  0.81370696  0.81446899  1
  Zn  Zn106  1  0.80488602  0.30294307  0.31053825  1
  Zn  Zn107  1  0.81394566  0.31409136  0.81140149  1
  Zn  Zn108  1  0.78378530  0.79934710  0.29884491  1
  Zn  Zn109  1  0.75548585  0.82893837  0.84931481  1
  Zn  Zn110  1  0.18567737  0.44043348  0.43504571  1
  Zn  Zn111  1  0.19168759  0.43177920  0.94051209  1
  Zn  Zn112  1  0.19170962  0.94158624  0.43793381  1
  Zn  Zn113  1  0.19013531  0.93788672  0.93418520  1
  Zn  Zn114  1  0.68774272  0.43410494  0.43219968  1
  Zn  Zn115  1  0.68541515  0.44650727  0.93634435  1
  Zn  Zn116  1  0.68473131  0.94452052  0.43539064  1
  Zn  Zn117  1  0.69982019  0.94836768  0.96711218  1
  Zn  Zn118  1  0.31799275  0.06592469  0.06122148  1
  Zn  Zn119  1  0.31681093  0.06320789  0.56125880  1
  Zn  Zn120  1  0.30717491  0.55897198  0.06778973  1
  Zn  Zn121  1  0.29885118  0.59301082  0.57264889  1
  Zn  Zn122  1  0.81386286  0.06159777  0.06377452  1
  Zn  Zn123  1  0.81138865  0.05601727  0.56228075  1
  Zn  Zn124  1  0.81217905  0.55453885  0.07841027  1
  Zn  Zn125  1  0.81024885  0.56145842  0.56135228  1
  Zn  Zn126  1  0.44053339  0.43451466  0.18885339  1
  Zn  Zn127  1  0.44014610  0.44437303  0.67486859  1
  Zn  Zn128  1  0.44226346  0.94045845  0.18540813  1
  Zn  Zn129  1  0.44025290  0.93464979  0.69275943  1
  Zn  Zn130  1  0.94230410  0.44331999  0.18361981  1
  Zn  Zn131  1  0.93342233  0.43628135  0.68692938  1
  Zn  Zn132  1  0.91588290  0.88668391  0.21206749  1
  Zn  Zn133  1  0.93558778  0.93533708  0.68864686  1
  Zn  Zn134  1  0.06487800  0.06104212  0.31199567  1
  Zn  Zn135  1  0.07200923  0.06409010  0.80687624  1
  Zn  Zn136  1  0.04764630  0.57278762  0.30157018  1
  Zn  Zn137  1  0.05886788  0.56127305  0.81847471  1
  Zn  Zn138  1  0.56246791  0.06043762  0.31347841  1
  Zn  Zn139  1  0.57500998  -0.05980198  0.81794704  1
  Zn  Zn140  1  0.55642979  0.55748435  0.31960317  1
  Zn  Zn141  1  0.58742201  0.59566713  0.79603766  1
  Zn  Zn142  1  0.43948807  0.18639116  0.44111210  1
  Zn  Zn143  1  0.43616725  0.18545508  0.93185416  1
  Zn  Zn144  1  0.43408454  0.68603498  0.43553076  1
  Zn  Zn145  1  0.43808749  0.67947672  0.94033232  1
  Zn  Zn146  1  0.93720819  0.18232186  0.43508702  1
  Zn  Zn147  1  0.93801001  0.19171641  0.93758719  1
  Zn  Zn148  1  0.93872831  0.70839973  0.32756999  1
  Zn  Zn149  1  0.91116241  0.65895336  0.96886565  1
  Zn  Zn150  1  0.07028080  0.31161095  0.06859638  1
  Zn  Zn151  1  0.06153256  0.31158741  0.56272597  1
  Zn  Zn152  1  0.07058178  0.81560174  0.05109767  1
  Zn  Zn153  1  0.05818992  0.80833685  0.56031045  1
  Zn  Zn154  1  0.56778536  0.31871242  0.06763415  1
  Zn  Zn155  1  0.56243139  0.31735166  0.56442208  1
  Zn  Zn156  1  0.56849160  0.81010762  -0.06655246  1
  Zn  Zn157  1  0.55228998  0.80489560  0.56459390  1
  O  O158  1  0.12240114  0.12409238  0.11097700  1
  O  O159  1  0.11727184  0.12892972  0.61484373  1
  O  O160  1  0.13362953  0.61525981  0.11085663  1
  O  O161  1  0.11268395  0.61272059  0.61745940  1
  O  O162  1  0.61561078  0.13059596  0.12010737  1
  O  O163  1  0.62078754  0.12169357  0.61719332  1
  O  O164  1  0.61493272  0.61742409  0.13253525  1
  O  O165  1  0.62358451  0.62547246  0.60455837  1
  O  O166  1  0.37996088  0.39065493  0.38218544  1
  O  O167  1  0.36357271  0.38825646  0.88364061  1
  O  O168  1  0.37869192  0.88024654  0.37710835  1
  O  O169  1  0.36892104  0.88955211  0.87981398  1
  O  O170  1  0.88186162  0.36038794  0.38314045  1
  O  O171  1  0.88855032  0.38220971  0.87050802  1
  O  O172  1  0.84857181  0.88071242  0.38817502  1
  O  O173  1  0.85393178  0.88587747  0.90011334  1
  O  O174  1  0.26139436  0.00496933  0.36541241  1
  O  O175  1  0.25924237  0.00611986  0.86859183  1
  O  O176  1  0.26225900  0.50277531  0.37573361  1
  O  O177  1  0.23886739  0.50728920  0.86140311  1
  O  O178  1  0.73137587  0.02344740  0.36499118  1
  O  O179  1  0.74668510  0.01580614  0.87177384  1
  O  O180  1  0.75069368  0.51231456  0.37060143  1
  O  O181  1  0.76518350  0.48888820  0.86200157  1
  O  O182  1  0.23582267  0.48658135  0.12023934  1
  O  O183  1  0.23878269  0.49708583  0.63097623  1
  O  O184  1  0.25990663  0.99184618  0.12907738  1
  O  O185  1  0.25171816  1.00952110  0.64149130  1
  O  O186  1  0.73876738  0.50543194  0.14888324  1
  O  O187  1  0.75862292  0.48523452  0.63482980  1
  O  O188  1  0.72850546  0.98751220  0.08066482  1
  O  O189  1  0.73988753  0.99560972  0.63305363  1
  O  O190  1  -0.00108954  0.36575114  0.25770016  1
  O  O191  1  0.00690542  0.36882072  0.74931744  1
  O  O192  1  0.02187395  0.83870366  0.19887469  1
  O  O193  1  0.00785303  0.86201893  0.74552874  1
  O  O194  1  0.50846526  0.37960089  0.26272372  1
  O  O195  1  0.51036987  0.37043558  0.73911057  1
  O  O196  1  0.50275421  0.87368121  0.26282519  1
  O  O197  1  0.50731007  0.87452275  0.75609485  1
  O  O198  1  0.49259557  0.12139821  0.23725859  1
  O  O199  1  0.50876228  0.14646575  0.73636577  1
  O  O200  1  0.48911183  0.62082670  0.24476885  1
  O  O201  1  0.47862043  0.61746253  0.75979237  1
  O  O202  1  0.99258223  0.12858677  0.24319210  1
  O  O203  1  1.00393232  0.13456071  0.74218225  1
  O  O204  1  0.96803428  0.62947755  0.25075439  1
  O  O205  1  0.99543988  0.62663650  0.74266235  1
  O  O206  1  0.37352141  0.24673310  -0.00030672  1
  O  O207  1  0.36154039  0.24673441  0.51030344  1
  O  O208  1  0.36434457  0.73410761  0.01533087  1
  O  O209  1  0.37478532  0.76461131  0.49536715  1
  O  O210  1  0.86953093  0.24449115  0.01448499  1
  O  O211  1  0.88107759  0.25638043  0.50879118  1
  O  O212  1  0.90653600  0.77116614  0.00099279  1
  O  O213  1  0.87927225  0.83444042  0.43682920  1
  O  O214  1  0.13196724  0.24404310  0.49642042  1
  O  O215  1  0.12821630  0.23671173  0.99873767  1
  O  O216  1  0.12424507  0.73796489  0.49313889  1
  O  O217  1  0.13750967  0.74085142  0.99249128  1
  O  O218  1  0.62655109  0.23875281  0.50831221  1
  O  O219  1  0.63120748  0.25053584  0.99683486  1
  O  O220  1  0.62128198  0.74535019  0.48806115  1
  O  O221  1  0.63077501  0.73535858  1.00536135  1
  O  O222  1  0.50162562  0.24261611  0.12654039  1
  O  O223  1  0.49127794  0.25023567  0.62970120  1
  O  O224  1  0.48297417  0.73783793  0.12275793  1
  O  O225  1  0.51262978  0.72875978  0.64192549  1
  O  O226  1  0.99328873  0.24068637  0.12912797  1
  O  O227  1  0.99266594  0.24284679  0.63018824  1
  O  O228  1  1.01189433  0.77785376  0.14451622  1
  O  O229  1  1.00473486  0.73594168  0.63517684  1
  O  O230  1  0.00344703  0.25522828  0.36821548  1
  O  O231  1  -0.00686673  0.26261812  0.86164560  1
  O  O232  1  0.02091543  0.76055961  0.38150543  1
  O  O233  1  0.01618595  0.74093059  0.86296345  1
  O  O234  1  0.48581887  0.27102398  0.38173358  1
  O  O235  1  0.50989330  0.24768853  0.86463198  1
  O  O236  1  0.50757368  0.75486424  0.37705791  1
  O  O237  1  0.49678259  0.74788623  0.87646311  1
  O  O238  1  0.24300966  0.13524724  0.50045988  1
  O  O239  1  0.24149454  0.12244815  0.99109856  1
  O  O240  1  0.22533011  0.60760488  0.48236546  1
  O  O241  1  0.24477118  0.62947579  0.99063227  1
  O  O242  1  0.74303864  0.12370493  0.49022961  1
  O  O243  1  0.74086094  0.13790307  0.99561048  1
  O  O244  1  0.73674381  0.61543565  0.48943053  1
  O  O245  1  0.73106754  0.62515607  1.02229421  1
  O  O246  1  0.25070437  0.36983933  0.01230887  1
  O  O247  1  0.23819338  0.36619775  0.51143437  1
  O  O248  1  0.25230242  0.86211829  0.00345873  1
  O  O249  1  0.26525091  0.87760012  0.50127001  1
  O  O250  1  0.74376845  0.36481899  -0.00106778  1
  O  O251  1  0.75937468  0.38059542  0.50656013  1
  O  O252  1  0.75975995  0.85010054  0.01128240  1
  O  O253  1  0.74593885  0.88746235  0.51402810  1
  O  O254  1  0.11821262  0.50742172  0.23532484  1
  O  O255  1  0.12826298  0.49513302  0.74069204  1
  O  O256  1  0.14541527  1.01344684  0.24464992  1
  O  O257  1  0.13553482  0.98868406  0.74789120  1
  O  O258  1  0.62810090  0.49479337  0.25187902  1
  O  O259  1  0.63816385  0.49404747  0.75925358  1
  O  O260  1  0.61049314  0.98228772  0.24624926  1
  O  O261  1  0.63349350  1.00551860  0.73667722  1
  O  O262  1  0.37142307  0.00612351  0.25682461  1
  O  O263  1  0.36366959  -0.00314494  0.76083134  1
  O  O264  1  0.37415636  0.51025403  0.25071166  1
  O  O265  1  0.36073580  0.50449006  0.74458317  1
  O  O266  1  0.89005283  -0.00085270  0.24472742  1
  O  O267  1  0.86562158  0.00589455  0.75232477  1
  O  O268  1  0.85904634  0.48756588  0.24843870  1
  O  O269  1  0.87074948  0.50445865  0.75617072  1
  O  O270  1  0.11356550  0.36963197  0.37231580  1
  O  O271  1  0.11241855  0.38365345  0.86228185  1
  O  O272  1  0.14357576  0.86268457  0.37359768  1
  O  O273  1  0.13331424  0.86133021  0.86338964  1
  O  O274  1  0.60729851  0.38071540  0.37019082  1
  O  O275  1  0.63014089  0.36873944  0.86575806  1
  O  O276  1  0.61536593  0.86504129  0.37751525  1
  O  O277  1  0.64857204  0.87880489  0.88633352  1
  O  O278  1  0.38709642  0.12560352  0.13521338  1
  O  O279  1  0.38539860  0.13694430  0.62211572  1
  O  O280  1  0.37783643  0.62813230  0.13439214  1
  O  O281  1  0.39164775  0.62209619  0.63691484  1
  O  O282  1  0.88577384  0.12576752  0.13356189  1
  O  O283  1  0.88332909  0.13237257  0.62380145  1
  O  O284  1  0.88580438  0.63612725  0.07921475  1
  O  O285  1  0.88557864  0.61614631  0.63337780  1
  O  O286  1  0.24041300  0.26838000  0.12391033  1
  O  O287  1  0.25586543  0.25691791  0.62228263  1
  O  O288  1  0.25798065  0.75539581  0.11862894  1
  O  O289  1  0.25808088  0.70078873  0.60423384  1
  O  O290  1  0.76574477  0.24782548  0.12107278  1
  O  O291  1  0.76115298  0.25905066  0.63363340  1
  O  O292  1  0.75440945  0.74658859  0.12069585  1
  O  O293  1  0.74350180  0.77145581  0.62684424  1
  O  O294  1  0.24570212  0.25291200  0.38451778  1
  O  O295  1  0.25374181  0.23289190  0.86786625  1
  O  O296  1  0.24220548  0.73340355  0.38517834  1
  O  O297  1  0.24587491  0.73976081  0.88047444  1
  O  O298  1  0.74110722  0.21559280  0.34955842  1
  O  O299  1  0.74570494  0.24960090  0.88209671  1
  O  O300  1  0.73245167  0.73399513  0.37688533  1
  O  O301  1  0.77068594  0.73319130  0.91538842  1
  O  O302  1  0.01311485  0.12303906  0.00038105  1
  O  O303  1  0.00972915  0.11968712  0.50503508  1
  O  O304  1  0.02321589  0.63060240  -0.01104770  1
  O  O305  1  0.00519793  0.61268887  0.50733493  1
  O  O306  1  0.50659895  0.12982251  0.01227375  1
  O  O307  1  0.50899792  0.12618030  0.51345173  1
  O  O308  1  0.51276289  0.61736516  0.01583581  1
  O  O309  1  0.50579008  0.62787438  0.50953170  1
  O  O310  1  0.50339608  0.38184942  0.49322485  1
  O  O311  1  0.50008683  0.39206877  1.01141864  1
  O  O312  1  0.48882583  0.87648621  0.49012087  1
  O  O313  1  0.51050722  0.89137262  1.00173128  1
  O  O314  1  0.99190462  0.37830840  0.49241631  1
  O  O315  1  1.00821498  0.36461305  0.98450601  1
  O  O316  1  1.00848339  0.89574509  0.51082482  1
  O  O317  1  0.99850745  0.89391009  0.99964232  1
  O  O318  1  0.47889018  0.49813840  0.38114893  1
  O  O319  1  0.50782651  0.50859674  0.89687897  1
  O  O320  1  0.49032293  0.99024944  0.37736785  1
  O  O321  1  0.48749448  1.00103206  0.88257707  1
  O  O322  1  1.00201646  0.48724744  0.38124914  1
  O  O323  1  0.98974787  0.48585738  0.87376911  1
  O  O324  1  1.00635088  0.99942128  0.38571406  1
  O  O325  1  1.00223193  1.00816206  0.88129071  1
  O  O326  1  0.00693019  0.01490639  0.11145974  1
  O  O327  1  0.00492675  0.01322607  0.62491818  1
  O  O328  1  0.01557064  0.49593772  0.11567758  1
  O  O329  1  0.00444061  0.50168897  0.61774191  1
  O  O330  1  0.50197972  0.00912798  0.11056106  1
  O  O331  1  0.51007550  0.01077536  0.62984932  1
  O  O332  1  0.50819723  0.50939751  0.12396399  1
  O  O333  1  0.51191768  0.52280979  0.63786316  1
  O  O334  1  0.24877542  0.37358928  0.23820081  1
  O  O335  1  0.24022957  0.38174808  0.74128017  1
  O  O336  1  0.25981556  0.88517919  0.23930278  1
  O  O337  1  0.24464341  0.88704332  0.75278526  1
  O  O338  1  0.73327052  0.38843986  0.27180695  1
  O  O339  1  0.74399730  0.38115386  0.74219606  1
  O  O340  1  0.72918145  0.88114616  0.24336047  1
  O  O341  1  0.75173733  0.88986561  0.74650982  1
  O  O342  1  0.26785652  0.11909700  0.24647793  1
  O  O343  1  0.23834688  0.11107514  0.76257341  1
  O  O344  1  0.25514071  0.62406514  0.26002765  1
  O  O345  1  0.25606040  0.61837448  0.75573590  1
  O  O346  1  0.77100180  0.11031352  0.23630069  1
  O  O347  1  0.74938603  0.12052705  0.75921274  1
  O  O348  1  0.74786188  0.61429337  0.26810547  1
  O  O349  1  0.76409586  0.61241005  0.73735522  1
  O  O350  1  0.38111946  0.11679658  0.36407584  1
  O  O351  1  0.36134661  0.11293460  0.87547060  1
  O  O352  1  0.36482280  0.61485448  0.37250494  1
  O  O353  1  0.36377002  0.61467221  0.86673553  1
  O  O354  1  0.86932131  0.12079768  0.36032719  1
  O  O355  1  0.86211665  0.12997408  0.87445211  1
  O  O356  1  0.86006749  0.64037477  0.38775656  1
  O  O357  1  0.88435948  0.60424414  0.86843856  1
  O  O358  1  0.12836718  0.38755661  0.13059870  1
  O  O359  1  0.12987892  0.38314848  0.63107252  1
  O  O360  1  0.14658914  0.87984846  0.11518269  1
  O  O361  1  0.12784327  0.86797521  0.63883316  1
  O  O362  1  0.61912584  0.38786910  0.14512285  1
  O  O363  1  0.63659120  0.37070949  0.63534350  1
  O  O364  1  0.61266641  0.86434688  0.13892671  1
  O  O365  1  0.62120981  0.89060950  0.61872168  1
  O  O366  1  0.11054478  0.24323556  0.25493922  1
  O  O367  1  0.11552675  0.26154642  0.74152351  1
  O  O368  1  0.13288323  0.74442225  0.26448428  1
  O  O369  1  0.12004647  0.75197203  0.75531129  1
  O  O370  1  0.62758635  0.26739605  0.24489477  1
  O  O371  1  0.61980193  0.26353799  0.75701874  1
  O  O372  1  0.62589917  0.76100489  0.26639904  1
  O  O373  1  0.62173331  0.70217053  0.76946599  1
  O  O374  1  0.37430352  0.23709515  0.25808328  1
  O  O375  1  0.38416792  0.25834691  0.73942986  1
  O  O376  1  0.36642438  0.73741338  0.23835143  1
  O  O377  1  0.37049224  0.73609060  0.75365774  1
  O  O378  1  0.88445625  0.24365582  0.23838721  1
  O  O379  1  0.88530014  0.25037904  0.73870679  1
  O  O380  1  0.88166208  0.77817873  0.24917553  1
  O  O381  1  0.88758140  0.73307323  0.76015975  1
  O  O382  1  0.36557861  0.51332504  0.50074332  1
  O  O383  1  0.39258830  0.50963969  1.00545460  1
  O  O384  1  0.37609962  0.99389872  0.48877198  1
  O  O385  1  0.38831870  1.00566245  0.99070076  1
  O  O386  1  0.88456810  0.48670380  0.50460991  1
  O  O387  1  0.86132286  0.49610872  0.98593016  1
  O  O388  1  0.89295995  1.00935276  0.49927791  1
  O  O389  1  0.89633505  1.01035045  0.99481793  1
  O  O390  1  0.11667502  0.00781524  -0.00188499  1
  O  O391  1  0.12361211  0.01134557  0.50317502  1
  O  O392  1  0.12897828  0.51152259  0.00148662  1
  O  O393  1  0.11072571  0.50024125  0.50614084  1
  O  O394  1  0.60497801  0.02162031  -0.01348445  1
  O  O395  1  0.62244548  0.01242501  0.51519486  1
  O  O396  1  0.62171210  0.50456704  0.01776752  1
  O  O397  1  0.62002600  0.50853268  0.49292571  1
  O  O398  1  0.36301744  0.38299266  0.12250971  1
  O  O399  1  0.36189702  0.36998164  0.62663471  1
  O  O400  1  0.37268457  0.85914899  0.12896126  1
  O  O401  1  0.38311435  0.88119316  0.61013169  1
  O  O402  1  0.88310319  0.36017692  0.12600563  1
  O  O403  1  0.86931452  0.36593203  0.61593871  1
  O  O404  1  0.87162227  0.89419142  0.10467340  1
  O  O405  1  0.86410150  0.87853432  0.62143072  1
  O  O406  1  0.12851459  0.13256596  0.38523197  1
  O  O407  1  0.13676845  0.12114572  0.88549388  1
  O  O408  1  0.12378768  0.62464434  0.37703091  1
  O  O409  1  0.13543367  0.62940220  0.87965820  1
  O  O410  1  0.61395448  0.12458285  0.39471332  1
  O  O411  1  0.63619105  0.14681880  0.88592519  1
  O  O412  1  0.61733096  0.63303036  0.38641140  1
  O  O413  1  0.63330860  0.60646215  0.90147185  1
