# generated using pymatgen
data_V79Zn79O256
_symmetry_space_group_name_H-M   'P 1'
_cell_length_a   16.84955479
_cell_length_b   16.85465186
_cell_length_c   16.85212413
_cell_angle_alpha   89.96834153
_cell_angle_beta   90.01300819
_cell_angle_gamma   89.96897404
_symmetry_Int_Tables_number   1
_chemical_formula_structural   V79Zn79O256
_chemical_formula_sum   'V79 Zn79 O256'
_cell_volume   4785.89013579
_cell_formula_units_Z   1
loop_
 _symmetry_equiv_pos_site_id
 _symmetry_equiv_pos_as_xyz
  1  'x, y, z'
loop_
 _atom_site_type_symbol
 _atom_site_label
 _atom_site_symmetry_multiplicity
 _atom_site_fract_x
 _atom_site_fract_y
 _atom_site_fract_z
 _atom_site_occupancy
  V  V0  1  0.63915719  0.49643921  0.12590700  1
  V  V1  1  0.37505293  0.75712249  0.61957146  1
  V  V2  1  0.36968920  0.12602130  0.24975565  1
  V  V3  1  0.37523708  0.11990092  0.76094061  1
  V  V4  1  0.76098992  -0.00418457  0.74512675  1
  V  V5  1  0.49823891  0.88164478  0.87483798  1
  V  V6  1  0.88086377  0.88180711  0.50116640  1
  V  V7  1  0.25236598  0.00251049  0.76361278  1
  V  V8  1  0.63235965  0.74576011  0.87318315  1
  V  V9  1  0.75350482  0.36959437  0.62609894  1
  V  V10  1  0.24420710  -0.00334413  0.24895572  1
  V  V11  1  0.00305379  0.89200459  0.87257444  1
  V  V12  1  0.24867123  0.38023441  0.12092425  1
  V  V13  1  0.62759899  0.88102778  0.74451857  1
  V  V14  1  0.11257340  0.50904641  0.12670164  1
  V  V15  1  0.74740596  0.87553015  0.12708300  1
  V  V16  1  0.25343940  0.62419918  0.38091300  1
  V  V17  1  0.01933689  0.25466034  0.75820326  1
  V  V18  1  0.76255052  0.51161931  0.75746266  1
  V  V19  1  0.50236889  0.75021891  0.74869754  1
  V  V20  1  0.88366478  0.38666189  0.00017152  1
  V  V21  1  0.88822431  0.74389893  0.13864179  1
  V  V22  1  0.50468116  0.12384339  0.62292955  1
  V  V23  1  0.24828132  0.74790898  -0.00843290  1
  V  V24  1  -0.00414872  0.12530050  0.62790714  1
  V  V25  1  0.11836455  0.11949732  0.49987293  1
  V  V26  1  0.50425037  0.62301861  0.61754798  1
  V  V27  1  0.62523830  0.12873467  0.49176755  1
  V  V28  1  0.38912591  0.50017889  0.87383879  1
  V  V29  1  0.49245234  0.38190357  0.37299846  1
  V  V30  1  0.50659614  -0.00926165  0.50173876  1
  V  V31  1  0.00645690  0.50276123  0.48985295  1
  V  V32  1  0.50117397  0.12432172  0.11780095  1
  V  V33  1  0.00519109  0.73538256  0.76159832  1
  V  V34  1  0.25242358  0.75739980  0.50001885  1
  V  V35  1  0.75027845  0.73516641  0.49396313  1
  V  V36  1  0.85683541  0.50621350  0.36579104  1
  V  V37  1  0.11327412  0.25155044  0.37173380  1
  V  V38  1  0.37655220  0.88399505  -0.00495421  1
  V  V39  1  0.38049736  0.62812546  0.25237427  1
  V  V40  1  0.61551074  0.87383377  0.25171178  1
  V  V41  1  0.11597945  0.37378555  0.25586131  1
  V  V42  1  0.88116607  0.24766531  0.13627999  1
  V  V43  1  0.24927998  0.87749264  0.12424565  1
  V  V44  1  0.25837195  0.50075102  0.25534969  1
  V  V45  1  0.75269373  0.74510258  -0.00117122  1
  V  V46  1  0.62228305  0.62109323  -0.00232011  1
  V  V47  1  0.50325848  0.25314319  0.75420936  1
  V  V48  1  0.01022920  0.62132554  0.62649419  1
  V  V49  1  0.62613840  0.50108972  0.61717618  1
  V  V50  1  0.37521548  -0.00791260  0.38309940  1
  V  V51  1  0.37214305  0.62658346  0.75037272  1
  V  V52  1  0.87775042  0.88554846  -0.00776637  1
  V  V53  1  0.87039818  0.14117752  0.75220047  1
  V  V54  1  0.11664151  0.86474751  0.24662501  1
  V  V55  1  0.36573946  0.25234557  0.12342826  1
  V  V56  1  0.13145967  0.48371621  0.62522762  1
  V  V57  1  0.74576773  0.25029569  0.49631696  1
  V  V58  1  0.74884932  0.26149421  0.00459492  1
  V  V59  1  0.38277784  0.75048056  0.12649743  1
  V  V60  1  0.24849333  0.48529530  0.74794087  1
  V  V61  1  0.88602077  0.36713425  0.49973906  1
  V  V62  1  0.37123628  0.38262353  0.50319765  1
  V  V63  1  0.38627359  0.38314624  -0.00713019  1
  V  V64  1  0.49883687  0.61694408  0.12154248  1
  V  V65  1  0.24659027  0.12456032  0.37752326  1
  V  V66  1  0.87698510  0.74094754  0.62836038  1
  V  V67  1  0.63455493  0.37713048  0.25239205  1
  V  V68  1  0.09577103  0.09558366  -0.00026889  1
  V  V69  1  0.25097565  0.25123827  0.50691504  1
  V  V70  1  0.12512971  -0.00113194  0.62606553  1
  V  V71  1  0.62501492  0.73428243  0.37302166  1
  V  V72  1  0.74602371  0.11963228  0.88601413  1
  V  V73  1  0.87496863  0.00512665  0.36785638  1
  V  V74  1  0.23863653  0.24887915  -0.02104057  1
  V  V75  1  0.49897656  0.25294441  0.25461407  1
  V  V76  1  0.62377805  0.37439725  0.75757146  1
  V  V77  1  0.11661711  0.74281143  0.38137709  1
  V  V78  1  0.11567842  0.62633705  0.00089125  1
  Zn  Zn79  1  0.49484378  0.86689493  0.37354517  1
  Zn  Zn80  1  0.75071919  0.13382760  0.36327700  1
  Zn  Zn81  1  0.24334569  0.62555371  0.87262811  1
  Zn  Zn82  1  0.00067573  0.87717228  0.37791798  1
  Zn  Zn83  1  0.12997547  0.86618127  0.75560854  1
  Zn  Zn84  1  0.74588874  0.87642005  0.61805344  1
  Zn  Zn85  1  0.50386540  0.01333838  -0.01177297  1
  Zn  Zn86  1  0.49996318  0.50424637  0.49194477  1
  Zn  Zn87  1  0.61906832  0.24952009  0.88630622  1
  Zn  Zn88  1  0.62915446  0.00846718  0.11829759  1
  Zn  Zn89  1  -0.00350568  0.12397241  0.13417641  1
  Zn  Zn90  1  0.00182608  0.37043177  0.87938520  1
  Zn  Zn91  1  0.37250077  0.25078477  0.62677987  1
  Zn  Zn92  1  0.74696692  0.00710939  0.24931936  1
  Zn  Zn93  1  0.25338129  0.88086674  0.62151755  1
  Zn  Zn94  1  0.15428213  0.16934699  0.19585572  1
  Zn  Zn95  1  0.18883687  0.18434159  0.69065657  1
  Zn  Zn96  1  0.19054370  0.68981438  0.18786908  1
  Zn  Zn97  1  0.18593144  0.68434415  0.68391856  1
  Zn  Zn98  1  0.68730815  0.19413524  0.18481581  1
  Zn  Zn99  1  0.68614700  0.18691988  0.68366462  1
  Zn  Zn100  1  0.69241794  0.68783396  0.18977899  1
  Zn  Zn101  1  0.69049034  0.68737602  0.68389490  1
  Zn  Zn102  1  0.30861901  0.31355886  0.31571595  1
  Zn  Zn103  1  0.32015598  0.31293193  0.80893809  1
  Zn  Zn104  1  0.31075873  0.80921266  0.31279959  1
  Zn  Zn105  1  0.31307762  0.81545271  0.80972510  1
  Zn  Zn106  1  0.82014311  0.31978846  0.31752311  1
  Zn  Zn107  1  0.80977844  0.31956048  0.82216765  1
  Zn  Zn108  1  0.80803824  0.81462613  0.31460710  1
  Zn  Zn109  1  0.81831509  0.80879577  0.81119866  1
  Zn  Zn110  1  0.18829436  0.43792022  0.43740110  1
  Zn  Zn111  1  0.18010517  0.43848644  0.93415250  1
  Zn  Zn112  1  0.18259370  0.93541271  0.43576993  1
  Zn  Zn113  1  0.18427722  0.93750385  0.93916127  1
  Zn  Zn114  1  0.68536881  0.43162583  0.43461925  1
  Zn  Zn115  1  0.69100348  0.44188664  0.93675720  1
  Zn  Zn116  1  0.69168562  0.93445680  0.43752432  1
  Zn  Zn117  1  0.68574519  0.93982177  0.93730362  1
  Zn  Zn118  1  0.30524007  0.06681885  0.05805466  1
  Zn  Zn119  1  0.31576874  0.06357210  0.56707534  1
  Zn  Zn120  1  0.30986768  0.56272887  0.06183575  1
  Zn  Zn121  1  0.31215965  0.56587233  0.56348491  1
  Zn  Zn122  1  0.81821216  0.06524284  0.06853205  1
  Zn  Zn123  1  0.81093782  0.06411937  0.56437999  1
  Zn  Zn124  1  0.81426996  0.56681527  0.07156965  1
  Zn  Zn125  1  0.81895180  0.55510731  0.56482836  1
  Zn  Zn126  1  0.43836441  0.44018652  0.18415042  1
  Zn  Zn127  1  0.43813626  0.43660826  0.68475466  1
  Zn  Zn128  1  0.43348506  0.93928693  0.18921155  1
  Zn  Zn129  1  0.44047340  0.93993402  0.68747982  1
  Zn  Zn130  1  0.92922937  0.43148389  0.18402524  1
  Zn  Zn131  1  0.93963235  0.43383154  0.68515272  1
  Zn  Zn132  1  0.93174498  0.93174216  0.18071500  1
  Zn  Zn133  1  0.93983772  0.93299876  0.68910908  1
  Zn  Zn134  1  0.03329113  0.03992924  0.27525367  1
  Zn  Zn135  1  0.06707524  0.07260960  0.81576572  1
  Zn  Zn136  1  0.06088095  0.56621588  0.30733537  1
  Zn  Zn137  1  0.06422647  0.54541416  0.82343748  1
  Zn  Zn138  1  0.56336444  0.06229431  0.30854327  1
  Zn  Zn139  1  0.56858557  0.06409309  0.80930070  1
  Zn  Zn140  1  0.56306623  0.55978593  0.30726559  1
  Zn  Zn141  1  0.56989130  0.56268386  0.80458987  1
  Zn  Zn142  1  0.43664436  0.18810690  0.43766307  1
  Zn  Zn143  1  0.42847753  0.19587127  0.93683097  1
  Zn  Zn144  1  0.43740450  0.68985069  0.43617001  1
  Zn  Zn145  1  0.43833569  0.69154325  0.93625733  1
  Zn  Zn146  1  0.93631528  0.18462655  0.43645699  1
  Zn  Zn147  1  0.93399422  0.18713189  0.93934885  1
  Zn  Zn148  1  0.93256608  0.68146067  0.43864027  1
  Zn  Zn149  1  0.93974396  0.69208949  0.95063792  1
  Zn  Zn150  1  0.06150294  0.31159962  0.06506670  1
  Zn  Zn151  1  0.06392397  0.30553218  0.56713502  1
  Zn  Zn152  1  0.06269394  0.81635450  0.05746446  1
  Zn  Zn153  1  0.06336427  0.81040277  0.56592642  1
  Zn  Zn154  1  0.56325210  0.31161037  0.06791710  1
  Zn  Zn155  1  0.56168914  0.31265965  0.56460853  1
  Zn  Zn156  1  0.56270197  0.81357075  0.05978171  1
  Zn  Zn157  1  0.56628320  0.80633152  0.55942667  1
  O  O158  1  0.12595808  0.14202529  0.08906498  1
  O  O159  1  0.12012211  0.11802005  0.61827187  1
  O  O160  1  0.13130961  0.61522428  0.12383697  1
  O  O161  1  0.11576057  0.61576464  0.62187410  1
  O  O162  1  0.60333945  0.13083833  0.12524955  1
  O  O163  1  0.61273329  0.12500940  0.61588296  1
  O  O164  1  0.61749475  0.61695777  0.11982223  1
  O  O165  1  0.61410856  0.61669161  0.63015269  1
  O  O166  1  0.38168495  0.37111590  0.38610402  1
  O  O167  1  0.37483617  0.38314000  0.88572095  1
  O  O168  1  0.37700319  0.88590102  0.36896262  1
  O  O169  1  0.38647442  0.86841416  0.88203620  1
  O  O170  1  0.87335966  0.38666890  0.39498187  1
  O  O171  1  0.88057881  0.37541978  0.89135793  1
  O  O172  1  0.87574342  0.87836809  0.38846455  1
  O  O173  1  0.88279481  0.87118475  0.88537535  1
  O  O174  1  0.25521380  0.00590305  0.37227186  1
  O  O175  1  0.24967331  -0.00277011  0.86272956  1
  O  O176  1  0.24406739  0.51097023  0.36629260  1
  O  O177  1  0.25878595  0.50115359  0.85828048  1
  O  O178  1  0.76209056  0.00249491  0.37771434  1
  O  O179  1  0.74738653  0.01288830  0.86570923  1
  O  O180  1  0.75717827  0.50167338  0.38253221  1
  O  O181  1  0.74769332  0.49967778  0.85736850  1
  O  O182  1  0.24680322  0.49415166  0.13470912  1
  O  O183  1  0.24103231  0.50401788  0.63175653  1
  O  O184  1  0.25698125  0.98908446  0.13495821  1
  O  O185  1  0.24189536  1.00051687  0.63136469  1
  O  O186  1  0.73784200  0.50049235  0.13047879  1
  O  O187  1  0.74320999  0.49136379  0.62894972  1
  O  O188  1  0.74953685  0.98696972  0.12385400  1
  O  O189  1  0.75173078  0.99638700  0.64015784  1
  O  O190  1  0.01815083  0.37711559  0.24736831  1
  O  O191  1  -0.00396003  0.35560323  0.74644083  1
  O  O192  1  0.01564443  0.87039500  0.25026510  1
  O  O193  1  -0.00045421  0.86342425  0.76296864  1
  O  O194  1  0.49506920  0.37002379  0.25563278  1
  O  O195  1  0.50892760  0.36458163  0.74196788  1
  O  O196  1  0.51041303  0.87347334  0.24785153  1
  O  O197  1  0.50772848  0.87113063  0.75470411  1
  O  O198  1  0.49125980  0.13431186  0.24263097  1
  O  O199  1  0.49403133  0.12645243  0.74267953  1
  O  O200  1  0.48883404  0.62187869  0.23967291  1
  O  O201  1  0.49160598  0.63021340  0.74081549  1
  O  O202  1  1.05009532  0.14337263  0.23961878  1
  O  O203  1  0.98740434  0.13600016  0.75071670  1
  O  O204  1  1.01057106  0.63339492  0.23747108  1
  O  O205  1  1.00764064  0.62934153  0.74699060  1
  O  O206  1  0.36275197  0.26693306  0.00298542  1
  O  O207  1  0.36571687  0.25502486  0.50037978  1
  O  O208  1  0.36776210  0.75814754  0.00676212  1
  O  O209  1  0.36771622  0.74769361  0.50956275  1
  O  O210  1  0.86429565  0.25625956  0.00525685  1
  O  O211  1  0.87268598  0.26231146  0.49983336  1
  O  O212  1  0.86554170  0.75722527  0.00600396  1
  O  O213  1  0.86714094  0.75468570  0.50468571  1
  O  O214  1  0.13167514  0.24350627  0.49279889  1
  O  O215  1  0.14020623  0.27225665  0.99261490  1
  O  O216  1  0.13373047  0.75199809  0.48885547  1
  O  O217  1  0.13646646  0.73713583  1.01225006  1
  O  O218  1  0.63311827  0.24336924  0.50278104  1
  O  O219  1  0.63997162  0.25769269  1.00262757  1
  O  O220  1  0.64120321  0.75251101  0.49022274  1
  O  O221  1  0.63254076  0.74507786  0.99231570  1
  O  O222  1  0.48390351  0.24488639  0.13023315  1
  O  O223  1  0.49958871  0.24078282  0.63541401  1
  O  O224  1  0.48884490  0.74125615  0.11933048  1
  O  O225  1  0.49484434  0.74257739  0.62739680  1
  O  O226  1  0.98610842  0.24710161  0.12091477  1
  O  O227  1  1.00843793  0.23464493  0.64120237  1
  O  O228  1  0.98653398  0.76107145  0.12103473  1
  O  O229  1  0.99704224  0.73943614  0.63195323  1
  O  O230  1  0.01372632  0.24799743  0.37877374  1
  O  O231  1  -0.00452958  0.24940070  0.86114287  1
  O  O232  1  0.01442543  0.74512673  0.38279297  1
  O  O233  1  -0.00640421  0.74524202  0.86282464  1
  O  O234  1  0.49424990  0.25668358  0.36062579  1
  O  O235  1  0.50228002  0.24346416  0.86032368  1
  O  O236  1  0.51943383  0.75358244  0.38806641  1
  O  O237  1  0.50975665  0.75861766  0.86819090  1
  O  O238  1  0.24315184  0.12995742  0.49462697  1
  O  O239  1  0.25618446  0.14853914  0.99705282  1
  O  O240  1  0.25619245  0.63421731  0.48891191  1
  O  O241  1  0.24726911  0.63455396  0.99828486  1
  O  O242  1  0.74137258  0.13397546  0.50519810  1
  O  O243  1  0.75545222  0.12721223  0.98837807  1
  O  O244  1  0.75707137  0.63625564  0.50549342  1
  O  O245  1  0.73765187  0.63634477  1.00731483  1
  O  O246  1  0.25542716  0.37555361  0.00610011  1
  O  O247  1  0.26252721  0.36655932  0.49180243  1
  O  O248  1  0.25541785  0.86959267  0.00605168  1
  O  O249  1  0.24799138  0.86325161  0.50094940  1
  O  O250  1  0.75854679  0.36544399  -0.00553977  1
  O  O251  1  0.75496023  0.36788332  0.50699500  1
  O  O252  1  0.75804450  0.86665118  0.00280365  1
  O  O253  1  0.76208461  0.86471292  0.50191559  1
  O  O254  1  0.13630709  0.49187167  0.24408709  1
  O  O255  1  0.14131015  0.50543145  0.73695039  1
  O  O256  1  0.13969828  0.97767878  0.26267963  1
  O  O257  1  0.14108199  1.01063362  0.74455386  1
  O  O258  1  0.61983555  0.48879929  0.23739543  1
  O  O259  1  0.63371206  0.49178600  0.73903777  1
  O  O260  1  0.62207691  0.98577970  0.24069382  1
  O  O261  1  0.63742751  0.98833523  0.75369534  1
  O  O262  1  0.36385081  0.00517756  0.26010774  1
  O  O263  1  0.36608841  0.00918701  0.74526269  1
  O  O264  1  0.36650842  0.51146918  0.24390936  1
  O  O265  1  0.36730430  0.50621510  0.75074509  1
  O  O266  1  0.86637559  -0.01395407  0.26582532  1
  O  O267  1  0.86385708  0.00066095  0.75208036  1
  O  O268  1  0.87509388  0.48082415  0.26907363  1
  O  O269  1  0.86173180  0.49443093  0.74174489  1
  O  O270  1  0.13161512  0.36868149  0.36403049  1
  O  O271  1  0.08668127  0.44200850  0.87113969  1
  O  O272  1  0.12351698  0.86168906  0.36721746  1
  O  O273  1  0.10825774  0.87604322  0.87550149  1
  O  O274  1  0.61244408  0.37774247  0.35884353  1
  O  O275  1  0.62950682  0.37352257  0.86139463  1
  O  O276  1  0.62464399  0.87333579  0.36090755  1
  O  O277  1  0.61939023  0.86430801  0.86656509  1
  O  O278  1  0.37396935  0.13580712  0.13050840  1
  O  O279  1  0.38803346  0.12786612  0.63230637  1
  O  O280  1  0.37973853  0.63115046  0.12868088  1
  O  O281  1  0.38155794  0.63242739  0.63351169  1
  O  O282  1  0.87473190  0.14056705  0.12865290  1
  O  O283  1  0.88410823  0.11780337  0.63899184  1
  O  O284  1  0.87452697  0.64407366  0.12400263  1
  O  O285  1  0.89074273  0.63241356  0.61979258  1
  O  O286  1  0.25813677  0.26420644  0.12239063  1
  O  O287  1  0.24821039  0.24392603  0.61129122  1
  O  O288  1  0.26093080  0.75936639  0.11732141  1
  O  O289  1  0.25704242  0.74982187  0.61717462  1
  O  O290  1  0.75787715  0.24548695  0.10976016  1
  O  O291  1  0.74785653  0.26103032  0.61602885  1
  O  O292  1  0.75394338  0.75959478  0.11633310  1
  O  O293  1  0.76016412  0.75099009  0.61576588  1
  O  O294  1  0.24423161  0.23946130  0.38273370  1
  O  O295  1  0.25100517  0.25928032  0.87973923  1
  O  O296  1  0.24608913  0.74383160  0.38320902  1
  O  O297  1  0.25292906  0.75117073  0.88648740  1
  O  O298  1  0.75798608  0.25045423  0.39149977  1
  O  O299  1  0.74896862  0.23982546  0.88730309  1
  O  O300  1  0.74332001  0.74832632  0.38576503  1
  O  O301  1  0.74230987  0.75410244  0.88258079  1
  O  O302  1  -0.00853638  0.11072142  0.00472280  1
  O  O303  1  0.00968615  0.13128759  0.51205864  1
  O  O304  1  0.01629544  0.62968277  0.00694356  1
  O  O305  1  -0.00017881  0.60747435  0.50814912  1
  O  O306  1  0.48576780  0.13019655  0.01307208  1
  O  O307  1  0.50658214  0.12195490  0.50419863  1
  O  O308  1  0.51196621  0.63219513  0.00660881  1
  O  O309  1  0.49083403  0.62108509  0.51295473  1
  O  O310  1  0.48969288  0.37206703  0.49048075  1
  O  O311  1  0.48452376  0.37116144  1.00451724  1
  O  O312  1  0.50694110  0.88784309  0.49904616  1
  O  O313  1  0.49069061  0.87211934  0.99070357  1
  O  O314  1  0.99133689  0.38070824  0.51044742  1
  O  O315  1  0.98853482  0.37482795  1.00111009  1
  O  O316  1  0.98560199  0.86718506  0.49974740  1
  O  O317  1  0.98886956  0.87157743  0.98587514  1
  O  O318  1  0.50017046  0.48886961  0.37469213  1
  O  O319  1  0.48860363  0.50302517  0.86361926  1
  O  O320  1  0.49188087  1.00091716  0.38471475  1
  O  O321  1  0.50555214  0.98649334  0.87064286  1
  O  O322  1  1.01244948  0.49912757  0.38956825  1
  O  O323  1  0.94236766  0.54005605  0.87588682  1
  O  O324  1  0.98377679  0.99551555  0.36962870  1
  O  O325  1  0.99601707  0.99003441  0.86277806  1
  O  O326  1  0.00465688  0.01248600  0.16263809  1
  O  O327  1  0.01274554  0.01272296  0.64121345  1
  O  O328  1  0.01416015  0.49855144  0.13303440  1
  O  O329  1  0.01433350  0.50229648  0.62464887  1
  O  O330  1  0.49010422  0.01968435  0.12696116  1
  O  O331  1  0.49419503  0.00686191  0.60927444  1
  O  O332  1  0.50335329  0.51238826  0.12104724  1
  O  O333  1  0.50795937  0.50730186  0.62513786  1
  O  O334  1  0.25158077  0.38545347  0.24186162  1
  O  O335  1  0.25798450  0.38643659  0.74433051  1
  O  O336  1  0.24888365  0.87847467  0.24122613  1
  O  O337  1  0.24898269  0.88912155  0.74663474  1
  O  O338  1  0.73239885  0.36822704  0.25505784  1
  O  O339  1  0.74385749  0.37823193  0.74191745  1
  O  O340  1  0.73854032  0.87737745  0.24073130  1
  O  O341  1  0.74766856  0.88404241  0.75327386  1
  O  O342  1  0.24663009  0.11569905  0.25747392  1
  O  O343  1  0.26556102  0.11684799  0.74717279  1
  O  O344  1  0.25885486  0.61933318  0.25658038  1
  O  O345  1  0.26145194  0.62277694  0.74998725  1
  O  O346  1  0.73086221  0.11966954  0.25316986  1
  O  O347  1  0.75815781  0.11640042  0.74861958  1
  O  O348  1  0.74888679  0.60873604  0.24245232  1
  O  O349  1  0.75095613  0.61192941  0.74337369  1
  O  O350  1  0.36333323  0.11891704  0.37069511  1
  O  O351  1  0.38244371  0.12186125  0.86023849  1
  O  O352  1  0.36755502  0.63355583  0.36350550  1
  O  O353  1  0.37534872  0.62026092  0.86499629  1
  O  O354  1  0.87222190  0.11017667  0.38086899  1
  O  O355  1  0.86139332  0.12838168  0.85943390  1
  O  O356  1  0.88248602  0.60473967  0.37438302  1
  O  O357  1  0.89356821  0.59709708  0.88493480  1
  O  O358  1  0.13269604  0.38550219  0.13485269  1
  O  O359  1  0.12648981  0.38435470  0.62757575  1
  O  O360  1  0.13647395  0.86354358  0.13786993  1
  O  O361  1  0.12357621  0.88712460  0.63081853  1
  O  O362  1  0.61839631  0.39054619  0.13209121  1
  O  O363  1  0.63285991  0.38139180  0.63263087  1
  O  O364  1  0.63138025  0.86498273  0.13694475  1
  O  O365  1  0.62761745  0.86403057  0.63996317  1
  O  O366  1  0.14070856  0.26940790  0.25724754  1
  O  O367  1  0.11945158  0.24405180  0.75781544  1
  O  O368  1  0.13619047  0.75920311  0.26418133  1
  O  O369  1  0.11066960  0.74965949  0.74522955  1
  O  O370  1  0.60821059  0.26921032  0.23190760  1
  O  O371  1  0.61934452  0.25745502  0.74917463  1
  O  O372  1  0.63209967  0.75876261  0.26438104  1
  O  O373  1  0.62378716  0.75449788  0.75668257  1
  O  O374  1  0.37669396  0.24756255  0.24211992  1
  O  O375  1  0.38272038  0.23779623  0.74747524  1
  O  O376  1  0.36817696  0.74045489  0.23803428  1
  O  O377  1  0.38029081  0.74310544  0.74303602  1
  O  O378  1  0.87031261  0.26148950  0.23591643  1
  O  O379  1  0.86720632  0.24104543  0.74683525  1
  O  O380  1  0.87281394  0.76270235  0.23741946  1
  O  O381  1  0.88906436  0.75197478  0.73867249  1
  O  O382  1  0.37410395  0.48651837  0.50340457  1
  O  O383  1  0.37104029  0.49153747  0.99081604  1
  O  O384  1  0.38654961  1.00693954  0.49108945  1
  O  O385  1  0.37519162  0.98730837  1.00373836  1
  O  O386  1  0.89073591  0.49203558  0.49420345  1
  O  O387  1  0.86705680  0.48526614  1.01392013  1
  O  O388  1  0.87176981  0.98642085  0.49833191  1
  O  O389  1  0.87001423  0.98369936  1.00226438  1
  O  O390  1  0.12091207  -0.00327501  0.01095329  1
  O  O391  1  0.12951327  0.00978541  0.50906453  1
  O  O392  1  0.13371819  0.51246972  0.02025956  1
  O  O393  1  0.11696255  0.49109957  0.51240874  1
  O  O394  1  0.61364666  -0.01163849  0.00818381  1
  O  O395  1  0.61207087  0.00717910  0.49548698  1
  O  O396  1  0.63209831  0.50941572  0.01118081  1
  O  O397  1  0.62136220  0.49042733  0.51310218  1
  O  O398  1  0.36821831  0.37385084  0.11417147  1
  O  O399  1  0.38081831  0.36917139  0.60849891  1
  O  O400  1  0.37013172  0.86884259  0.11795132  1
  O  O401  1  0.37596856  0.86060057  0.63210143  1
  O  O402  1  0.87464687  0.36115959  0.11191792  1
  O  O403  1  0.86395147  0.38345084  0.60937773  1
  O  O404  1  0.86635372  0.86664930  0.11180478  1
  O  O405  1  0.87742925  0.86381354  0.61527172  1
  O  O406  1  0.13482427  0.13064371  0.38546948  1
  O  O407  1  0.11964342  0.12245390  0.90286432  1
  O  O408  1  0.13779003  0.63737461  0.36868359  1
  O  O409  1  0.12674173  0.61571198  0.89575498  1
  O  O410  1  0.62418245  0.12337980  0.38800874  1
  O  O411  1  0.64142454  0.13105331  0.86791492  1
  O  O412  1  0.62323406  0.63495193  0.36943336  1
  O  O413  1  0.61743201  0.63608806  0.88220113  1
