# generated using pymatgen
data_V79Zn79O256
_symmetry_space_group_name_H-M   'P 1'
_cell_length_a   16.94003271
_cell_length_b   16.92264673
_cell_length_c   16.95009587
_cell_angle_alpha   90.04187106
_cell_angle_beta   89.77066887
_cell_angle_gamma   89.72566550
_symmetry_Int_Tables_number   1
_chemical_formula_structural   V79Zn79O256
_chemical_formula_sum   'V79 Zn79 O256'
_cell_volume   4858.99120232
_cell_formula_units_Z   1
loop_
 _symmetry_equiv_pos_site_id
 _symmetry_equiv_pos_as_xyz
  1  'x, y, z'
loop_
 _atom_site_type_symbol
 _atom_site_label
 _atom_site_symmetry_multiplicity
 _atom_site_fract_x
 _atom_site_fract_y
 _atom_site_fract_z
 _atom_site_occupancy
  V  V0  1  0.86423472  0.37404329  0.00640852  1
  V  V1  1  0.75672669  0.11645355  0.37413251  1
  V  V2  1  0.62073904  0.50262354  0.12830408  1
  V  V3  1  0.75127437  0.24907661  0.50153069  1
  V  V4  1  0.74983784  0.49696955  0.74529682  1
  V  V5  1  0.49800259  0.15441305  0.62242931  1
  V  V6  1  0.23723085  0.13207921  0.37707726  1
  V  V7  1  0.25539954  0.50717736  0.76004355  1
  V  V8  1  0.49591263  0.50012881  0.00131426  1
  V  V9  1  0.75191532  0.62655339  0.87555571  1
  V  V10  1  0.62064984  0.62450753  0.00343920  1
  V  V11  1  0.37257876  0.13433592  0.74885711  1
  V  V12  1  0.50036221  0.24836639  0.24796826  1
  V  V13  1  0.49988285  0.75193380  0.25044896  1
  V  V14  1  0.13840696  0.62628942  -0.00927694  1
  V  V15  1  0.87981833  0.88542541  0.48827297  1
  V  V16  1  0.24404694  0.25284224  0.00129142  1
  V  V17  1  0.62254749  0.12391495  0.49594443  1
  V  V18  1  0.62990937  0.76316759  0.36971663  1
  V  V19  1  0.12454029  0.37053826  0.74838894  1
  V  V20  1  0.25342499  0.49761779  0.25065191  1
  V  V21  1  0.87065244  0.24855634  0.62699437  1
  V  V22  1  0.49682530  0.37696339  0.87665112  1
  V  V23  1  0.25103499  0.11172942  0.87530861  1
  V  V24  1  0.23844613  0.24701430  0.50174804  1
  V  V25  1  0.87876635  0.01099784  0.86692613  1
  V  V26  1  0.00018068  0.75422064  0.25257381  1
  V  V27  1  0.00561826  0.12268871  0.62156886  1
  V  V28  1  0.60806039  0.87189693  0.75277210  1
  V  V29  1  0.24493110  -0.00971314  0.25383401  1
  V  V30  1  0.00773179  0.75990369  0.75655150  1
  V  V31  1  0.74595134  0.62849784  0.37845074  1
  V  V32  1  0.12352497  0.37352033  0.25338545  1
  V  V33  1  0.13599647  0.75795891  0.87245419  1
  V  V34  1  0.62153608  0.25345116  0.37463583  1
  V  V35  1  0.11853387  0.75841770  0.37239401  1
  V  V36  1  0.62794109  0.37294582  0.74852080  1
  V  V37  1  0.87212805  0.25192551  0.12914516  1
  V  V38  1  0.38174524  0.37517973  0.46533681  1
  V  V39  1  0.13202235  -0.01256287  0.63764671  1
  V  V40  1  0.00070724  0.49816647  0.49732775  1
  V  V41  1  0.75492306  0.87722099  0.63559255  1
  V  V42  1  0.37450378  0.74564247  0.11272666  1
  V  V43  1  0.61375948  0.75237744  0.87095750  1
  V  V44  1  0.00480228  0.00137975  0.48858780  1
  V  V45  1  0.13211991  0.49544723  0.62459959  1
  V  V46  1  0.49395998  -0.00807841  0.50258535  1
  V  V47  1  0.74947584  0.75310558  -0.00128083  1
  V  V48  1  0.37672656  0.12551363  0.24661513  1
  V  V49  1  0.49602277  0.88067924  0.37149917  1
  V  V50  1  0.75130970  0.75288130  0.50047638  1
  V  V51  1  0.73118794  -0.00482672  0.24853336  1
  V  V52  1  0.87692192  0.49883729  0.37424233  1
  V  V53  1  0.74871798  0.49649801  0.24745475  1
  V  V54  1  0.61896798  0.37674694  0.25034375  1
  V  V55  1  0.25096630  0.76517590  0.50321522  1
  V  V56  1  0.25499642  0.62215023  0.37261213  1
  V  V57  1  0.00317739  0.62517975  0.62773919  1
  V  V58  1  0.12376124  0.24229825  0.87645590  1
  V  V59  1  0.75057591  0.23559040  0.00190434  1
  V  V60  1  0.62389701  0.24230758  0.87955235  1
  V  V61  1  0.88690357  0.88017041  -0.00633183  1
  V  V62  1  0.38031351  0.62127542  0.25202840  1
  V  V63  1  -0.00805733  0.24024066  0.74966486  1
  V  V64  1  0.88176624  0.11120786  0.24568391  1
  V  V65  1  0.26536862  0.36607146  0.62548267  1
  V  V66  1  0.40097547  0.62702833  0.74744706  1
  V  V67  1  0.62792260  -0.00108618  0.63049753  1
  V  V68  1  0.13120782  0.62494730  0.49684388  1
  V  V69  1  0.87455919  0.75156926  0.12388213  1
  V  V70  1  -0.00122807  0.25082926  0.25431582  1
  V  V71  1  -0.00318661  0.37180141  0.87587684  1
  V  V72  1  -0.00299584  0.49926213  0.00047930  1
  V  V73  1  0.73694140  0.87824400  0.12631636  1
  V  V74  1  0.00247064  0.62523374  0.12185995  1
  V  V75  1  0.01359986  0.02435926  0.01231981  1
  V  V76  1  0.87980753  0.62341033  0.75152511  1
  V  V77  1  0.87475270  0.49842575  0.87635669  1
  V  V78  1  0.24989124  0.86926554  0.10635361  1
  Zn  Zn79  1  0.87358933  0.37393693  0.50186533  1
  Zn  Zn80  1  0.37825925  0.75015983  0.62622406  1
  Zn  Zn81  1  0.37048554  0.00206399  0.38415160  1
  Zn  Zn82  1  0.36727642  0.38296191  -0.00007507  1
  Zn  Zn83  1  0.25588739  0.37044571  0.12669516  1
  Zn  Zn84  1  0.75812376  0.12092992  0.84023544  1
  Zn  Zn85  1  0.87498892  0.62464525  0.24908320  1
  Zn  Zn86  1  0.71087569  0.41316607  0.59056289  1
  Zn  Zn87  1  0.88166356  0.75648619  0.62537764  1
  Zn  Zn88  1  0.40277179  0.23429039  0.09592963  1
  Zn  Zn89  1  0.12785418  0.49601330  0.12173429  1
  Zn  Zn90  1  0.11668610  0.87919580  0.24364153  1
  Zn  Zn91  1  0.57882711  0.56891232  0.57305465  1
  Zn  Zn92  1  0.00769636  0.36645157  0.37989287  1
  Zn  Zn93  1  0.56093085  0.13567339  0.06758426  1
  Zn  Zn94  1  0.17373094  0.18398070  0.18996828  1
  Zn  Zn95  1  0.18747721  0.17983473  0.68716545  1
  Zn  Zn96  1  0.18874844  0.68867915  0.18491317  1
  Zn  Zn97  1  0.19166151  0.68945133  0.68301369  1
  Zn  Zn98  1  0.69046032  0.18673101  0.18570394  1
  Zn  Zn99  1  0.67982299  0.19105633  0.68631957  1
  Zn  Zn100  1  0.68763734  0.68553090  0.18941054  1
  Zn  Zn101  1  0.69326722  0.68678291  0.69026187  1
  Zn  Zn102  1  0.30782303  0.30632026  0.30907040  1
  Zn  Zn103  1  0.31346250  0.31012789  0.81182141  1
  Zn  Zn104  1  0.31716273  0.80514588  0.32456118  1
  Zn  Zn105  1  0.31481152  0.79528916  0.79980277  1
  Zn  Zn106  1  0.81090223  0.31254469  0.31493322  1
  Zn  Zn107  1  0.80828484  0.30948075  0.81606459  1
  Zn  Zn108  1  0.81698881  0.81812065  0.30977472  1
  Zn  Zn109  1  0.81788000  0.81163661  0.81423849  1
  Zn  Zn110  1  0.19474724  0.43520041  0.43682695  1
  Zn  Zn111  1  0.18074975  0.43617678  0.93672573  1
  Zn  Zn112  1  0.18115070  0.94382870  0.43645312  1
  Zn  Zn113  1  0.17977264  0.93715971  0.93319278  1
  Zn  Zn114  1  0.68304697  0.44076855  0.42864466  1
  Zn  Zn115  1  0.68625544  0.43652541  0.93544177  1
  Zn  Zn116  1  0.68833113  0.93624096  0.44077435  1
  Zn  Zn117  1  0.69725445  0.93612526  0.92768467  1
  Zn  Zn118  1  0.25748468  0.07787836  0.08288110  1
  Zn  Zn119  1  0.31202784  0.06677772  0.56733832  1
  Zn  Zn120  1  0.31462465  0.56363129  0.06946387  1
  Zn  Zn121  1  0.40343054  0.54989395  0.56385105  1
  Zn  Zn122  1  0.81212525  0.05925424  0.06720196  1
  Zn  Zn123  1  0.81435885  0.06471055  0.57301342  1
  Zn  Zn124  1  0.80885450  0.56343747  0.06340282  1
  Zn  Zn125  1  0.81695181  0.56941524  0.56161474  1
  Zn  Zn126  1  0.43391802  0.42838505  0.18369186  1
  Zn  Zn127  1  0.44105528  0.43986909  0.69744467  1
  Zn  Zn128  1  0.42053102  0.92749623  0.19369045  1
  Zn  Zn129  1  0.44030946  0.95562753  0.69900440  1
  Zn  Zn130  1  0.93829114  0.43546240  0.18768454  1
  Zn  Zn131  1  0.93597973  0.43209564  0.68589936  1
  Zn  Zn132  1  0.93767027  0.93540396  0.17948884  1
  Zn  Zn133  1  0.94175302  0.93870588  0.68235033  1
  Zn  Zn134  1  0.06259402  0.06403393  0.30845582  1
  Zn  Zn135  1  0.05789706  0.05318526  0.81777002  1
  Zn  Zn136  1  0.06600910  0.56411628  0.30906992  1
  Zn  Zn137  1  0.06594542  0.56087162  0.81434313  1
  Zn  Zn138  1  0.55948402  0.06613029  0.31147959  1
  Zn  Zn139  1  0.54712334  0.06722099  0.80090832  1
  Zn  Zn140  1  0.56055075  0.57009340  0.32479340  1
  Zn  Zn141  1  0.56820430  0.55834281  0.81729666  1
  Zn  Zn142  1  0.42914506  0.19161554  0.43680517  1
  Zn  Zn143  1  0.43165644  0.19217458  0.92508650  1
  Zn  Zn144  1  0.45590755  0.70963667  0.46242703  1
  Zn  Zn145  1  0.43158969  0.67606308  0.92733218  1
  Zn  Zn146  1  0.93705231  0.18165635  0.43669925  1
  Zn  Zn147  1  0.93689281  0.18485641  0.94053666  1
  Zn  Zn148  1  0.93430088  0.68783540  0.43831349  1
  Zn  Zn149  1  0.94114429  0.68969809  0.93660545  1
  Zn  Zn150  1  0.05930678  0.30950040  0.06826954  1
  Zn  Zn151  1  0.06204055  0.30852642  0.56324750  1
  Zn  Zn152  1  0.06956939  0.80941781  0.06110935  1
  Zn  Zn153  1  0.06535782  0.81709251  0.56317841  1
  Zn  Zn154  1  0.57182702  0.31985702  0.06332380  1
  Zn  Zn155  1  0.54394768  0.40537758  0.55513593  1
  Zn  Zn156  1  0.56460342  0.79853328  0.07100724  1
  Zn  Zn157  1  0.57853398  0.76801708  0.58813642  1
  O  O158  1  0.15667455  0.09730754  0.12789346  1
  O  O159  1  0.10973630  0.12221896  0.62515229  1
  O  O160  1  0.11530179  0.62956863  0.11129332  1
  O  O161  1  0.12035941  0.61473535  0.61698852  1
  O  O162  1  0.64380127  0.10822337  0.12518505  1
  O  O163  1  0.61484353  0.12072314  0.61081835  1
  O  O164  1  0.62690660  0.62031066  0.11323594  1
  O  O165  1  0.61916865  0.66230063  0.61307669  1
  O  O166  1  0.36740173  0.38318077  0.36604259  1
  O  O167  1  0.39394097  0.37073649  0.87378595  1
  O  O168  1  0.39099194  0.88082338  0.37451854  1
  O  O169  1  0.40173933  0.88199127  0.92725865  1
  O  O170  1  0.87603211  0.38996435  0.37796381  1
  O  O171  1  0.87876064  0.37777666  0.88417318  1
  O  O172  1  0.87230004  0.87843787  0.38913924  1
  O  O173  1  0.87185557  0.88170747  0.89029100  1
  O  O174  1  0.25176196  0.00980622  0.37161005  1
  O  O175  1  0.24647704  0.01293545  0.87884311  1
  O  O176  1  0.24206670  0.51031185  0.36136462  1
  O  O177  1  0.24402603  0.48788039  0.85788021  1
  O  O178  1  0.74451650  0.00530485  0.36220553  1
  O  O179  1  0.77120164  0.00771788  0.88375557  1
  O  O180  1  0.75593151  0.51012928  0.37000077  1
  O  O181  1  0.75609065  0.50622454  0.86781816  1
  O  O182  1  0.24821002  0.49675246  0.13720488  1
  O  O183  1  0.23653463  0.48432283  0.63546702  1
  O  O184  1  0.26208738  0.97505521  0.14239189  1
  O  O185  1  0.22868988  1.01260061  0.61798124  1
  O  O186  1  0.73837418  0.50951670  0.13867524  1
  O  O187  1  0.76368245  0.50250889  0.63932521  1
  O  O188  1  0.75642966  0.99005536  0.14000883  1
  O  O189  1  0.73538943  0.98980088  0.61426322  1
  O  O190  1  0.00527749  0.36948533  0.25434900  1
  O  O191  1  0.00692053  0.36535669  0.75401160  1
  O  O192  1  -0.00065463  0.85905429  0.24042883  1
  O  O193  1  0.00053985  0.85722855  0.74400696  1
  O  O194  1  0.51116734  0.36752773  0.25242471  1
  O  O195  1  0.51619339  0.38559958  0.76727518  1
  O  O196  1  0.49536410  0.86498745  0.25677913  1
  O  O197  1  0.50975777  0.87063157  0.74810493  1
  O  O198  1  0.48520308  0.12744307  0.24767929  1
  O  O199  1  0.51823281  0.15249761  0.72251656  1
  O  O200  1  0.49009251  0.63545859  0.25948891  1
  O  O201  1  0.50014645  0.61085706  0.74513118  1
  O  O202  1  0.98630873  0.13147373  0.25529908  1
  O  O203  1  1.00292536  0.13664356  0.74355305  1
  O  O204  1  0.99867721  0.63231704  0.23684445  1
  O  O205  1  0.99934480  0.62381471  0.74123379  1
  O  O206  1  0.35001509  0.25897487  -0.01236107  1
  O  O207  1  0.35641605  0.26626668  0.48695864  1
  O  O208  1  0.38305379  0.73370716  0.01453003  1
  O  O209  1  0.34634819  0.74663730  0.47825894  1
  O  O210  1  0.86985960  0.25616490  0.00772026  1
  O  O211  1  0.86581325  0.24768067  0.50414361  1
  O  O212  1  0.87042389  0.75834522  0.00472892  1
  O  O213  1  0.87136895  0.76351278  0.50133752  1
  O  O214  1  0.13770123  0.25390134  0.49606561  1
  O  O215  1  0.12758518  0.25675033  0.98519355  1
  O  O216  1  0.12747559  0.74326503  0.49296362  1
  O  O217  1  0.12038737  0.73600022  0.98526997  1
  O  O218  1  0.63482060  0.23626029  0.48944693  1
  O  O219  1  0.63605048  0.25340339  0.99096360  1
  O  O220  1  0.64598780  0.76426645  0.48531957  1
  O  O221  1  0.62878030  0.74387586  0.99342716  1
  O  O222  1  0.51420591  0.25317680  0.14339296  1
  O  O223  1  0.49749512  0.24785315  0.60168749  1
  O  O224  1  0.48556271  0.75596183  0.13623110  1
  O  O225  1  0.47174487  0.75836197  0.56492997  1
  O  O226  1  0.98396033  0.25291922  0.13844253  1
  O  O227  1  0.99345612  0.24319574  0.63043842  1
  O  O228  1  0.99295119  0.74287854  0.12871060  1
  O  O229  1  1.00782241  0.73815521  0.63457492  1
  O  O230  1  -0.01179689  0.25170050  0.36122173  1
  O  O231  1  0.00400763  0.25102106  0.86760162  1
  O  O232  1  0.00543063  0.73855655  0.36287843  1
  O  O233  1  0.00849572  0.74353568  0.86085973  1
  O  O234  1  0.51516674  0.23523549  0.36277142  1
  O  O235  1  0.51501860  0.26549177  0.88258496  1
  O  O236  1  0.51074897  0.76138184  0.37155619  1
  O  O237  1  0.51541009  0.74480307  0.87982378  1
  O  O238  1  0.25816034  0.13783193  0.48932297  1
  O  O239  1  0.24916597  0.13800174  0.98219012  1
  O  O240  1  0.23505731  0.62777484  0.49035925  1
  O  O241  1  0.23636427  0.61838569  1.00371341  1
  O  O242  1  0.74449395  0.12598174  0.49245690  1
  O  O243  1  0.75975609  0.13553679  0.99936984  1
  O  O244  1  0.76254406  0.64011938  0.48977786  1
  O  O245  1  0.74107928  0.63110130  0.99532591  1
  O  O246  1  0.24466118  0.36714067  0.00082698  1
  O  O247  1  0.25078939  0.36272818  0.50744587  1
  O  O248  1  0.24918654  0.87978904  0.00845839  1
  O  O249  1  0.24184937  0.86392904  0.49186200  1
  O  O250  1  0.76071091  0.36585545  -0.00714769  1
  O  O251  1  0.75113373  0.36050238  0.49436559  1
  O  O252  1  0.75859878  0.87251628  0.00778600  1
  O  O253  1  0.76235252  0.87275483  0.50694106  1
  O  O254  1  0.13303468  0.49473702  0.24419347  1
  O  O255  1  0.12613403  0.48693045  0.74342888  1
  O  O256  1  0.13995005  0.99475274  0.25696696  1
  O  O257  1  0.11831095  1.00140791  0.73777109  1
  O  O258  1  0.62538336  0.49836245  0.25029953  1
  O  O259  1  0.63970388  0.48898585  0.75553619  1
  O  O260  1  0.63294567  0.99870407  0.25011780  1
  O  O261  1  0.61441971  0.98646067  0.74034003  1
  O  O262  1  0.36636719  0.01145974  0.25431709  1
  O  O263  1  0.43091780  0.04219371  0.77286351  1
  O  O264  1  0.36722370  0.50928734  0.24080336  1
  O  O265  1  0.36000167  0.50784667  0.74605460  1
  O  O266  1  0.87855114  0.01012427  0.24722606  1
  O  O267  1  0.89076609  -0.00737473  0.76981967  1
  O  O268  1  0.86664924  0.50069276  0.25626828  1
  O  O269  1  0.87173394  0.50202369  0.75705504  1
  O  O270  1  0.12480557  0.38180026  0.35966424  1
  O  O271  1  0.11597416  0.36547286  0.86475021  1
  O  O272  1  0.12295977  0.86100817  0.37048808  1
  O  O273  1  0.12159789  0.85665502  0.87947921  1
  O  O274  1  0.62750510  0.36244185  0.36600655  1
  O  O275  1  0.62026643  0.36765109  0.87058368  1
  O  O276  1  0.61950375  0.86965228  0.37241248  1
  O  O277  1  0.63131341  0.86941149  0.85971396  1
  O  O278  1  0.35215045  0.13329996  0.14636745  1
  O  O279  1  0.38886526  0.12280980  0.63788123  1
  O  O280  1  0.36918259  0.63813752  0.14000463  1
  O  O281  1  0.37215269  0.62542139  0.64111959  1
  O  O282  1  0.86920742  0.13281097  0.14202804  1
  O  O283  1  0.88645860  0.13847134  0.62297034  1
  O  O284  1  0.88115960  0.63702341  0.12161008  1
  O  O285  1  0.88994437  0.62828047  0.63047293  1
  O  O286  1  0.23649071  0.24674160  0.10376909  1
  O  O287  1  0.24449630  0.25135643  0.61190634  1
  O  O288  1  0.26305707  0.75693194  0.12764240  1
  O  O289  1  0.25361866  0.74895350  0.60798404  1
  O  O290  1  0.76293859  0.25070770  0.11841262  1
  O  O291  1  0.75467193  0.24507148  0.61094412  1
  O  O292  1  0.75621444  0.75567166  0.12160947  1
  O  O293  1  0.75707812  0.76035939  0.61622258  1
  O  O294  1  0.24484194  0.23866664  0.37953708  1
  O  O295  1  0.23708343  0.24969736  0.87850692  1
  O  O296  1  0.23446748  0.74006326  0.37764673  1
  O  O297  1  0.23695418  0.75205752  0.86511697  1
  O  O298  1  0.74329972  0.23872694  0.38026796  1
  O  O299  1  0.74115684  0.24116420  0.88230086  1
  O  O300  1  0.74911597  0.74824763  0.37617450  1
  O  O301  1  0.74535419  0.74533656  0.88067803  1
  O  O302  1  0.00169854  0.12527637  0.01181214  1
  O  O303  1  -0.00787916  0.11016292  0.50684325  1
  O  O304  1  0.00218443  0.61949273  0.00706273  1
  O  O305  1  0.00814285  0.61803532  0.50767014  1
  O  O306  1  0.46749801  0.15981266  0.02428447  1
  O  O307  1  0.50607014  0.11863458  0.50310233  1
  O  O308  1  0.51401332  0.61432777  -0.01041268  1
  O  O309  1  0.49475013  0.59807737  0.48012322  1
  O  O310  1  0.48167958  0.36086467  0.47601101  1
  O  O311  1  0.50281159  0.38282499  0.99220862  1
  O  O312  1  0.50768342  0.89242578  0.48817866  1
  O  O313  1  0.46585064  0.88051330  0.96248184  1
  O  O314  1  1.00203413  0.38731072  0.49818102  1
  O  O315  1  0.99019458  0.37891149  0.99558193  1
  O  O316  1  0.98725512  0.88434036  0.50486876  1
  O  O317  1  0.98629204  0.86757651  1.00438979  1
  O  O318  1  0.49798146  0.53936184  0.41779115  1
  O  O319  1  0.51081971  0.48692122  0.88920975  1
  O  O320  1  0.50204056  0.99794573  0.38538748  1
  O  O321  1  0.53784635  1.00873228  0.91328145  1
  O  O322  1  0.99313423  0.50574269  0.38320130  1
  O  O323  1  0.99398872  0.49260978  0.88024313  1
  O  O324  1  1.00547600  1.00332876  0.38925091  1
  O  O325  1  0.98718989  1.00810283  0.89697978  1
  O  O326  1  -0.00011939  -0.00407147  0.10956529  1
  O  O327  1  0.00748676  0.00778967  0.61945355  1
  O  O328  1  -0.00231664  0.51152375  0.12007523  1
  O  O329  1  0.00892044  0.50458787  0.61813333  1
  O  O330  1  0.45681481  -0.00497797  0.08937956  1
  O  O331  1  0.51210151  -0.00270672  0.61214945  1
  O  O332  1  0.51302556  0.49560467  0.11781757  1
  O  O333  1  0.49571679  0.49341905  0.61399213  1
  O  O334  1  0.24203007  0.37997324  0.24748119  1
  O  O335  1  0.23992272  0.37401555  0.74346408  1
  O  O336  1  0.25581249  0.88808217  0.26522166  1
  O  O337  1  0.30209221  0.88998389  0.73429614  1
  O  O338  1  0.73910170  0.38979143  0.26008063  1
  O  O339  1  0.74138691  0.38358605  0.75495595  1
  O  O340  1  0.75335282  0.88793218  0.24361095  1
  O  O341  1  0.75500100  0.87227078  0.73807258  1
  O  O342  1  0.25554849  0.11816412  0.26490759  1
  O  O343  1  0.26515458  0.12416019  0.75432578  1
  O  O344  1  0.25410269  0.61804315  0.25447514  1
  O  O345  1  0.23601554  0.60559636  0.74826253  1
  O  O346  1  0.75858622  0.11018632  0.25597788  1
  O  O347  1  0.74033099  0.11250266  0.73230503  1
  O  O348  1  0.75219611  0.61684086  0.25984043  1
  O  O349  1  0.75910876  0.61810905  0.75530046  1
  O  O350  1  0.36528981  0.12293791  0.36528967  1
  O  O351  1  0.35715890  0.12958076  0.86666429  1
  O  O352  1  0.35872769  0.62987351  0.36389219  1
  O  O353  1  0.37505603  0.62402619  0.84841580  1
  O  O354  1  0.86340042  0.12851081  0.36097953  1
  O  O355  1  0.87537840  0.11696086  0.87251877  1
  O  O356  1  0.86779137  0.61513905  0.37236384  1
  O  O357  1  0.87169896  0.61895244  0.87186838  1
  O  O358  1  0.12487853  0.37662410  0.13755064  1
  O  O359  1  0.12679439  0.37810085  0.63308604  1
  O  O360  1  0.14572365  0.85994904  0.12993004  1
  O  O361  1  0.12551809  0.88649670  0.62745910  1
  O  O362  1  0.62883300  0.38890701  0.13901095  1
  O  O363  1  0.62001748  0.36466128  0.64613955  1
  O  O364  1  0.63688430  0.87226769  0.11587484  1
  O  O365  1  0.63282563  0.87498366  0.63839642  1
  O  O366  1  0.11053654  0.25794652  0.24570290  1
  O  O367  1  0.11675347  0.25577742  0.75362790  1
  O  O368  1  0.11620317  0.74761596  0.25642424  1
  O  O369  1  0.11683705  0.74046624  0.75937918  1
  O  O370  1  0.62474611  0.25677228  0.25667446  1
  O  O371  1  0.63598654  0.26605289  0.76682058  1
  O  O372  1  0.61357949  0.74421856  0.25771885  1
  O  O373  1  0.63080456  0.76311530  0.75746894  1
  O  O374  1  0.38646981  0.23900092  0.25606795  1
  O  O375  1  0.38478718  0.23437263  0.75860494  1
  O  O376  1  0.38353157  0.74150456  0.25037773  1
  O  O377  1  0.38905405  0.73548804  0.74253278  1
  O  O378  1  0.87590876  0.24666816  0.24437297  1
  O  O379  1  0.88325796  0.25719206  0.74320013  1
  O  O380  1  0.88093966  0.74889188  0.23973165  1
  O  O381  1  0.89099624  0.74201953  0.75019118  1
  O  O382  1  0.35865225  0.46838136  0.50234425  1
  O  O383  1  0.39071720  0.50174990  1.00889413  1
  O  O384  1  0.39099814  1.00597973  0.50456079  1
  O  O385  1  0.40308482  1.01123958  1.04057588  1
  O  O386  1  0.88480781  0.50092610  0.49364883  1
  O  O387  1  0.87526936  0.49270063  0.99695051  1
  O  O388  1  0.88256138  0.99142088  0.50516364  1
  O  O389  1  0.88401194  0.98904421  1.00180320  1
  O  O390  1  0.11074681  0.00291857  -0.00649953  1
  O  O391  1  0.10715609  -0.00714309  0.50996073  1
  O  O392  1  0.11613560  0.51091117  0.00041898  1
  O  O393  1  0.12030125  0.50469702  0.50555648  1
  O  O394  1  0.59542322  0.00584011  -0.03658554  1
  O  O395  1  0.61865246  0.00896934  0.50479348  1
  O  O396  1  0.62369630  0.50582330  0.00913417  1
  O  O397  1  0.63422171  0.47694896  0.52361401  1
  O  O398  1  0.37463262  0.35531039  0.11766633  1
  O  O399  1  0.36306262  0.36862872  0.64136387  1
  O  O400  1  0.36362803  0.85638148  0.12479382  1
  O  O401  1  0.35290160  0.88493244  0.67030276  1
  O  O402  1  0.87664482  0.36912101  0.11487577  1
  O  O403  1  0.87790726  0.35842829  0.61963040  1
  O  O404  1  0.86596025  0.86453631  0.11542092  1
  O  O405  1  0.86877640  0.87626849  0.61714874  1
  O  O406  1  0.13838741  0.12124246  0.37397561  1
  O  O407  1  0.13853909  0.13439582  0.85910328  1
  O  O408  1  0.12920358  0.63139839  0.38132358  1
  O  O409  1  0.12380296  0.62750063  0.88672003  1
  O  O410  1  0.63530221  0.12942337  0.37838153  1
  O  O411  1  0.61492343  0.14311456  0.86572255  1
  O  O412  1  0.64027931  0.64046625  0.37611810  1
  O  O413  1  0.63372432  0.63186844  0.88199231  1
