# generated using pymatgen
data_V79Zn79O256
_symmetry_space_group_name_H-M   'P 1'
_cell_length_a   16.96242225
_cell_length_b   16.97851605
_cell_length_c   16.92373204
_cell_angle_alpha   89.81495790
_cell_angle_beta   90.13234984
_cell_angle_gamma   89.96260618
_symmetry_Int_Tables_number   1
_chemical_formula_structural   V79Zn79O256
_chemical_formula_sum   'V79 Zn79 O256'
_cell_volume   4873.94048420
_cell_formula_units_Z   1
loop_
 _symmetry_equiv_pos_site_id
 _symmetry_equiv_pos_as_xyz
  1  'x, y, z'
loop_
 _atom_site_type_symbol
 _atom_site_label
 _atom_site_symmetry_multiplicity
 _atom_site_fract_x
 _atom_site_fract_y
 _atom_site_fract_z
 _atom_site_occupancy
  V  V0  1  0.49867924  0.00554830  0.00757452  1
  V  V1  1  0.88212684  0.74282925  0.62305327  1
  V  V2  1  0.13627401  0.74583316  0.37198352  1
  V  V3  1  0.75143572  0.87373157  0.64708770  1
  V  V4  1  0.36909672  0.62016077  0.27235505  1
  V  V5  1  0.24075186  0.12715271  0.37724359  1
  V  V6  1  0.74641327  0.39241334  0.62314633  1
  V  V7  1  0.87334630  0.37643064  0.50059165  1
  V  V8  1  0.74727677  0.62919311  0.37209542  1
  V  V9  1  0.86126394  0.00128102  0.36880588  1
  V  V10  1  0.62315725  0.39144319  0.74373325  1
  V  V11  1  0.25035317  0.51462186  0.75020019  1
  V  V12  1  -0.00095198  0.75075513  0.23642865  1
  V  V13  1  0.62633639  0.23852195  0.37809861  1
  V  V14  1  0.24529448  0.50469963  0.25856595  1
  V  V15  1  0.37705739  0.38321837  0.48497920  1
  V  V16  1  -0.00358536  0.87875850  0.87237217  1
  V  V17  1  0.24367585  0.00351177  0.23939153  1
  V  V18  1  0.74697035  0.24045308  0.49352581  1
  V  V19  1  0.35822191  0.87021335  0.50383675  1
  V  V20  1  0.51804736  0.50002267  0.48993105  1
  V  V21  1  0.75581894  0.74743270  0.49397478  1
  V  V22  1  0.11938654  0.25642273  0.85721706  1
  V  V23  1  0.00674415  0.60293701  0.12070431  1
  V  V24  1  0.37722695  0.11957672  0.74247577  1
  V  V25  1  0.13061028  0.60734497  0.00151836  1
  V  V26  1  -0.01335959  0.38847530  0.87569067  1
  V  V27  1  0.62253852  0.89058284  0.24608981  1
  V  V28  1  0.12557790  0.12221577  0.00196942  1
  V  V29  1  0.24426347  0.24944634  0.50008856  1
  V  V30  1  0.74927573  0.50023774  0.24772986  1
  V  V31  1  0.12535990  0.00351069  0.61752226  1
  V  V32  1  0.61903017  0.72407075  0.88249745  1
  V  V33  1  0.12448178  0.87782866  0.23937639  1
  V  V34  1  0.87600964  0.87537620  0.00849596  1
  V  V35  1  0.50086660  0.25054905  0.74453096  1
  V  V36  1  -0.00159888  0.74184407  0.75050615  1
  V  V37  1  0.00388441  0.50030921  0.50425792  1
  V  V38  1  0.37395231  0.26207665  0.12151794  1
  V  V39  1  0.62296506  0.74904073  0.37305348  1
  V  V40  1  0.37839064  0.25033217  0.62078404  1
  V  V41  1  0.49204753  0.74836290  0.25284762  1
  V  V42  1  0.13463825  0.62690171  0.49608590  1
  V  V43  1  0.62110787  0.37468948  0.25937395  1
  V  V44  1  0.75083134  0.24908555  -0.00186206  1
  V  V45  1  0.00149835  0.62066144  0.62553981  1
  V  V46  1  0.87507741  0.25203478  0.12232014  1
  V  V47  1  0.49555106  0.87293876  0.38082292  1
  V  V48  1  0.00063767  0.87295101  0.37318258  1
  V  V49  1  0.74996446  0.37408949  0.12278785  1
  V  V50  1  0.37129857  0.00247698  0.37554810  1
  V  V51  1  0.48589813  0.37228236  0.88200565  1
  V  V52  1  0.00326634  0.00851321  0.49460228  1
  V  V53  1  0.49601677  0.74240351  0.74710118  1
  V  V54  1  0.52011502  0.89088592  0.86649738  1
  V  V55  1  0.37252938  0.12950223  0.24712307  1
  V  V56  1  0.62996907  0.25252804  0.87592327  1
  V  V57  1  0.87668326  0.50133673  0.37505526  1
  V  V58  1  0.49018607  0.62383257  0.12620266  1
  V  V59  1  0.25393641  -0.00959289  0.74076423  1
  V  V60  1  0.25199543  0.25616137  -0.00226364  1
  V  V61  1  0.62350977  0.12965434  0.00607558  1
  V  V62  1  0.13319345  0.87051960  0.74110303  1
  V  V63  1  0.50896512  0.00645119  0.50343454  1
  V  V64  1  0.23887223  0.37693806  0.63394619  1
  V  V65  1  0.12468640  0.37859930  0.24050143  1
  V  V66  1  0.25723284  0.86967736  0.11863988  1
  V  V67  1  0.37313567  0.52283885  0.87589581  1
  V  V68  1  0.87700236  0.62941145  0.23944894  1
  V  V69  1  0.86107555  0.12038591  0.24981217  1
  V  V70  1  0.13612168  0.74624383  0.88080499  1
  V  V71  1  0.11992954  0.25097586  0.37724908  1
  V  V72  1  0.00391138  0.11738216  0.12391183  1
  V  V73  1  0.61885750  0.50281880  0.12321799  1
  V  V74  1  0.87217997  0.24411453  0.63812356  1
  V  V75  1  0.37536191  0.00135962  0.87139629  1
  V  V76  1  0.87765492  0.87558308  0.49538231  1
  V  V77  1  -0.00112913  0.25001022  0.24923391  1
  V  V78  1  0.49669392  0.25678743  0.25910272  1
  Zn  Zn79  1  0.53956096  0.11344896  0.62335684  1
  Zn  Zn80  1  -0.00658487  0.12522040  0.62602714  1
  Zn  Zn81  1  0.88169233  0.53668417  0.85321529  1
  Zn  Zn82  1  0.50099330  0.61409195  0.61333952  1
  Zn  Zn83  1  0.50276668  0.12646580  0.13049345  1
  Zn  Zn84  1  0.38309804  0.87212774  0.00551511  1
  Zn  Zn85  1  0.24870298  0.38649432  0.11596376  1
  Zn  Zn86  1  0.48665974  0.49186379  0.00960291  1
  Zn  Zn87  1  0.24571230  0.12447613  0.87147351  1
  Zn  Zn88  1  0.00028933  0.37568290  0.37562632  1
  Zn  Zn89  1  0.74872182  0.88857662  0.13069912  1
  Zn  Zn90  1  0.00193903  0.00348294  -0.00729798  1
  Zn  Zn91  1  0.34931041  0.74239228  0.64292666  1
  Zn  Zn92  1  0.26549389  0.73379020  0.00718312  1
  Zn  Zn93  1  0.76819348  0.74284611  0.00346541  1
  Zn  Zn94  1  0.18660982  0.19436715  0.18428234  1
  Zn  Zn95  1  0.19062428  0.17933316  0.68157395  1
  Zn  Zn96  1  0.18752454  0.68624004  0.18515360  1
  Zn  Zn97  1  0.17890724  0.67967339  0.68744065  1
  Zn  Zn98  1  0.68396606  0.18915629  0.18818444  1
  Zn  Zn99  1  0.68053946  0.21574920  0.67649270  1
  Zn  Zn100  1  0.70169460  0.67906427  0.15325694  1
  Zn  Zn101  1  0.66859398  0.67407063  0.69082028  1
  Zn  Zn102  1  0.30542105  0.31508388  0.30916822  1
  Zn  Zn103  1  0.30837496  0.30578126  0.81018522  1
  Zn  Zn104  1  0.31352600  0.81482337  0.30798256  1
  Zn  Zn105  1  0.33787986  0.79050335  0.84689893  1
  Zn  Zn106  1  0.81113482  0.31048862  0.31118222  1
  Zn  Zn107  1  0.81061755  0.33609248  0.81044143  1
  Zn  Zn108  1  0.81035178  0.81612823  0.30290521  1
  Zn  Zn109  1  0.80476460  0.71081172  0.81461663  1
  Zn  Zn110  1  0.18950137  0.43565224  0.43826317  1
  Zn  Zn111  1  0.19343624  0.43523028  0.92509842  1
  Zn  Zn112  1  0.18101252  0.94183096  0.42644004  1
  Zn  Zn113  1  0.18644089  0.93965001  0.93142852  1
  Zn  Zn114  1  0.69124285  0.43885462  0.43571818  1
  Zn  Zn115  1  0.67667402  0.43575267  0.94062047  1
  Zn  Zn116  1  0.68531373  0.93206348  0.43919029  1
  Zn  Zn117  1  0.69325730  0.94469336  0.96984728  1
  Zn  Zn118  1  0.31194884  0.06826364  0.05987280  1
  Zn  Zn119  1  0.31239364  0.06238840  0.56119492  1
  Zn  Zn120  1  0.31495033  0.55615724  0.06955648  1
  Zn  Zn121  1  0.31959222  0.56089523  0.56976013  1
  Zn  Zn122  1  0.81599009  0.05698723  0.05730994  1
  Zn  Zn123  1  0.75139825  0.07516458  0.60671561  1
  Zn  Zn124  1  0.81054024  0.56063244  0.05155579  1
  Zn  Zn125  1  0.81220900  0.56418188  0.68629825  1
  Zn  Zn126  1  0.43182675  0.44115411  0.20165185  1
  Zn  Zn127  1  0.43071954  0.44251242  0.68257520  1
  Zn  Zn128  1  0.43772703  0.93773647  0.18910045  1
  Zn  Zn129  1  0.45971352  0.90922147  0.66899949  1
  Zn  Zn130  1  0.93671760  0.43447468  0.18815673  1
  Zn  Zn131  1  0.94430274  0.43187948  0.69589307  1
  Zn  Zn132  1  0.93506458  0.93994430  0.18522548  1
  Zn  Zn133  1  0.94209164  0.93213245  0.68124020  1
  Zn  Zn134  1  0.05737387  0.06292261  0.30780141  1
  Zn  Zn135  1  0.06981033  0.06280599  0.81090024  1
  Zn  Zn136  1  0.06385464  0.56238598  0.31270188  1
  Zn  Zn137  1  0.06547512  0.55599297  0.81618181  1
  Zn  Zn138  1  0.55843039  0.06714835  0.31869684  1
  Zn  Zn139  1  0.56485312  0.07130415  0.81621215  1
  Zn  Zn140  1  0.55864001  0.56003096  0.31764279  1
  Zn  Zn141  1  0.54244739  0.56183973  0.80653943  1
  Zn  Zn142  1  0.43639935  0.18770434  0.43916325  1
  Zn  Zn143  1  0.43555986  0.18822473  0.93575992  1
  Zn  Zn144  1  0.41492994  0.67009093  0.46944261  1
  Zn  Zn145  1  0.45895313  0.70237150  0.95031652  1
  Zn  Zn146  1  0.92940020  0.18503956  0.43547299  1
  Zn  Zn147  1  0.95050770  0.21040707  0.94627987  1
  Zn  Zn148  1  0.94416060  0.68656012  0.43225726  1
  Zn  Zn149  1  0.94795900  0.69306794  0.94451140  1
  Zn  Zn150  1  0.06552902  0.31160061  0.05441537  1
  Zn  Zn151  1  0.05642372  0.30962509  0.56891888  1
  Zn  Zn152  1  0.06601423  0.81236177  0.05726389  1
  Zn  Zn153  1  0.18299774  0.81217724  0.55794026  1
  Zn  Zn154  1  0.56081549  0.31191101  0.06915349  1
  Zn  Zn155  1  0.56120244  0.32084113  0.55715318  1
  Zn  Zn156  1  0.59246439  0.79307383  0.07726735  1
  Zn  Zn157  1  0.59198320  0.78221288  0.58439319  1
  O  O158  1  0.11436199  0.13694541  0.11620541  1
  O  O159  1  0.11462448  0.10852452  0.63224448  1
  O  O160  1  0.11483902  0.62461078  0.11713327  1
  O  O161  1  0.11154978  0.62653335  0.60646384  1
  O  O162  1  0.61926703  0.13529181  0.11205640  1
  O  O163  1  0.65042112  0.11358668  0.65001082  1
  O  O164  1  0.60495639  0.60879915  0.14703551  1
  O  O165  1  0.59937955  0.67093243  0.60839914  1
  O  O166  1  0.36965857  0.36557445  0.38663981  1
  O  O167  1  0.38673519  0.36364772  0.87197678  1
  O  O168  1  0.37475387  0.88896347  0.37454635  1
  O  O169  1  0.38818732  0.89617302  0.87279024  1
  O  O170  1  0.87339432  0.38446183  0.37917500  1
  O  O171  1  0.88708338  0.36820420  0.88243715  1
  O  O172  1  0.88374326  0.88007139  0.37051152  1
  O  O173  1  0.89902296  0.87377990  0.87123484  1
  O  O174  1  0.25326641  0.01016454  0.36386522  1
  O  O175  1  0.25961781  0.00379224  0.86326403  1
  O  O176  1  0.24549940  0.49674032  0.35951203  1
  O  O177  1  0.26524723  0.50442965  0.86535651  1
  O  O178  1  0.76328541  -0.00615895  0.38035418  1
  O  O179  1  0.72611312  0.00437800  0.84803072  1
  O  O180  1  0.75732034  0.51011125  0.36816060  1
  O  O181  1  0.75994046  0.50750687  0.91049654  1
  O  O182  1  0.25819240  0.49525782  0.14577983  1
  O  O183  1  0.26085315  0.48446233  0.63782163  1
  O  O184  1  0.25498220  0.99641626  0.13565523  1
  O  O185  1  0.24119441  1.00519945  0.63037400  1
  O  O186  1  0.74098127  0.49034353  0.12978140  1
  O  O187  1  0.75148114  0.49041968  0.61673834  1
  O  O188  1  0.73147307  0.98495207  0.07443401  1
  O  O189  1  0.77876529  0.97353346  0.63910067  1
  O  O190  1  0.00646476  0.36829605  0.25322248  1
  O  O191  1  0.00686405  0.37773505  0.77219528  1
  O  O192  1  0.00589243  0.87039523  0.25166368  1
  O  O193  1  0.01310617  0.86505147  0.75504724  1
  O  O194  1  0.50761540  0.36546050  0.24912083  1
  O  O195  1  0.50476783  0.36599195  0.75276656  1
  O  O196  1  0.49335853  0.86961102  0.26512559  1
  O  O197  1  0.51881168  0.90851901  0.76695010  1
  O  O198  1  0.48684753  0.13439266  0.25231019  1
  O  O199  1  0.49758324  0.13253918  0.74173020  1
  O  O200  1  0.48453581  0.62890828  0.25679705  1
  O  O201  1  0.49195331  0.64029094  0.73656413  1
  O  O202  1  0.99485927  0.13287554  0.24013220  1
  O  O203  1  0.97377449  0.08625378  0.74160215  1
  O  O204  1  0.99838201  0.62982871  0.23742109  1
  O  O205  1  1.01476281  0.63078342  0.73929264  1
  O  O206  1  0.36559750  0.24122560  0.01053672  1
  O  O207  1  0.36581752  0.25513767  0.50418997  1
  O  O208  1  0.36485315  0.76582824  -0.03513976  1
  O  O209  1  0.37065110  0.77436554  0.48076670  1
  O  O210  1  0.86521845  0.24635075  0.01302067  1
  O  O211  1  0.86312487  0.26014034  0.49721948  1
  O  O212  1  0.88687577  0.76892613  0.00340614  1
  O  O213  1  0.87696593  0.75636328  0.49852065  1
  O  O214  1  0.13367688  0.25615070  0.49115273  1
  O  O215  1  0.13463722  0.23986263  0.98987594  1
  O  O216  1  0.12802212  0.73658910  0.48753604  1
  O  O217  1  0.13574115  0.75043978  0.98818943  1
  O  O218  1  0.63771093  0.26052807  0.49279931  1
  O  O219  1  0.62908865  0.24912407  0.99508374  1
  O  O220  1  0.64159228  0.76310931  0.47874114  1
  O  O221  1  0.57525724  0.74691226  0.97633816  1
  O  O222  1  0.49071042  0.24826867  0.13820738  1
  O  O223  1  0.49631687  0.24810504  0.62979877  1
  O  O224  1  0.50691620  0.73166758  0.14088152  1
  O  O225  1  0.50061277  0.79305161  0.65529493  1
  O  O226  1  0.98904929  0.24670469  0.12796067  1
  O  O227  1  0.97895180  0.24330115  0.61973090  1
  O  O228  1  1.00629191  0.74878352  0.13479727  1
  O  O229  1  0.99589170  0.73794449  0.63277555  1
  O  O230  1  0.00689166  0.24841756  0.37095764  1
  O  O231  1  0.01508063  0.25301850  0.86677031  1
  O  O232  1  0.00710009  0.75731094  0.36031453  1
  O  O233  1  0.01508431  0.75884800  0.86796433  1
  O  O234  1  0.50651857  0.24581062  0.36634495  1
  O  O235  1  0.50530594  0.25871170  0.86525694  1
  O  O236  1  0.50518913  0.75863592  0.37321390  1
  O  O237  1  0.49751039  0.77813992  0.85633122  1
  O  O238  1  0.25489761  0.13630776  0.48759717  1
  O  O239  1  0.24198380  0.13517627  0.99867357  1
  O  O240  1  0.23071608  0.60956438  0.50447548  1
  O  O241  1  0.23448310  0.62425991  1.01565487  1
  O  O242  1  0.74939978  0.14327682  0.50684862  1
  O  O243  1  0.74090948  0.14255700  1.00315445  1
  O  O244  1  0.76089032  0.64068800  0.47789031  1
  O  O245  1  0.74130703  0.64389820  1.05092774  1
  O  O246  1  0.24385144  0.36091987  0.00026500  1
  O  O247  1  0.25738424  0.36601685  0.50828009  1
  O  O248  1  0.24888340  0.88539409  0.01536642  1
  O  O249  1  0.25312760  0.88121441  0.49209425  1
  O  O250  1  0.73624542  0.36393882  0.01687176  1
  O  O251  1  0.75988986  0.37369135  0.50366503  1
  O  O252  1  0.77852061  0.86858950  -0.02514407  1
  O  O253  1  0.76779260  0.86350998  0.48751420  1
  O  O254  1  0.13307477  0.49287170  0.25272464  1
  O  O255  1  0.15052736  0.50271225  0.76197257  1
  O  O256  1  0.13391521  0.99047620  0.25595058  1
  O  O257  1  0.13467719  0.99039057  0.74134322  1
  O  O258  1  0.62942962  0.49018753  0.24746368  1
  O  O259  1  0.60980902  0.48926308  0.74752910  1
  O  O260  1  0.61313969  0.98936277  0.26034873  1
  O  O261  1  0.67512203  1.01197886  0.79327875  1
  O  O262  1  0.36670437  0.01052594  0.25725316  1
  O  O263  1  0.37153926  0.00680744  0.74974816  1
  O  O264  1  0.36549905  0.51231349  0.26180649  1
  O  O265  1  0.36778593  0.49387543  0.76521061  1
  O  O266  1  0.87822121  0.00791026  0.25659440  1
  O  O267  1  0.91764580  0.02824852  0.74650816  1
  O  O268  1  0.87094305  0.50621774  0.25662547  1
  O  O269  1  0.86522096  0.48981357  0.75150330  1
  O  O270  1  0.12330153  0.36369137  0.36693655  1
  O  O271  1  0.13336674  0.35736694  0.86861320  1
  O  O272  1  0.11769359  0.86711119  0.36141412  1
  O  O273  1  0.12697904  0.86170388  0.86545999  1
  O  O274  1  0.63492054  0.36500893  0.36227044  1
  O  O275  1  0.61261111  0.37291779  0.86274731  1
  O  O276  1  0.61165622  0.87116723  0.36762694  1
  O  O277  1  0.61642588  0.88662094  0.89192920  1
  O  O278  1  0.37124108  0.13567896  0.13861579  1
  O  O279  1  0.37224725  0.13694756  0.62978326  1
  O  O280  1  0.38654834  0.61984249  0.14236759  1
  O  O281  1  0.38834139  0.64973588  0.58662790  1
  O  O282  1  0.88182170  0.13148401  0.12945214  1
  O  O283  1  0.85505787  0.14432245  0.62793824  1
  O  O284  1  0.89237752  0.61187996  0.13229523  1
  O  O285  1  0.88696308  0.63482721  0.62051469  1
  O  O286  1  0.25825008  0.25519592  0.11752340  1
  O  O287  1  0.25538907  0.25458037  0.61681253  1
  O  O288  1  0.24840204  0.76580554  0.12340984  1
  O  O289  1  0.24003777  0.75527208  0.63403229  1
  O  O290  1  0.75602598  0.25615731  0.12080587  1
  O  O291  1  0.75661706  0.26736620  0.60969226  1
  O  O292  1  0.70681148  0.78355008  0.10109903  1
  O  O293  1  0.76730483  0.75701680  0.60647887  1
  O  O294  1  0.24021020  0.24454507  0.37987544  1
  O  O295  1  0.24561731  0.24365678  0.88181090  1
  O  O296  1  0.23493912  0.75311280  0.36197268  1
  O  O297  1  0.23510501  0.74300186  0.86548307  1
  O  O298  1  0.74454421  0.25212217  0.38614689  1
  O  O299  1  0.73792190  0.26990809  0.88601894  1
  O  O300  1  0.74577482  0.74599648  0.37100354  1
  O  O301  1  0.71989122  0.73815984  0.89307986  1
  O  O302  1  0.00756306  0.12876459  0.00804783  1
  O  O303  1  -0.00917047  0.11115798  0.50057249  1
  O  O304  1  0.01208666  0.62543598  0.01570797  1
  O  O305  1  0.00317780  0.61698021  0.50476534  1
  O  O306  1  0.50426184  0.12334520  0.00188245  1
  O  O307  1  0.49600131  0.11195018  0.50307748  1
  O  O308  1  0.48999671  0.61829313  0.02456061  1
  O  O309  1  0.50707923  0.60446658  0.48515858  1
  O  O310  1  0.48223609  0.38083548  0.50190010  1
  O  O311  1  0.50195848  0.37034986  0.98482005  1
  O  O312  1  0.48172803  0.88970298  0.48765257  1
  O  O313  1  0.49704124  0.90040141  0.99080527  1
  O  O314  1  0.99090515  0.38124647  0.49917720  1
  O  O315  1  1.01274843  0.36826917  0.97565515  1
  O  O316  1  0.99366917  0.87684862  0.48016675  1
  O  O317  1  0.99977476  0.87536609  0.98809755  1
  O  O318  1  0.50712572  0.48709989  0.38715071  1
  O  O319  1  0.48484552  0.48380418  0.87292430  1
  O  O320  1  0.48649764  0.99765499  0.38149869  1
  O  O321  1  0.49485232  1.00478507  0.88173734  1
  O  O322  1  0.98939091  0.50015384  0.37906699  1
  O  O323  1  0.99191734  0.49579350  0.87768225  1
  O  O324  1  0.99934024  0.99025452  0.37664477  1
  O  O325  1  1.01814917  0.98052472  0.87329905  1
  O  O326  1  0.00048547  0.01519458  0.12455510  1
  O  O327  1  0.00768487  -0.00428504  0.60811267  1
  O  O328  1  0.00534888  0.50417279  0.12636539  1
  O  O329  1  -0.00794694  0.50686380  0.61380950  1
  O  O330  1  0.48627702  0.00836213  0.11126000  1
  O  O331  1  0.49655109  -0.00075579  0.60742929  1
  O  O332  1  0.50082286  0.50539177  0.13313914  1
  O  O333  1  0.48497666  0.50020407  0.60248501  1
  O  O334  1  0.24016773  0.38519079  0.24853539  1
  O  O335  1  0.25241136  0.37027066  0.73522962  1
  O  O336  1  0.24453112  0.88378334  0.23890122  1
  O  O337  1  0.24470299  0.88639539  0.75535781  1
  O  O338  1  0.74230055  0.37822484  0.24208077  1
  O  O339  1  0.72953263  0.37870217  0.74182811  1
  O  O340  1  0.72805795  0.87490731  0.24686848  1
  O  O341  1  0.75770474  0.84798445  0.74088682  1
  O  O342  1  0.25333484  0.12272272  0.25582731  1
  O  O343  1  0.26287361  0.11380110  0.74808017  1
  O  O344  1  0.25832121  0.61691740  0.24715940  1
  O  O345  1  0.25923345  0.61283312  0.73638239  1
  O  O346  1  0.76204432  0.12696401  0.24152057  1
  O  O347  1  0.83064895  0.12576369  0.83410299  1
  O  O348  1  0.76072251  0.62238745  0.24755932  1
  O  O349  1  0.75282517  0.63780973  0.74500325  1
  O  O350  1  0.36336459  0.12213462  0.36619977  1
  O  O351  1  0.37932483  0.11909730  0.85782555  1
  O  O352  1  0.36738033  0.62953146  0.37027456  1
  O  O353  1  0.39477597  0.61898905  0.87531373  1
  O  O354  1  0.88003834  0.11366307  0.36128447  1
  O  O355  1  0.88513111  0.11500331  0.88255378  1
  O  O356  1  0.87126901  0.61855390  0.36137795  1
  O  O357  1  0.87372021  0.64550126  0.87848395  1
  O  O358  1  0.12525884  0.36543174  0.13770469  1
  O  O359  1  0.14018741  0.37037348  0.61878055  1
  O  O360  1  0.13381572  0.87401329  0.13420042  1
  O  O361  1  0.12566574  0.88550819  0.63437309  1
  O  O362  1  0.62951319  0.37873408  0.13915263  1
  O  O363  1  0.62964147  0.36945716  0.63705844  1
  O  O364  1  0.59353763  0.88294290  0.14897568  1
  O  O365  1  0.65369327  0.87124307  0.61689564  1
  O  O366  1  0.12026732  0.25781460  0.25865391  1
  O  O367  1  0.13339599  0.23844641  0.75920859  1
  O  O368  1  0.11772847  0.75716489  0.25169437  1
  O  O369  1  0.11766895  0.75265721  0.75822079  1
  O  O370  1  0.61610830  0.25470645  0.25723460  1
  O  O371  1  0.61634862  0.25995992  0.75859783  1
  O  O372  1  0.60830849  0.76334785  0.26222773  1
  O  O373  1  0.60661988  0.74517778  0.77337885  1
  O  O374  1  0.37782352  0.24659041  0.24657382  1
  O  O375  1  0.38373718  0.24129315  0.74114184  1
  O  O376  1  0.38330292  0.73888945  0.25702489  1
  O  O377  1  0.39039263  0.76326996  0.75118123  1
  O  O378  1  0.87819510  0.24172433  0.24269302  1
  O  O379  1  0.85875644  0.26077198  0.73527663  1
  O  O380  1  0.88380683  0.73842526  0.25098083  1
  O  O381  1  0.89159191  0.75264273  0.73774611  1
  O  O382  1  0.36300560  0.48252367  0.49411448  1
  O  O383  1  0.37211959  0.50225988  0.98262973  1
  O  O384  1  0.37288522  0.99570282  0.48768342  1
  O  O385  1  0.38327341  1.01179958  0.98734116  1
  O  O386  1  0.88462017  0.49045968  0.48673294  1
  O  O387  1  0.82854964  0.49449794  0.96057023  1
  O  O388  1  0.88793502  0.98498752  0.48502966  1
  O  O389  1  0.88751489  0.98489421  0.99696247  1
  O  O390  1  0.12602786  0.01798308  -0.00678312  1
  O  O391  1  0.11590992  -0.00532646  0.50388500  1
  O  O392  1  0.13178587  0.50985705  -0.00885504  1
  O  O393  1  0.11028643  0.50820476  0.48672926  1
  O  O394  1  0.60451859  0.01865902  -0.00971094  1
  O  O395  1  0.60734373  -0.00415625  0.49081283  1
  O  O396  1  0.61049772  0.49004246  0.01984298  1
  O  O397  1  0.61675732  0.48562948  0.50459023  1
  O  O398  1  0.37516127  0.36446124  0.13242680  1
  O  O399  1  0.36622227  0.35969722  0.61822942  1
  O  O400  1  0.36222884  0.87769529  0.12474266  1
  O  O401  1  0.36927505  0.87298623  0.60548739  1
  O  O402  1  0.86272416  0.36427065  0.13351094  1
  O  O403  1  0.86825410  0.36920951  0.61442703  1
  O  O404  1  0.86972583  0.87832761  0.11511321  1
  O  O405  1  0.87986637  0.86114730  0.61163685  1
  O  O406  1  0.13284969  0.13515021  0.36659592  1
  O  O407  1  0.12497189  0.13519624  0.88110681  1
  O  O408  1  0.11601940  0.63398316  0.38493680  1
  O  O409  1  0.11561188  0.63605275  0.89302297  1
  O  O410  1  0.62651118  0.13899342  0.37351584  1
  O  O411  1  0.61956053  0.14618048  0.88574728  1
  O  O412  1  0.63895780  0.63534427  0.35991955  1
  O  O413  1  0.60041482  0.62550114  0.88077158  1
