# generated using pymatgen
data_V79Zn79O256
_symmetry_space_group_name_H-M   'P 1'
_cell_length_a   16.94782824
_cell_length_b   16.95453636
_cell_length_c   16.96686653
_cell_angle_alpha   90.29162633
_cell_angle_beta   89.77950350
_cell_angle_gamma   90.08869774
_symmetry_Int_Tables_number   1
_chemical_formula_structural   V79Zn79O256
_chemical_formula_sum   'V79 Zn79 O256'
_cell_volume   4875.19808764
_cell_formula_units_Z   1
loop_
 _symmetry_equiv_pos_site_id
 _symmetry_equiv_pos_as_xyz
  1  'x, y, z'
loop_
 _atom_site_type_symbol
 _atom_site_label
 _atom_site_symmetry_multiplicity
 _atom_site_fract_x
 _atom_site_fract_y
 _atom_site_fract_z
 _atom_site_occupancy
  V  V0  1  0.14590470  0.86923282  0.24489935  1
  V  V1  1  0.12641534  0.26076003  0.37401367  1
  V  V2  1  -0.00368222  0.24972778  0.74604104  1
  V  V3  1  0.87665560  0.00009958  0.37492579  1
  V  V4  1  0.88242859  0.38214407  0.00158511  1
  V  V5  1  0.23211286  0.37963157  0.12744111  1
  V  V6  1  0.62936735  0.63067106  -0.01013452  1
  V  V7  1  0.86638991  0.62601303  0.75590804  1
  V  V8  1  0.37704579  0.50885682  0.87079013  1
  V  V9  1  0.12519078  0.12613740  0.49249905  1
  V  V10  1  0.38156448  0.74577643  0.63916689  1
  V  V11  1  0.50915457  0.87036358  0.37192774  1
  V  V12  1  0.88060455  0.24904407  0.12415855  1
  V  V13  1  0.62083765  0.62417629  0.48984379  1
  V  V14  1  0.74971258  0.12565085  0.37370248  1
  V  V15  1  0.75845120  0.87144909  0.12278303  1
  V  V16  1  0.62948663  0.37936812  0.73825294  1
  V  V17  1  0.25082339  0.24741015  0.49390924  1
  V  V18  1  0.37512476  0.86689673  0.49825067  1
  V  V19  1  0.88284402  0.12642282  0.24581199  1
  V  V20  1  0.50172984  -0.00322881  0.49812830  1
  V  V21  1  0.61757190  0.50648073  0.12515325  1
  V  V22  1  0.37817765  0.50701899  0.37200503  1
  V  V23  1  0.87890597  0.75197450  0.63229586  1
  V  V24  1  0.25569601  0.01174250  0.75851657  1
  V  V25  1  -0.00945633  0.37673543  0.38161552  1
  V  V26  1  0.00574843  0.85553064  0.86861377  1
  V  V27  1  0.75103060  0.00100794  0.24623519  1
  V  V28  1  0.86591835  0.50311274  0.87611036  1
  V  V29  1  0.03515092  0.51993793  0.47749396  1
  V  V30  1  0.61108590  0.36832036  0.25125520  1
  V  V31  1  0.25300653  0.37583449  0.62415571  1
  V  V32  1  0.12596418  0.24240041  0.87546399  1
  V  V33  1  0.23559701  0.50108987  0.25046001  1
  V  V34  1  0.00681028  0.60691571  0.12390715  1
  V  V35  1  0.74732602  0.87371178  0.63082605  1
  V  V36  1  -0.00023006  -0.00085964  0.49837644  1
  V  V37  1  0.24495050  0.24758223  -0.00697109  1
  V  V38  1  0.86411648  0.49926274  0.37536775  1
  V  V39  1  0.37567060  0.62043660  0.23657541  1
  V  V40  1  0.25439771  0.51005094  0.75274055  1
  V  V41  1  0.74125223  0.75083297  0.48457797  1
  V  V42  1  0.24293760  0.73267030  0.48879727  1
  V  V43  1  0.87670547  0.62691619  0.25181690  1
  V  V44  1  0.75538165  0.12457144  0.87626541  1
  V  V45  1  0.38311961  0.24341471  0.12605133  1
  V  V46  1  0.38275385  0.37333613  0.48963219  1
  V  V47  1  0.24453389  0.87701728  0.62249629  1
  V  V48  1  0.12503696  0.60893469  -0.00269842  1
  V  V49  1  0.62422547  0.12396097  0.50033479  1
  V  V50  1  0.37189572  0.77791261  0.12743598  1
  V  V51  1  0.37602871  0.24387841  0.62758364  1
  V  V52  1  0.00385878  0.85782684  0.36591827  1
  V  V53  1  0.75798134  0.00678396  0.74880561  1
  V  V54  1  0.61874513  0.12158576  0.00348663  1
  V  V55  1  0.62236327  -0.00210929  0.11356788  1
  V  V56  1  -0.00124324  0.38364324  0.87875726  1
  V  V57  1  0.88551801  0.74754396  0.12429702  1
  V  V58  1  0.80998380  0.42616482  0.55924477  1
  V  V59  1  0.88615859  0.87723800  0.00048825  1
  V  V60  1  0.87613690  0.87351978  0.50010324  1
  V  V61  1  0.37656873  0.38144317  0.00169305  1
  V  V62  1  0.49999883  0.50059170  0.50541950  1
  V  V63  1  0.87127515  0.25070519  0.62220109  1
  V  V64  1  0.74795121  0.50276513  0.25153153  1
  V  V65  1  0.12694321  0.37674144  0.75083610  1
  V  V66  1  0.75069147  0.24989632  0.50152453  1
  V  V67  1  0.75008778  0.37319702  0.12503141  1
  V  V68  1  0.00073301  0.62488390  0.62817340  1
  V  V69  1  0.00385012  0.25484717  0.25144270  1
  V  V70  1  0.49638561  0.24479802  0.75684898  1
  V  V71  1  0.24496568  0.76402094  0.00560532  1
  V  V72  1  0.88642576  0.00478258  0.87329513  1
  V  V73  1  0.50836630  0.74408362  0.24731460  1
  V  V74  1  0.62656838  -0.00293710  0.63018331  1
  V  V75  1  0.35884522  0.00221371  0.37319368  1
  V  V76  1  0.12802375  0.50571779  0.62549571  1
  V  V77  1  -0.00338887  0.12697157  0.62353809  1
  V  V78  1  0.61054976  0.25062403  0.37112280  1
  Zn  Zn79  1  0.63131204  0.87026555  0.25216980  1
  Zn  Zn80  1  0.75316966  0.73954577  -0.02671345  1
  Zn  Zn81  1  0.01754068  0.02539700  0.00183889  1
  Zn  Zn82  1  0.62918508  0.25368310  0.87759797  1
  Zn  Zn83  1  0.75066973  0.24914385  -0.00114049  1
  Zn  Zn84  1  0.49567614  0.50777396  0.00565531  1
  Zn  Zn85  1  0.39052892  0.13157866  0.25577098  1
  Zn  Zn86  1  0.50428152  0.37938099  0.87606115  1
  Zn  Zn87  1  0.10078686  0.00459666  0.14159962  1
  Zn  Zn88  1  0.24333090  0.63231312  0.87568309  1
  Zn  Zn89  1  0.11888678  0.86783922  0.74995390  1
  Zn  Zn90  1  0.74397666  0.49811882  0.74446836  1
  Zn  Zn91  1  0.50598138  0.62793447  0.63420007  1
  Zn  Zn92  1  0.12406405  0.00155835  0.62513246  1
  Zn  Zn93  1  0.49500294  0.11816130  0.63188110  1
  Zn  Zn94  1  0.19648003  0.19626306  0.19235112  1
  Zn  Zn95  1  0.18531398  0.18933323  0.68274100  1
  Zn  Zn96  1  0.18847995  0.68930385  0.18823911  1
  Zn  Zn97  1  0.18669247  0.69371356  0.67797620  1
  Zn  Zn98  1  0.68705803  0.18627666  0.18702575  1
  Zn  Zn99  1  0.68373985  0.18800275  0.68960778  1
  Zn  Zn100  1  0.69474347  0.68678165  0.18294200  1
  Zn  Zn101  1  0.68312097  0.68316523  0.68165883  1
  Zn  Zn102  1  0.31396566  0.31649854  0.30707746  1
  Zn  Zn103  1  0.31577861  0.31879292  0.81359816  1
  Zn  Zn104  1  0.31704671  0.80967530  0.31364815  1
  Zn  Zn105  1  0.26750295  0.79054401  0.79899496  1
  Zn  Zn106  1  0.80748903  0.31325736  0.31293527  1
  Zn  Zn107  1  0.81077789  0.31359851  0.81118361  1
  Zn  Zn108  1  0.82069644  0.81448324  0.30831593  1
  Zn  Zn109  1  0.81566281  0.81637701  0.81255406  1
  Zn  Zn110  1  0.19642160  0.43632490  0.43246961  1
  Zn  Zn111  1  0.18914661  0.43478326  0.93780465  1
  Zn  Zn112  1  0.18122513  0.92828623  0.43731745  1
  Zn  Zn113  1  0.18594756  0.94023520  0.93886489  1
  Zn  Zn114  1  0.67381722  0.43752907  0.43199877  1
  Zn  Zn115  1  0.68661889  0.43606559  0.93711361  1
  Zn  Zn116  1  0.68985687  0.93649296  0.43854167  1
  Zn  Zn117  1  0.70224992  0.91265782  0.92231992  1
  Zn  Zn118  1  0.21182760  0.07553796  0.05990616  1
  Zn  Zn119  1  0.31116823  0.06094516  0.55743770  1
  Zn  Zn120  1  0.30447070  0.56108533  0.06458080  1
  Zn  Zn121  1  0.32081412  0.56345659  0.56793980  1
  Zn  Zn122  1  0.81831701  0.06193234  0.05844294  1
  Zn  Zn123  1  0.81371409  0.06491108  0.56156787  1
  Zn  Zn124  1  0.81071187  0.56249139  0.06380494  1
  Zn  Zn125  1  0.80602063  0.58627043  0.56484555  1
  Zn  Zn126  1  0.43301820  0.43283942  0.18581140  1
  Zn  Zn127  1  0.44158949  0.43137269  0.68614956  1
  Zn  Zn128  1  0.44825228  0.96154122  0.19793158  1
  Zn  Zn129  1  0.42741244  0.94010048  0.68475711  1
  Zn  Zn130  1  0.94116916  0.43361379  0.19182447  1
  Zn  Zn131  1  0.94271928  0.44519932  0.69189161  1
  Zn  Zn132  1  0.94509386  0.93787000  0.18681324  1
  Zn  Zn133  1  0.93941440  0.93800670  0.68952719  1
  Zn  Zn134  1  0.06706104  0.05931372  0.31450401  1
  Zn  Zn135  1  0.07214627  0.05752700  0.80517293  1
  Zn  Zn136  1  0.05466498  0.56746722  0.30910635  1
  Zn  Zn137  1  0.05803734  0.57001618  0.81224604  1
  Zn  Zn138  1  0.56011943  0.06710373  0.30855769  1
  Zn  Zn139  1  0.57080544  0.06585355  0.81088926  1
  Zn  Zn140  1  0.55987227  0.56139118  0.31535271  1
  Zn  Zn141  1  0.56906472  0.56133205  0.81750278  1
  Zn  Zn142  1  0.43431959  0.17900270  0.44138664  1
  Zn  Zn143  1  0.43873893  0.19025620  0.95298834  1
  Zn  Zn144  1  0.43541171  0.68541788  0.43215284  1
  Zn  Zn145  1  0.43289876  0.68024467  0.95712136  1
  Zn  Zn146  1  0.93595065  0.18810430  0.43716915  1
  Zn  Zn147  1  0.93434122  0.19537725  0.93100629  1
  Zn  Zn148  1  0.92999432  0.68385085  0.44192188  1
  Zn  Zn149  1  0.94129503  0.68409520  0.94382430  1
  Zn  Zn150  1  0.06305194  0.19293618  0.06718269  1
  Zn  Zn151  1  0.06095815  0.32234486  0.55852004  1
  Zn  Zn152  1  0.06980092  0.81442853  0.06811990  1
  Zn  Zn153  1  0.06333847  0.80518144  0.55134930  1
  Zn  Zn154  1  0.56249507  0.31416860  0.06125077  1
  Zn  Zn155  1  0.56024783  0.30982248  0.56371152  1
  Zn  Zn156  1  0.56798261  0.80675661  0.07185684  1
  Zn  Zn157  1  0.56308934  0.81113318  0.56490619  1
  O  O158  1  0.13142265  0.12747485  0.12979096  1
  O  O159  1  0.11126557  0.13037068  0.60966316  1
  O  O160  1  0.11048416  0.62549193  0.12357486  1
  O  O161  1  0.11505851  0.61651656  0.63137289  1
  O  O162  1  0.63517107  0.11189683  0.11391839  1
  O  O163  1  0.62448686  0.11380601  0.61813694  1
  O  O164  1  0.62843724  0.60746637  0.12956686  1
  O  O165  1  0.61921198  0.63328763  0.60189555  1
  O  O166  1  0.37417552  0.37995204  0.38483936  1
  O  O167  1  0.37516796  0.38743191  0.88631354  1
  O  O168  1  0.38595961  0.88076935  0.38618048  1
  O  O169  1  0.41694870  0.83344272  0.88280996  1
  O  O170  1  0.87857707  0.38346819  0.37482891  1
  O  O171  1  0.87954302  0.38116370  0.88101353  1
  O  O172  1  0.88260205  0.88020331  0.38224585  1
  O  O173  1  0.89037118  0.88380366  0.88105983  1
  O  O174  1  0.26108086  -0.00455130  0.39228593  1
  O  O175  1  0.24734514  -0.00924998  0.85672653  1
  O  O176  1  0.26298039  0.48993921  0.35722038  1
  O  O177  1  0.25924505  0.50028004  0.86795270  1
  O  O178  1  0.75529861  0.00371911  0.36623281  1
  O  O179  1  0.75914316  0.00201667  0.86567709  1
  O  O180  1  0.75362203  0.49126115  0.36332592  1
  O  O181  1  0.76345820  0.49483744  0.87161846  1
  O  O182  1  0.24950743  0.48905049  0.13676512  1
  O  O183  1  0.24914509  0.49585841  0.63511770  1
  O  O184  1  0.26839200  1.04368064  0.16517830  1
  O  O185  1  0.24604300  0.98578971  0.61411935  1
  O  O186  1  0.74343893  0.48965139  0.13390527  1
  O  O187  1  0.75999549  0.49099154  0.62022650  1
  O  O188  1  0.75562667  0.99238967  0.13299487  1
  O  O189  1  0.74769203  0.99573847  0.62820225  1
  O  O190  1  -0.00430545  0.36417820  0.26523619  1
  O  O191  1  0.00931396  0.36945689  0.75279658  1
  O  O192  1  -0.01319547  0.86774985  0.26657978  1
  O  O193  1  -0.00136340  0.87456450  0.76359672  1
  O  O194  1  0.51247586  0.37498356  0.24613209  1
  O  O195  1  0.50904730  0.36441757  0.75278448  1
  O  O196  1  0.50516279  0.86750476  0.25811664  1
  O  O197  1  0.49988544  0.91656841  0.77852112  1
  O  O198  1  0.48253365  0.07382697  0.23128407  1
  O  O199  1  0.50533905  0.13947699  0.74938163  1
  O  O200  1  0.49415657  0.63915144  0.25423723  1
  O  O201  1  0.53563070  0.65264995  0.75137133  1
  O  O202  1  0.98856104  0.13763693  0.26075331  1
  O  O203  1  1.01015942  0.14123110  0.73623546  1
  O  O204  1  0.98887927  0.62153159  0.23671034  1
  O  O205  1  0.98650036  0.61988495  0.73625352  1
  O  O206  1  0.36500672  0.26478774  0.00093887  1
  O  O207  1  0.36984300  0.25502519  0.50313853  1
  O  O208  1  0.37227999  0.74999990  0.02380715  1
  O  O209  1  0.37438542  0.75722329  0.50496951  1
  O  O210  1  0.87245086  0.26288633  0.00997799  1
  O  O211  1  0.86427304  0.25073861  0.50769497  1
  O  O212  1  0.87098252  0.75722831  0.00643488  1
  O  O213  1  0.85958335  0.75152647  0.51145052  1
  O  O214  1  0.13106518  0.24879433  0.49409004  1
  O  O215  1  0.13799656  0.25418187  0.99191968  1
  O  O216  1  0.14269689  0.74396700  0.50062347  1
  O  O217  1  0.14161557  0.74312712  1.01210104  1
  O  O218  1  0.63182518  0.24511496  0.49401755  1
  O  O219  1  0.62945711  0.23574240  1.00203389  1
  O  O220  1  0.63515927  0.74891437  0.49635549  1
  O  O221  1  0.62865239  0.73401877  1.00929158  1
  O  O222  1  0.48291499  0.26000752  0.12094735  1
  O  O223  1  0.49188361  0.24633045  0.63513833  1
  O  O224  1  0.48678818  0.76015086  0.13976936  1
  O  O225  1  0.48504358  0.76002664  0.62873512  1
  O  O226  1  0.98947316  0.25516505  0.13925434  1
  O  O227  1  0.99268194  0.24955005  0.62516623  1
  O  O228  1  0.98747352  0.74549379  0.12199869  1
  O  O229  1  0.98768852  0.74072860  0.61439069  1
  O  O230  1  0.00345483  0.25997026  0.37402456  1
  O  O231  1  0.00432754  0.26280089  0.86208518  1
  O  O232  1  -0.00764784  0.75959876  0.38436524  1
  O  O233  1  -0.00266912  0.75669126  0.87402462  1
  O  O234  1  0.51161474  0.23985853  0.37992947  1
  O  O235  1  0.49315958  0.24860754  0.86387410  1
  O  O236  1  0.49038625  0.75930228  0.35787129  1
  O  O237  1  0.46248181  0.77600195  0.87481456  1
  O  O238  1  0.23928983  0.13869583  0.50566217  1
  O  O239  1  0.26171797  0.14970979  0.99136949  1
  O  O240  1  0.25913708  0.63438119  0.50551539  1
  O  O241  1  0.23371615  0.62703855  1.00551718  1
  O  O242  1  0.74482111  0.13108253  0.49372634  1
  O  O243  1  0.74751176  0.12643242  0.99033117  1
  O  O244  1  0.73799250  0.64176313  0.49675385  1
  O  O245  1  0.73855254  0.62950912  1.01061556  1
  O  O246  1  0.25647761  0.37514268  0.01049649  1
  O  O247  1  0.26092339  0.36576481  0.50460633  1
  O  O248  1  0.24707587  0.86273984  0.00074261  1
  O  O249  1  0.25828658  0.86594891  0.50493043  1
  O  O250  1  0.75792484  0.37378566  0.01196977  1
  O  O251  1  0.74348872  0.36920448  0.50314491  1
  O  O252  1  0.76929296  0.88313772  0.01606379  1
  O  O253  1  0.75470094  0.86695145  0.50829321  1
  O  O254  1  0.13721880  0.50431572  0.25804108  1
  O  O255  1  0.13133506  0.49388717  0.74469491  1
  O  O256  1  0.11772362  0.98196797  0.25381164  1
  O  O257  1  0.13466228  0.98722398  0.74016413  1
  O  O258  1  0.62939241  0.49203545  0.24419417  1
  O  O259  1  0.62455874  0.48516773  0.75165703  1
  O  O260  1  0.64122284  1.00266525  0.23622351  1
  O  O261  1  0.63847246  1.00340134  0.73658580  1
  O  O262  1  0.36545116  -0.01886911  0.27611866  1
  O  O263  1  0.35553291  0.00942059  0.73612899  1
  O  O264  1  0.37785378  0.50457620  0.25658135  1
  O  O265  1  0.36825389  0.49200938  0.76187942  1
  O  O266  1  0.86920461  0.00905415  0.25395266  1
  O  O267  1  0.86838758  0.00024826  0.75863055  1
  O  O268  1  0.86640352  0.50358514  0.25655132  1
  O  O269  1  0.86947139  0.50636764  0.75665544  1
  O  O270  1  0.11546197  0.36643250  0.37895201  1
  O  O271  1  0.11719896  0.37276730  0.86652036  1
  O  O272  1  0.10893492  0.87435917  0.36591030  1
  O  O273  1  0.10520030  0.87885945  0.88006071  1
  O  O274  1  0.62766462  0.36192073  0.36356674  1
  O  O275  1  0.62146943  0.37063822  0.86910378  1
  O  O276  1  0.61548894  0.87950037  0.37200041  1
  O  O277  1  0.58316066  0.87661968  0.91848794  1
  O  O278  1  0.37716785  0.14835859  0.10449921  1
  O  O279  1  0.37527990  0.13969572  0.61460909  1
  O  O280  1  0.37980739  0.61537390  0.13554956  1
  O  O281  1  0.38360501  0.64093296  0.62807815  1
  O  O282  1  0.86682295  0.13823605  0.13540142  1
  O  O283  1  0.88668064  0.13649272  0.61966993  1
  O  O284  1  0.88558361  0.62749084  0.12898880  1
  O  O285  1  0.87976251  0.63391695  0.63532607  1
  O  O286  1  0.25562967  0.26423865  0.11205019  1
  O  O287  1  0.25590770  0.25653391  0.61668323  1
  O  O288  1  0.26482986  0.74981118  0.12051889  1
  O  O289  1  0.26323766  0.75958106  0.61186557  1
  O  O290  1  0.76107475  0.26021968  0.12899819  1
  O  O291  1  0.75914813  0.24251236  0.61574826  1
  O  O292  1  0.76215201  0.76186564  0.12764497  1
  O  O293  1  0.75588184  0.75989026  0.62285451  1
  O  O294  1  0.24160057  0.25943997  0.38463731  1
  O  O295  1  0.24075147  0.26622935  0.88512777  1
  O  O296  1  0.26217603  0.74728270  0.39057840  1
  O  O297  1  0.26880422  0.74256764  0.90218158  1
  O  O298  1  0.74522174  0.24508607  0.38558211  1
  O  O299  1  0.75168225  0.23749795  0.87513190  1
  O  O300  1  0.75461306  0.75991412  0.38693017  1
  O  O301  1  0.73243681  0.80526849  0.88456900  1
  O  O302  1  -0.00352314  0.13664163  -0.00122039  1
  O  O303  1  0.00442976  0.12148682  0.50489041  1
  O  O304  1  0.01143568  0.62611110  0.01424771  1
  O  O305  1  -0.01831168  0.61036535  0.51582214  1
  O  O306  1  0.51973783  0.12136914  -0.00491935  1
  O  O307  1  0.50593551  0.11110438  0.50420539  1
  O  O308  1  0.51927513  0.62069561  -0.00093431  1
  O  O309  1  0.50783239  0.62195786  0.49842411  1
  O  O310  1  0.49103504  0.38355005  0.50647674  1
  O  O311  1  0.49008000  0.38284460  0.99753443  1
  O  O312  1  0.49605901  0.87841659  0.49361886  1
  O  O313  1  0.53666132  0.88148736  0.97840501  1
  O  O314  1  1.00968138  0.39987259  0.48684435  1
  O  O315  1  0.98800511  0.37145261  0.98596180  1
  O  O316  1  0.99568700  0.87969261  0.49172808  1
  O  O317  1  0.99263422  0.86983301  0.99128315  1
  O  O318  1  0.48902251  0.50194203  0.38839250  1
  O  O319  1  0.48489738  0.50153055  0.87299397  1
  O  O320  1  0.49831271  0.99057247  0.38781392  1
  O  O321  1  0.49653112  0.97293382  0.83143372  1
  O  O322  1  0.97949762  0.49284197  0.37516989  1
  O  O323  1  0.98881160  0.48835915  0.86444131  1
  O  O324  1  0.99234610  0.99380045  0.38189045  1
  O  O325  1  0.99349462  1.00546724  0.87588776  1
  O  O326  1  -0.01053637  0.00608414  0.11373528  1
  O  O327  1  -0.00111355  0.01024683  0.61862557  1
  O  O328  1  -0.00265135  0.50787783  0.12594053  1
  O  O329  1  0.01336030  0.50628473  0.62008154  1
  O  O330  1  0.52543360  -0.01910408  0.11159916  1
  O  O331  1  0.50853544  -0.00481629  0.61661592  1
  O  O332  1  0.51578521  0.49320828  0.12675426  1
  O  O333  1  0.48576108  0.50848032  0.61108673  1
  O  O334  1  0.25210490  0.38551964  0.23688827  1
  O  O335  1  0.24206572  0.38283283  0.74568942  1
  O  O336  1  0.24494034  0.87615154  0.25671641  1
  O  O337  1  0.25676817  0.88807356  0.72730321  1
  O  O338  1  0.74496331  0.38308499  0.24096455  1
  O  O339  1  0.73454460  0.37226306  0.74999881  1
  O  O340  1  0.75454284  0.88458457  0.24268963  1
  O  O341  1  0.75762841  0.88921559  0.73566530  1
  O  O342  1  0.27072566  0.10161087  0.21918281  1
  O  O343  1  0.23456662  0.11058601  0.74347702  1
  O  O344  1  0.25801288  0.60748018  0.24078663  1
  O  O345  1  0.24447899  0.61215871  0.75270754  1
  O  O346  1  0.76013205  0.11897439  0.25433755  1
  O  O347  1  0.74488374  0.11610222  0.76041301  1
  O  O348  1  0.76061842  0.61064324  0.24127698  1
  O  O349  1  0.76179786  0.62028140  0.74128417  1
  O  O350  1  0.37606631  0.10797981  0.37429419  1
  O  O351  1  0.38908003  0.08858886  0.89626721  1
  O  O352  1  0.37629972  0.61343985  0.36137633  1
  O  O353  1  0.37144760  0.61086191  0.88359672  1
  O  O354  1  0.86910042  0.12135339  0.36698774  1
  O  O355  1  0.86541178  0.11682508  0.87778379  1
  O  O356  1  0.87815791  0.61155402  0.36539204  1
  O  O357  1  0.88331314  0.61651097  0.86716083  1
  O  O358  1  0.13709187  0.37172428  0.12350720  1
  O  O359  1  0.13001289  0.38088201  0.63617165  1
  O  O360  1  0.12436943  0.88124439  0.14139147  1
  O  O361  1  0.13805623  0.87030048  0.61769700  1
  O  O362  1  0.63412797  0.37938183  0.13104262  1
  O  O363  1  0.62174498  0.37033191  0.63841962  1
  O  O364  1  0.64227724  0.88347029  0.12581230  1
  O  O365  1  0.63678188  0.88484456  0.61853300  1
  O  O366  1  0.11655065  0.24356790  0.26384580  1
  O  O367  1  0.11954093  0.26194420  0.75324506  1
  O  O368  1  0.13047418  0.76705650  0.24784307  1
  O  O369  1  0.16167880  0.76333674  0.76121270  1
  O  O370  1  0.63147454  0.25534271  0.25894046  1
  O  O371  1  0.61263878  0.25720732  0.75288830  1
  O  O372  1  0.61195745  0.74879275  0.23876195  1
  O  O373  1  0.59412339  0.70998448  0.75622393  1
  O  O374  1  0.35918249  0.24121012  0.23360458  1
  O  O375  1  0.38582908  0.25903058  0.74153839  1
  O  O376  1  0.37818561  0.74184781  0.23774313  1
  O  O377  1  0.36275354  0.75987379  0.73612414  1
  O  O378  1  0.88102717  0.24576868  0.24554405  1
  O  O379  1  0.88637836  0.26178282  0.73587652  1
  O  O380  1  0.86724911  0.73451082  0.24062937  1
  O  O381  1  0.86926221  0.74416577  0.74034221  1
  O  O382  1  0.37798553  0.49244707  0.49165339  1
  O  O383  1  0.37279228  0.49692359  0.99147736  1
  O  O384  1  0.38527976  0.98991974  0.49700991  1
  O  O385  1  0.38927645  1.02639035  0.93591206  1
  O  O386  1  0.85510386  0.49551377  0.49519373  1
  O  O387  1  0.87043658  0.49061032  0.99306576  1
  O  O388  1  0.87861577  0.99452282  0.49500775  1
  O  O389  1  0.87742673  0.99131298  0.98680654  1
  O  O390  1  0.13446173  0.00376510  0.01690351  1
  O  O391  1  0.11802213  0.01031655  0.49944693  1
  O  O392  1  0.12776024  0.50954633  0.00206522  1
  O  O393  1  0.13844623  0.48658895  0.52245168  1
  O  O394  1  0.64120042  0.00855314  0.00861771  1
  O  O395  1  0.62076788  0.00299608  0.50746571  1
  O  O396  1  0.62941628  0.50459802  0.01564760  1
  O  O397  1  0.61538945  0.51230834  0.49489511  1
  O  O398  1  0.36802047  0.37231399  0.11371490  1
  O  O399  1  0.37115601  0.36458240  0.61480798  1
  O  O400  1  0.37728910  0.87562509  0.13388346  1
  O  O401  1  0.36773281  0.86892164  0.61383388  1
  O  O402  1  0.87050183  0.37066216  0.12091581  1
  O  O403  1  0.87715483  0.37269184  0.61763015  1
  O  O404  1  0.87632032  0.86637894  0.12000864  1
  O  O405  1  0.87054098  0.86905270  0.61993919  1
  O  O406  1  0.11637414  0.13931946  0.38747672  1
  O  O407  1  0.11977147  0.14415841  0.86663484  1
  O  O408  1  0.09743949  0.57092321  0.41393500  1
  O  O409  1  0.12145169  0.62147830  0.89213711  1
  O  O410  1  0.63011550  0.12959581  0.37781969  1
  O  O411  1  0.63601389  0.12156705  0.88783842  1
  O  O412  1  0.62141000  0.62716434  0.38796564  1
  O  O413  1  0.63682311  0.61626749  0.89142355  1
