# generated using pymatgen
data_V79Zn79O256
_symmetry_space_group_name_H-M   'P 1'
_cell_length_a   16.91089788
_cell_length_b   16.92661848
_cell_length_c   16.91893076
_cell_angle_alpha   89.77869922
_cell_angle_beta   89.85061683
_cell_angle_gamma   90.11500937
_symmetry_Int_Tables_number   1
_chemical_formula_structural   V79Zn79O256
_chemical_formula_sum   'V79 Zn79 O256'
_cell_volume   4842.88533361
_cell_formula_units_Z   1
loop_
 _symmetry_equiv_pos_site_id
 _symmetry_equiv_pos_as_xyz
  1  'x, y, z'
loop_
 _atom_site_type_symbol
 _atom_site_label
 _atom_site_symmetry_multiplicity
 _atom_site_fract_x
 _atom_site_fract_y
 _atom_site_fract_z
 _atom_site_occupancy
  V  V0  1  0.36782489  0.12817793  0.75262410  1
  V  V1  1  0.75293700  0.25296369  0.49688323  1
  V  V2  1  0.62907990  0.00143278  0.62846355  1
  V  V3  1  0.25447127  0.75688208  0.50178870  1
  V  V4  1  0.01117216  0.50249705  -0.00223313  1
  V  V5  1  0.38002191  0.75986223  0.62226405  1
  V  V6  1  0.62549829  0.38097553  0.25227065  1
  V  V7  1  0.25163273  0.21881201  0.00450308  1
  V  V8  1  0.62757053  0.37668375  0.75120502  1
  V  V9  1  -0.00749654  0.12425533  0.13651973  1
  V  V10  1  -0.00466337  0.00021003  0.50056343  1
  V  V11  1  0.49826761  0.87378270  0.37725683  1
  V  V12  1  0.50259015  0.62734455  0.62992734  1
  V  V13  1  0.24771433  0.38644033  0.63218322  1
  V  V14  1  0.62415428  0.87494057  0.25163009  1
  V  V15  1  -0.01777099  0.00776347  -0.00713269  1
  V  V16  1  -0.02833670  0.87788689  0.88080368  1
  V  V17  1  0.50911066  0.50606608  0.00768926  1
  V  V18  1  0.00305524  0.25015919  0.76210734  1
  V  V19  1  0.13645667  0.26056268  0.37041883  1
  V  V20  1  0.50359108  0.50051868  0.49853856  1
  V  V21  1  0.24760203  0.49156792  0.24043207  1
  V  V22  1  0.49591623  0.37546146  0.88112830  1
  V  V23  1  0.13708983  0.12766721  0.48842258  1
  V  V24  1  0.37071940  0.37235028  0.50013677  1
  V  V25  1  0.36676003  0.26276952  0.12936965  1
  V  V26  1  0.88319902  0.37526862  0.00015354  1
  V  V27  1  0.62337702  0.13269487  0.49611452  1
  V  V28  1  -0.00691107  0.87121810  0.37895325  1
  V  V29  1  0.62541479  0.75491801  0.37681965  1
  V  V30  1  0.63679707  0.88947882  0.77052200  1
  V  V31  1  0.62504849  0.00051640  0.12713469  1
  V  V32  1  0.12719247  0.00344076  0.11775360  1
  V  V33  1  0.86134971  0.11516166  0.76176582  1
  V  V34  1  0.62839441  0.73799053  0.89916346  1
  V  V35  1  0.63540900  0.50369275  0.63153408  1
  V  V36  1  0.36874111  0.00446023  0.87633892  1
  V  V37  1  0.73367659  0.38176087  0.11946352  1
  V  V38  1  0.36766473  0.49787366  0.87906265  1
  V  V39  1  0.38978866  0.63495841  0.25116453  1
  V  V40  1  0.76693410  0.87296251  0.11729619  1
  V  V41  1  0.75912840  0.61626456  0.88109128  1
  V  V42  1  0.88042452  0.24927528  0.62147698  1
  V  V43  1  0.76357767  0.75586057  0.50241268  1
  V  V44  1  0.12384382  -0.00662655  0.62491852  1
  V  V45  1  0.49694888  0.12378385  0.12730158  1
  V  V46  1  0.75864452  0.62200955  0.36991546  1
  V  V47  1  0.87720600  0.49461661  0.86020375  1
  V  V48  1  0.24823661  0.62543833  0.38089271  1
  V  V49  1  0.36687197  0.25117726  0.62307976  1
  V  V50  1  0.49706138  -0.00025643  0.00225530  1
  V  V51  1  0.75004413  0.12827459  0.37326359  1
  V  V52  1  0.00749502  0.51134467  0.48998608  1
  V  V53  1  0.36774435  0.12138989  0.25671366  1
  V  V54  1  0.24579176  -0.00343389  0.25486429  1
  V  V55  1  0.49782962  0.12790993  0.62525524  1
  V  V56  1  0.37874298  0.50072895  0.37634234  1
  V  V57  1  0.62521492  0.12589396  -0.00750641  1
  V  V58  1  -0.00300364  0.27763056  0.25408092  1
  V  V59  1  0.36914771  -0.00389368  0.37999865  1
  V  V60  1  0.49509476  -0.00412310  0.50235792  1
  V  V61  1  0.50635416  0.24672928  0.25804127  1
  V  V62  1  0.63080853  0.62684762  0.50125767  1
  V  V63  1  0.35813077  0.87349527  0.00436075  1
  V  V64  1  0.75484927  0.37663103  0.62446102  1
  V  V65  1  0.36760097  0.62183136  0.74971045  1
  V  V66  1  0.75564983  0.00537918  0.25199673  1
  V  V67  1  0.12536477  0.87261623  0.24730792  1
  V  V68  1  0.74826300  0.24572437  -0.00772040  1
  V  V69  1  0.24435944  0.64010780  0.88863620  1
  V  V70  1  0.87418457  0.74807698  0.64697176  1
  V  V71  1  0.03939454  0.62567731  0.11771752  1
  V  V72  1  0.49593819  0.86732828  0.88178431  1
  V  V73  1  0.37237841  0.75766222  0.12393363  1
  V  V74  1  0.24420093  -0.00465019  0.74898708  1
  V  V75  1  0.87187802  -0.00184187  0.38078577  1
  V  V76  1  0.02220756  0.75754738  0.76031041  1
  V  V77  1  0.12256514  0.74609899  0.38180647  1
  V  V78  1  0.75397012  0.87717696  0.62867330  1
  Zn  Zn79  1  -0.00090625  0.12413778  0.62485165  1
  Zn  Zn80  1  0.13489054  0.23067183  0.87965609  1
  Zn  Zn81  1  0.25269165  0.87573462  0.62425795  1
  Zn  Zn82  1  0.90207936  0.38786747  0.45562207  1
  Zn  Zn83  1  0.11891208  0.38068273  0.75913522  1
  Zn  Zn84  1  0.51529552  0.36583282  0.38387279  1
  Zn  Zn85  1  0.52103636  0.64077629  0.11360774  1
  Zn  Zn86  1  0.87209046  0.63068324  0.23959916  1
  Zn  Zn87  1  0.00409793  0.62872814  0.62910461  1
  Zn  Zn88  1  0.50667476  0.75259789  0.75381568  1
  Zn  Zn89  1  0.86928655  0.24841302  0.12743925  1
  Zn  Zn90  1  0.62725294  0.24604704  0.86876806  1
  Zn  Zn91  1  0.49552771  0.25270547  0.75181677  1
  Zn  Zn92  1  -0.00428572  0.75198438  0.23181025  1
  Zn  Zn93  1  0.12801832  0.52003686  0.63029153  1
  Zn  Zn94  1  0.18100551  0.18694208  0.19311374  1
  Zn  Zn95  1  0.18433952  0.18118778  0.67917325  1
  Zn  Zn96  1  0.19753551  0.68604301  0.19788493  1
  Zn  Zn97  1  0.18984321  0.69132594  0.69265341  1
  Zn  Zn98  1  0.68769904  0.19026327  0.18318820  1
  Zn  Zn99  1  0.68674916  0.18991597  0.68692061  1
  Zn  Zn100  1  0.69179682  0.69473256  0.17554145  1
  Zn  Zn101  1  0.68921777  0.69514511  0.70328764  1
  Zn  Zn102  1  0.31578561  0.31384981  0.31586550  1
  Zn  Zn103  1  0.29586395  0.31388095  0.82083397  1
  Zn  Zn104  1  0.31139446  0.81329569  0.31281172  1
  Zn  Zn105  1  0.31397479  0.81164054  0.80828607  1
  Zn  Zn106  1  0.81318508  0.30682182  0.30111673  1
  Zn  Zn107  1  0.81687526  0.31101060  0.80955164  1
  Zn  Zn108  1  0.81484402  0.80886676  0.30422082  1
  Zn  Zn109  1  0.80013969  0.80768557  0.82293433  1
  Zn  Zn110  1  0.18454549  0.44306521  0.44206184  1
  Zn  Zn111  1  0.18670331  0.42340737  0.92396321  1
  Zn  Zn112  1  0.18237456  0.93376594  0.43898531  1
  Zn  Zn113  1  0.18422433  0.95215822  0.93505194  1
  Zn  Zn114  1  0.72658978  0.41808291  0.40896981  1
  Zn  Zn115  1  0.68868677  0.43993831  0.93719037  1
  Zn  Zn116  1  0.68665279  0.94013193  0.44438868  1
  Zn  Zn117  1  0.68464749  0.93437077  0.94272347  1
  Zn  Zn118  1  0.31466586  0.05291950  0.07295420  1
  Zn  Zn119  1  0.31023136  0.06375247  0.56383631  1
  Zn  Zn120  1  0.32196931  0.56399238  0.06277578  1
  Zn  Zn121  1  0.31329480  0.56671846  0.56222590  1
  Zn  Zn122  1  0.80955754  0.06386439  0.06357595  1
  Zn  Zn123  1  0.81259021  0.06516992  0.56470094  1
  Zn  Zn124  1  0.81019263  0.56003346  0.06741585  1
  Zn  Zn125  1  0.82467802  0.56403781  0.56114213  1
  Zn  Zn126  1  0.44002670  0.43876691  0.19350434  1
  Zn  Zn127  1  0.43745765  0.43836170  0.69077892  1
  Zn  Zn128  1  0.43743398  0.93441573  0.19213895  1
  Zn  Zn129  1  0.44361999  0.94060942  0.69571018  1
  Zn  Zn130  1  0.92947771  0.45418193  0.17285619  1
  Zn  Zn131  1  0.94910143  0.43458469  0.67501291  1
  Zn  Zn132  1  0.94101264  0.94144002  0.19191225  1
  Zn  Zn133  1  0.93611465  0.93484439  0.69128977  1
  Zn  Zn134  1  0.06080302  0.06163287  0.31450383  1
  Zn  Zn135  1  0.05662194  0.06824306  0.81047408  1
  Zn  Zn136  1  0.06374266  0.55945169  0.30344906  1
  Zn  Zn137  1  0.06782918  0.56500576  0.81086025  1
  Zn  Zn138  1  0.56254955  0.06081803  0.31453065  1
  Zn  Zn139  1  0.55328553  0.06213990  0.81387854  1
  Zn  Zn140  1  0.60052576  0.58914305  0.27453175  1
  Zn  Zn141  1  0.56213615  0.56072930  0.81595436  1
  Zn  Zn142  1  0.43216062  0.18485292  0.43936998  1
  Zn  Zn143  1  0.43024748  0.19239001  0.93929221  1
  Zn  Zn144  1  0.43915047  0.68802543  0.44026519  1
  Zn  Zn145  1  0.42860003  0.68457680  0.94269316  1
  Zn  Zn146  1  0.93888511  0.18764989  0.43032407  1
  Zn  Zn147  1  0.93677124  0.18319594  0.93821340  1
  Zn  Zn148  1  0.93790092  0.68168231  0.43726986  1
  Zn  Zn149  1  0.95164133  0.67503464  0.92528695  1
  Zn  Zn150  1  0.06853562  0.30298187  0.06023634  1
  Zn  Zn151  1  0.06602263  0.31735612  0.55409031  1
  Zn  Zn152  1  0.05915050  0.82354670  0.05456350  1
  Zn  Zn153  1  0.05999433  0.80909923  0.56316606  1
  Zn  Zn154  1  0.55568888  0.30801872  0.06142416  1
  Zn  Zn155  1  0.56247714  0.31355805  0.56744266  1
  Zn  Zn156  1  0.55535539  0.81535922  0.07048434  1
  Zn  Zn157  1  0.56970819  0.81639613  0.56703728  1
  O  O158  1  0.11280758  0.10883837  0.13391801  1
  O  O159  1  0.12000450  0.11541003  0.60626782  1
  O  O160  1  0.13772008  0.62149226  0.12154277  1
  O  O161  1  0.12010996  0.63573984  0.62859514  1
  O  O162  1  0.61259877  0.12080433  0.11910931  1
  O  O163  1  0.61913917  0.12060264  0.61620005  1
  O  O164  1  0.61612950  0.61762948  0.16390320  1
  O  O165  1  0.62353512  0.62407765  0.62283979  1
  O  O166  1  0.38162384  0.38443382  0.38453396  1
  O  O167  1  0.38714163  0.38746694  0.86416227  1
  O  O168  1  0.38645321  0.88414891  0.36947273  1
  O  O169  1  0.37926212  0.88179754  0.88334517  1
  O  O170  1  0.83175204  0.38791393  0.37336397  1
  O  O171  1  0.86891219  0.38422582  0.88841792  1
  O  O172  1  0.88255269  0.88388062  0.37104656  1
  O  O173  1  0.87252900  0.87617399  0.87973570  1
  O  O174  1  0.25934624  -0.00817958  0.36980034  1
  O  O175  1  0.26103731  -0.00189943  0.86563163  1
  O  O176  1  0.26324826  0.50785433  0.37779535  1
  O  O177  1  0.26597674  0.49794258  0.87928451  1
  O  O178  1  0.75443185  0.00422014  0.37293045  1
  O  O179  1  0.69080195  -0.04604075  0.83204314  1
  O  O180  1  0.73311822  0.52701075  0.38377957  1
  O  O181  1  0.76407970  0.50386289  0.87560593  1
  O  O182  1  0.26616759  0.50803308  0.14283847  1
  O  O183  1  0.24898539  0.49025420  0.61877032  1
  O  O184  1  0.23325296  0.99949338  0.13661268  1
  O  O185  1  0.24349165  0.99707435  0.62978619  1
  O  O186  1  0.73228164  0.47895975  0.10962063  1
  O  O187  1  0.74292898  0.49285952  0.61644659  1
  O  O188  1  0.74517753  0.99786030  0.13610296  1
  O  O189  1  0.73871682  0.99161055  0.61605407  1
  O  O190  1  -0.00642633  0.37604737  0.23530839  1
  O  O191  1  0.00005450  0.35340867  0.74259510  1
  O  O192  1  0.00794181  0.87531263  0.26161055  1
  O  O193  1  -0.00574665  0.87236469  0.77142506  1
  O  O194  1  0.51060444  0.36477435  0.25254773  1
  O  O195  1  0.50975758  0.37588947  0.75812080  1
  O  O196  1  0.51298854  0.88538235  0.26512411  1
  O  O197  1  0.51229737  0.88000193  0.76925241  1
  O  O198  1  0.49324592  0.12684791  0.24551593  1
  O  O199  1  0.48564397  0.12627966  0.74249844  1
  O  O200  1  0.48696693  0.62263143  0.26836230  1
  O  O201  1  0.49862703  0.62697393  0.73908252  1
  O  O202  1  0.99377764  0.11417355  0.23719513  1
  O  O203  1  0.98520317  0.13543497  0.74346887  1
  O  O204  1  1.00711990  0.62155308  0.22203718  1
  O  O205  1  1.00621621  0.65504691  0.76203090  1
  O  O206  1  0.36968771  0.24062616  0.02548278  1
  O  O207  1  0.38219571  0.26078813  0.50873803  1
  O  O208  1  0.37459066  0.75873664  0.01494445  1
  O  O209  1  0.36954395  0.74591903  0.51155290  1
  O  O210  1  0.86997660  0.26124673  -0.00145013  1
  O  O211  1  0.86487666  0.24969161  0.50348925  1
  O  O212  1  0.87799397  0.73435480  0.01373509  1
  O  O213  1  0.86564628  0.75105122  0.50485665  1
  O  O214  1  0.11688790  0.23539277  0.48434062  1
  O  O215  1  0.14973161  0.24721824  1.00190255  1
  O  O216  1  0.13391842  0.75497693  0.48896381  1
  O  O217  1  0.12728468  0.80254419  0.95780102  1
  O  O218  1  0.63197469  0.23961229  0.50655240  1
  O  O219  1  0.62837727  0.24077600  0.99726601  1
  O  O220  1  0.63306384  0.74225144  0.49820958  1
  O  O221  1  0.61323014  0.74626776  0.99819865  1
  O  O222  1  0.48642036  0.24037898  0.13414704  1
  O  O223  1  0.48811746  0.24547105  0.62811078  1
  O  O224  1  0.48423704  0.74923986  0.12946599  1
  O  O225  1  0.49873333  0.74177659  0.62382215  1
  O  O226  1  1.00935481  0.23771425  0.13703451  1
  O  O227  1  0.98739710  0.25007548  0.61802153  1
  O  O228  1  1.02396696  0.73224678  0.11358800  1
  O  O229  1  0.98863755  0.76458723  0.64501565  1
  O  O230  1  -0.00009797  0.25734012  0.35910188  1
  O  O231  1  0.00442102  0.24741879  0.86495904  1
  O  O232  1  0.00784442  0.75703990  0.37889362  1
  O  O233  1  -0.00788419  0.76691809  0.87114034  1
  O  O234  1  0.49010718  0.25005101  0.36346304  1
  O  O235  1  0.49624233  0.26546544  0.87581197  1
  O  O236  1  0.51244628  0.76335474  0.38895813  1
  O  O237  1  0.49709973  0.75588211  0.87854208  1
  O  O238  1  0.23666825  0.12243088  0.49710466  1
  O  O239  1  0.25045270  0.11944572  1.00691862  1
  O  O240  1  0.25626461  0.63698453  0.48859063  1
  O  O241  1  0.26100011  0.62265657  0.98703931  1
  O  O242  1  0.74197554  0.13268776  0.49476374  1
  O  O243  1  0.73538302  0.13040517  1.00502748  1
  O  O244  1  0.74557061  0.63660372  0.49595365  1
  O  O245  1  0.74911359  0.61277188  0.98535185  1
  O  O246  1  0.21828613  0.38537395  0.04176235  1
  O  O247  1  0.26647024  0.38045995  0.50807606  1
  O  O248  1  0.26028912  0.88718102  0.00041585  1
  O  O249  1  0.25162780  0.86199569  0.49954465  1
  O  O250  1  0.75093847  0.36525427  0.00586261  1
  O  O251  1  0.73845547  0.36185116  0.51258391  1
  O  O252  1  0.75184522  0.89094469  0.01842921  1
  O  O253  1  0.73781837  0.86503881  0.51568668  1
  O  O254  1  0.14832185  0.50346635  0.25445756  1
  O  O255  1  0.11539027  0.49129849  0.74309135  1
  O  O256  1  0.13016193  0.99240589  0.24995625  1
  O  O257  1  0.13260077  1.00954823  0.73574053  1
  O  O258  1  0.61931027  0.47865371  0.24929923  1
  O  O259  1  0.62024148  0.49316930  0.73889648  1
  O  O260  1  0.63338146  0.99429325  0.24847203  1
  O  O261  1  0.60628295  1.00306735  0.73009931  1
  O  O262  1  0.36615097  0.00219417  0.25818401  1
  O  O263  1  0.36877233  0.00740303  0.75737400  1
  O  O264  1  0.37600178  0.50988965  0.26321402  1
  O  O265  1  0.38565995  0.51305522  0.76172257  1
  O  O266  1  0.86291514  -0.00164945  0.26248932  1
  O  O267  1  0.87577381  0.01668755  0.74219263  1
  O  O268  1  0.86320309  0.54618387  0.16877765  1
  O  O269  1  0.88382726  0.48487786  0.76275144  1
  O  O270  1  0.13221614  0.35917361  0.38311801  1
  O  O271  1  0.17064611  0.33835127  0.85313843  1
  O  O272  1  0.11566097  0.86759593  0.36722429  1
  O  O273  1  0.11770555  0.85819571  0.90194228  1
  O  O274  1  0.63274470  0.36863661  0.35779931  1
  O  O275  1  0.61494842  0.37737437  0.86576696  1
  O  O276  1  0.62007125  0.87409997  0.37260844  1
  O  O277  1  0.60805822  0.85520329  0.88910289  1
  O  O278  1  0.38407053  0.11926864  0.14046241  1
  O  O279  1  0.37787017  0.13269984  0.62988116  1
  O  O280  1  0.38484097  0.63268010  0.14232411  1
  O  O281  1  0.38490415  0.63057822  0.63097537  1
  O  O282  1  0.88854060  0.12956388  0.11953254  1
  O  O283  1  0.87398518  0.13729768  0.62892320  1
  O  O284  1  0.86847228  0.68908788  0.07253617  1
  O  O285  1  0.87855010  0.64630904  0.62599369  1
  O  O286  1  0.26040458  0.23964331  0.12329099  1
  O  O287  1  0.26292977  0.25617197  0.62639933  1
  O  O288  1  0.27244983  0.74589598  0.13627747  1
  O  O289  1  0.26204313  0.75345524  0.61922989  1
  O  O290  1  0.75111429  0.25259764  0.10956100  1
  O  O291  1  0.75735642  0.25611457  0.61555545  1
  O  O292  1  0.74938954  0.77394228  0.12798577  1
  O  O293  1  0.75928868  0.75383533  0.62240919  1
  O  O294  1  0.23569460  0.24429719  0.36071574  1
  O  O295  1  0.28211925  0.24082243  0.90820593  1
  O  O296  1  0.24542963  0.74576537  0.38200861  1
  O  O297  1  0.26127587  0.73957201  0.87693141  1
  O  O298  1  0.75441350  0.23650707  0.38242565  1
  O  O299  1  0.74691119  0.25728130  0.88796372  1
  O  O300  1  0.74276659  0.75036991  0.38591164  1
  O  O301  1  0.73602406  0.73989027  0.89083203  1
  O  O302  1  0.00093660  0.11322132  0.00784377  1
  O  O303  1  0.00296494  0.11085724  0.49656942  1
  O  O304  1  0.00607242  0.61360562  0.00679033  1
  O  O305  1  -0.00051802  0.61896235  0.50637583  1
  O  O306  1  0.50156050  0.12161889  0.01102501  1
  O  O307  1  0.50573496  0.11815695  0.50388390  1
  O  O308  1  0.49320352  0.61143989  0.00411302  1
  O  O309  1  0.50938917  0.62114724  0.51023578  1
  O  O310  1  0.49659169  0.38468491  0.50224619  1
  O  O311  1  0.50153583  0.37996326  0.98572476  1
  O  O312  1  0.51022614  0.88806963  0.49324806  1
  O  O313  1  0.48842351  0.88170218  0.99640606  1
  O  O314  1  1.00187426  0.39318392  0.50267221  1
  O  O315  1  0.98894987  0.37724476  1.01039333  1
  O  O316  1  1.00660398  0.88621226  0.48788245  1
  O  O317  1  0.98942136  0.89043630  0.99132860  1
  O  O318  1  0.49419004  0.50078449  0.39105181  1
  O  O319  1  0.49459530  0.49112729  0.88201804  1
  O  O320  1  0.49263138  0.99372862  0.38374834  1
  O  O321  1  0.48956132  0.98965898  0.88271068  1
  O  O322  1  1.00619105  0.51220224  0.38742247  1
  O  O323  1  0.98283744  0.51189756  0.88505447  1
  O  O324  1  0.99045783  0.99270809  0.38029828  1
  O  O325  1  1.00208517  0.98979655  0.88494795  1
  O  O326  1  0.00238403  0.00851321  0.11601752  1
  O  O327  1  0.00502151  -0.00282614  0.61541982  1
  O  O328  1  0.01503259  0.50892138  0.10570718  1
  O  O329  1  0.00538773  0.51098262  0.61802602  1
  O  O330  1  0.50271145  0.00673186  0.12386335  1
  O  O331  1  0.50213799  0.00600536  0.61590687  1
  O  O332  1  0.49294722  0.49194198  0.10794603  1
  O  O333  1  0.50816528  0.50939624  0.61831324  1
  O  O334  1  0.26329619  0.39232693  0.25442795  1
  O  O335  1  0.26437425  0.37938903  0.73120643  1
  O  O336  1  0.23861103  0.88427582  0.25489509  1
  O  O337  1  0.25557528  0.89062415  0.74703631  1
  O  O338  1  0.73560550  0.36191625  0.22979694  1
  O  O339  1  0.73851953  0.36708814  0.73839518  1
  O  O340  1  0.74173883  0.88733329  0.24559230  1
  O  O341  1  0.74539373  0.86203630  0.73499480  1
  O  O342  1  0.25795954  0.11070010  0.24674499  1
  O  O343  1  0.26155219  0.11470166  0.74163395  1
  O  O344  1  0.26717033  0.61762529  0.26566960  1
  O  O345  1  0.26420248  0.62973744  0.75903888  1
  O  O346  1  0.73938756  0.11617880  0.25967361  1
  O  O347  1  0.76111430  0.13229898  0.74789134  1
  O  O348  1  0.74380223  0.63757460  0.26905606  1
  O  O349  1  0.73832956  0.62777483  0.77872288  1
  O  O350  1  0.38010505  0.11081426  0.36524550  1
  O  O351  1  0.38479033  0.11268073  0.86695300  1
  O  O352  1  0.37097621  0.62043387  0.37320670  1
  O  O353  1  0.37070323  0.61459841  0.86810025  1
  O  O354  1  0.86127719  0.11232976  0.37956023  1
  O  O355  1  0.87377671  0.12707383  0.86186919  1
  O  O356  1  0.86169410  0.62675740  0.37080892  1
  O  O357  1  0.86715884  0.61222540  0.87590763  1
  O  O358  1  0.16027616  0.38299008  0.09166664  1
  O  O359  1  0.14632399  0.36444565  0.62559429  1
  O  O360  1  0.10976526  0.89073957  0.13840380  1
  O  O361  1  0.12729773  0.88997644  0.61518025  1
  O  O362  1  0.62779261  0.36310736  0.13094117  1
  O  O363  1  0.63106215  0.38447374  0.63189198  1
  O  O364  1  0.62515418  0.88352414  0.13638882  1
  O  O365  1  0.63071721  0.88398762  0.64040806  1
  O  O366  1  0.10950827  0.24797131  0.26060730  1
  O  O367  1  0.10528519  0.23852987  0.73952594  1
  O  O368  1  0.12475954  0.75921084  0.25904045  1
  O  O369  1  0.12025200  0.76795854  0.75198209  1
  O  O370  1  0.61057872  0.24897355  0.24557859  1
  O  O371  1  0.61805503  0.25974808  0.75030938  1
  O  O372  1  0.63226006  0.76644547  0.26643072  1
  O  O373  1  0.62427823  0.76768296  0.77045066  1
  O  O374  1  0.37869465  0.23948292  0.24368208  1
  O  O375  1  0.37155179  0.24157713  0.74498805  1
  O  O376  1  0.37714200  0.74097454  0.25059907  1
  O  O377  1  0.38391756  0.74054052  0.74061399  1
  O  O378  1  0.89343291  0.25215470  0.24233867  1
  O  O379  1  0.88453650  0.24420677  0.74205963  1
  O  O380  1  0.88412732  0.74256257  0.24686971  1
  O  O381  1  0.86950527  0.74972229  0.74675099  1
  O  O382  1  0.38503837  0.49581773  0.49656985  1
  O  O383  1  0.38574581  0.50018128  0.98317088  1
  O  O384  1  0.38422265  1.00699977  0.49272281  1
  O  O385  1  0.37818897  0.99413753  0.99543975  1
  O  O386  1  0.89388363  0.49848838  0.50357067  1
  O  O387  1  0.88517283  0.48567590  0.99693652  1
  O  O388  1  0.88095795  1.00116970  0.49227737  1
  O  O389  1  0.88312049  1.00772705  0.99604685  1
  O  O390  1  0.11728675  -0.00386101  0.01627705  1
  O  O391  1  0.11757419  0.00913832  0.50094223  1
  O  O392  1  0.10570823  0.48447638  -0.02628312  1
  O  O393  1  0.11520797  0.50213147  0.50807069  1
  O  O394  1  0.61689213  0.00793487  0.00687885  1
  O  O395  1  0.61541719  0.00983580  0.50973724  1
  O  O396  1  0.60822592  0.49820389  -0.00723456  1
  O  O397  1  0.61927976  0.51510972  0.51254272  1
  O  O398  1  0.37541057  0.36044758  0.13342420  1
  O  O399  1  0.37187495  0.37109959  0.61860300  1
  O  O400  1  0.37819020  0.86703471  0.12169608  1
  O  O401  1  0.38292796  0.86288438  0.63374675  1
  O  O402  1  0.85894983  0.37393639  0.11104611  1
  O  O403  1  0.86256440  0.36523643  0.62958967  1
  O  O404  1  0.86639021  0.88243523  0.13054082  1
  O  O405  1  0.86504514  0.86359758  0.62960836  1
  O  O406  1  0.12118346  0.12781237  0.38366925  1
  O  O407  1  0.13113852  0.12020719  0.87352299  1
  O  O408  1  0.13694644  0.63818022  0.36400526  1
  O  O409  1  0.14600445  0.62340706  0.87253074  1
  O  O410  1  0.63440992  0.11499558  0.38778555  1
  O  O411  1  0.61109674  0.12623381  0.88847312  1
  O  O412  1  0.62811937  0.64004311  0.38347702  1
  O  O413  1  0.61873526  0.63658364  0.87996890  1
