# generated using pymatgen
data_V79Zn79O256
_symmetry_space_group_name_H-M   'P 1'
_cell_length_a   16.86996844
_cell_length_b   16.84646630
_cell_length_c   16.86376791
_cell_angle_alpha   90.01037737
_cell_angle_beta   89.96321997
_cell_angle_gamma   90.10845727
_symmetry_Int_Tables_number   1
_chemical_formula_structural   V79Zn79O256
_chemical_formula_sum   'V79 Zn79 O256'
_cell_volume   4792.66230856
_cell_formula_units_Z   1
loop_
 _symmetry_equiv_pos_site_id
 _symmetry_equiv_pos_as_xyz
  1  'x, y, z'
loop_
 _atom_site_type_symbol
 _atom_site_label
 _atom_site_symmetry_multiplicity
 _atom_site_fract_x
 _atom_site_fract_y
 _atom_site_fract_z
 _atom_site_occupancy
  V  V0  1  0.24845616  0.23184165  0.00128892  1
  V  V1  1  0.85446345  0.86417878  0.49964529  1
  V  V2  1  0.49400167  0.37210963  0.87769642  1
  V  V3  1  0.74509421  0.25349264  0.48912771  1
  V  V4  1  0.24478698  0.62302911  0.38097964  1
  V  V5  1  0.50090459  0.74282007  0.24273509  1
  V  V6  1  0.49957851  0.87016729  0.86672076  1
  V  V7  1  0.12485815  0.74869014  0.37758878  1
  V  V8  1  0.75238776  0.11973373  0.86090103  1
  V  V9  1  -0.00073286  0.74828810  0.74890881  1
  V  V10  1  0.87721590  0.14124427  0.25294700  1
  V  V11  1  0.48511567  0.50151523  0.00592627  1
  V  V12  1  0.86455372  0.49266146  0.88612698  1
  V  V13  1  0.37409275  0.62518488  0.24130002  1
  V  V14  1  0.87722138  0.37525643  0.51016992  1
  V  V15  1  0.62679255  0.11949583  0.00363945  1
  V  V16  1  0.25938363  0.24664190  0.49189621  1
  V  V17  1  0.61793785  0.24823176  0.87042426  1
  V  V18  1  0.50552529  0.12571738  0.12680832  1
  V  V19  1  0.62560851  0.49066028  0.12572821  1
  V  V20  1  0.12706061  0.87702430  0.24957549  1
  V  V21  1  0.87679933  0.50130074  0.36765259  1
  V  V22  1  0.63119156  0.52110910  0.63359521  1
  V  V23  1  0.12406258  0.74211482  0.88112050  1
  V  V24  1  0.86125195  0.61628133  0.75191226  1
  V  V25  1  0.50226474  0.51678685  0.50624319  1
  V  V26  1  -0.00026904  0.13799617  0.12510698  1
  V  V27  1  0.11975158  0.24411739  0.87126748  1
  V  V28  1  0.37333052  0.50146152  0.85280829  1
  V  V29  1  -0.02624449  0.03001527  0.51370547  1
  V  V30  1  0.62089929  0.62386250  0.00650349  1
  V  V31  1  0.50379409  0.11984960  0.63838019  1
  V  V32  1  0.01141098  0.62399538  0.62187720  1
  V  V33  1  0.00082357  0.87773725  0.38804614  1
  V  V34  1  0.25138411  0.37682492  0.63267518  1
  V  V35  1  0.76136199  0.25414148  0.00081316  1
  V  V36  1  0.25266230  0.74918683  0.50144466  1
  V  V37  1  0.24839249  0.00020436  0.25518973  1
  V  V38  1  0.86292609  0.74796758  0.61905049  1
  V  V39  1  0.63603637  -0.00798312  0.63699538  1
  V  V40  1  0.37188315  0.12684380  0.25593477  1
  V  V41  1  0.12679038  0.88038144  0.75214128  1
  V  V42  1  0.62751006  0.74185131  0.38737623  1
  V  V43  1  0.25333023  0.88154080  0.62944498  1
  V  V44  1  0.12175151  0.50313775  0.10411771  1
  V  V45  1  0.76583284  0.37596396  0.12262877  1
  V  V46  1  0.25414167  0.75402282  0.00474924  1
  V  V47  1  0.37950983  0.74533863  0.64117208  1
  V  V48  1  0.00477968  0.37278730  0.37090156  1
  V  V49  1  -0.00191123  0.62892559  0.11455426  1
  V  V50  1  0.38695534  0.37444126  0.49609870  1
  V  V51  1  0.74981274  0.37436755  0.63122979  1
  V  V52  1  0.37845021  0.00121322  0.38162646  1
  V  V53  1  0.37407238  -0.00059375  0.86199006  1
  V  V54  1  0.25266708  0.11847804  0.85536194  1
  V  V55  1  0.62379582  0.37894261  0.75222404  1
  V  V56  1  0.12604838  0.24380294  0.36849361  1
  V  V57  1  0.25033335  0.61858268  0.86707809  1
  V  V58  1  0.25208320  0.37507978  0.11379873  1
  V  V59  1  0.37601398  0.25396329  0.11929080  1
  V  V60  1  0.12464269  0.00177461  0.11762852  1
  V  V61  1  0.13597024  0.12192522  0.49869155  1
  V  V62  1  0.76002285  0.88324708  0.12664609  1
  V  V63  1  0.36988654  0.76429447  0.12433640  1
  V  V64  1  0.12613234  0.00510474  0.62400849  1
  V  V65  1  0.50743116  0.26531512  0.25499999  1
  V  V66  1  0.61873234  0.11915838  0.48736639  1
  V  V67  1  0.75355246  0.74470114  0.00776764  1
  V  V68  1  0.75003544  0.62397550  0.38009601  1
  V  V69  1  0.62160660  0.74992228  0.87490141  1
  V  V70  1  0.01361624  0.50168727  0.50442089  1
  V  V71  1  -0.02427906  0.24209790  0.72358895  1
  V  V72  1  0.49149613  -0.00685699  0.00903692  1
  V  V73  1  0.38129635  0.49737961  0.37568931  1
  V  V74  1  0.87173830  -0.00243958  0.86125133  1
  V  V75  1  0.62541032  0.87964587  0.24143633  1
  V  V76  1  0.38622555  0.24639218  0.64013498  1
  V  V77  1  0.49956027  0.87604809  0.38012222  1
  V  V78  1  0.24344517  0.49703440  0.25025745  1
  Zn  Zn79  1  -0.00957855  0.37854605  0.87945888  1
  Zn  Zn80  1  -0.00184453  0.87641104  0.87661403  1
  Zn  Zn81  1  0.11956641  0.37528854  0.75169333  1
  Zn  Zn82  1  0.86943067  0.63297045  0.24308385  1
  Zn  Zn83  1  0.49428275  0.63092490  0.65888522  1
  Zn  Zn84  1  0.87762880  0.87397749  0.00195865  1
  Zn  Zn85  1  0.86637954  0.00743585  0.37337000  1
  Zn  Zn86  1  -0.00750491  0.00034617  0.00054756  1
  Zn  Zn87  1  0.61754389  0.29321445  0.37313856  1
  Zn  Zn88  1  0.12030031  0.36859369  0.24257199  1
  Zn  Zn89  1  0.38042731  0.88020166  0.50500073  1
  Zn  Zn90  1  0.69701230  0.44498755  0.29077401  1
  Zn  Zn91  1  -0.01015349  0.75272659  0.24575891  1
  Zn  Zn92  1  0.13956252  0.50962981  0.63677132  1
  Zn  Zn93  1  0.74675803  0.01610546  0.25614284  1
  Zn  Zn94  1  0.18736947  0.18255526  0.18674603  1
  Zn  Zn95  1  0.19201632  0.19174959  0.68450723  1
  Zn  Zn96  1  0.18192719  0.68593832  0.18788083  1
  Zn  Zn97  1  0.19188822  0.69238671  0.69135836  1
  Zn  Zn98  1  0.69138962  0.19695627  0.18947694  1
  Zn  Zn99  1  0.68574353  0.19071728  0.68186989  1
  Zn  Zn100  1  0.69090950  0.68370822  0.19135574  1
  Zn  Zn101  1  0.69166770  0.71844857  0.69663837  1
  Zn  Zn102  1  0.31488665  0.31440234  0.30808473  1
  Zn  Zn103  1  0.31341948  0.30984734  0.81800125  1
  Zn  Zn104  1  0.31188217  0.81467106  0.31090424  1
  Zn  Zn105  1  0.31136495  0.81642901  0.81999511  1
  Zn  Zn106  1  0.82124722  0.31416405  0.31187591  1
  Zn  Zn107  1  0.81084620  0.30961767  0.81128008  1
  Zn  Zn108  1  0.81038354  0.80994376  0.31402840  1
  Zn  Zn109  1  0.80260964  0.81593900  0.81048848  1
  Zn  Zn110  1  0.19248456  0.43085432  0.44199772  1
  Zn  Zn111  1  0.19122952  0.43053498  0.93182922  1
  Zn  Zn112  1  0.19322875  0.93703855  0.43839339  1
  Zn  Zn113  1  0.19265686  0.93419446  0.93716134  1
  Zn  Zn114  1  0.68825349  0.45106836  0.45536102  1
  Zn  Zn115  1  0.68915166  0.44110657  0.93683701  1
  Zn  Zn116  1  0.68275969  0.93728568  0.43404813  1
  Zn  Zn117  1  0.68572553  0.93616796  0.93973272  1
  Zn  Zn118  1  0.31425220  0.05632266  0.06923355  1
  Zn  Zn119  1  0.31649162  0.06524296  0.56725392  1
  Zn  Zn120  1  0.30125307  0.57139568  0.05652136  1
  Zn  Zn121  1  0.31605704  0.56374216  0.56483851  1
  Zn  Zn122  1  0.81815643  0.06337996  0.06371674  1
  Zn  Zn123  1  0.79894574  0.06072171  0.55059957  1
  Zn  Zn124  1  0.81254855  0.56220974  0.06124253  1
  Zn  Zn125  1  0.81815315  0.56212224  0.56294434  1
  Zn  Zn126  1  0.43422178  0.44072627  0.18481890  1
  Zn  Zn127  1  0.44495474  0.43479989  0.68434870  1
  Zn  Zn128  1  0.43872284  0.93766773  0.19388242  1
  Zn  Zn129  1  0.44635514  0.93550415  0.68473851  1
  Zn  Zn130  1  0.94236049  0.43765905  0.18148619  1
  Zn  Zn131  1  0.94551704  0.43662510  0.69965960  1
  Zn  Zn132  1  0.93935680  0.94546648  0.19614292  1
  Zn  Zn133  1  0.93450024  0.93391407  0.68208230  1
  Zn  Zn134  1  0.05236778  0.06294959  0.31698374  1
  Zn  Zn135  1  0.05625589  0.06858997  0.80835895  1
  Zn  Zn136  1  0.05725576  0.56411792  0.30742270  1
  Zn  Zn137  1  0.05805589  0.55683648  0.81258746  1
  Zn  Zn138  1  0.55941252  0.06331953  0.30939804  1
  Zn  Zn139  1  0.56414317  0.05712983  0.81445639  1
  Zn  Zn140  1  0.56148207  0.56133169  0.31279509  1
  Zn  Zn141  1  0.56756808  0.56578050  0.81792239  1
  Zn  Zn142  1  0.44667588  0.18803271  0.43714468  1
  Zn  Zn143  1  0.43521510  0.18164019  0.93711410  1
  Zn  Zn144  1  0.43357276  0.69068934  0.43451050  1
  Zn  Zn145  1  0.43450423  0.68223001  0.93554526  1
  Zn  Zn146  1  0.93487850  0.18923736  0.44604887  1
  Zn  Zn147  1  0.93935399  0.17691180  0.94073557  1
  Zn  Zn148  1  0.94026421  0.68356338  0.43575099  1
  Zn  Zn149  1  0.93398675  0.67988939  0.93406858  1
  Zn  Zn150  1  0.06618515  0.31248847  0.05250681  1
  Zn  Zn151  1  0.06667037  0.30805023  0.55743723  1
  Zn  Zn152  1  0.06057175  0.81467386  0.06110838  1
  Zn  Zn153  1  0.06692360  0.81012585  0.56497046  1
  Zn  Zn154  1  0.56421780  0.31233119  0.05711736  1
  Zn  Zn155  1  0.56524347  0.31506840  0.56534039  1
  Zn  Zn156  1  0.56016139  0.80987935  0.06336964  1
  Zn  Zn157  1  0.56179535  0.81088642  0.56732535  1
  O  O158  1  0.11603838  0.10967770  0.13428144  1
  O  O159  1  0.13889302  0.11349305  0.61682245  1
  O  O160  1  0.12114727  0.60875236  0.12616434  1
  O  O161  1  0.11699897  0.62789291  0.63010005  1
  O  O162  1  0.61424225  0.13405381  0.11837748  1
  O  O163  1  0.61603045  0.12173899  0.61944036  1
  O  O164  1  0.63062365  0.61093416  0.11494472  1
  O  O165  1  0.62867185  0.62183803  0.64276097  1
  O  O166  1  0.36998693  0.38697980  0.38277936  1
  O  O167  1  0.37974715  0.38885184  0.87049170  1
  O  O168  1  0.38296259  0.88249533  0.37261152  1
  O  O169  1  0.38456244  0.88757843  0.87807327  1
  O  O170  1  0.88579180  0.38160491  0.38502666  1
  O  O171  1  0.86875928  0.38568867  0.87083218  1
  O  O172  1  0.88342855  0.86509521  0.39092947  1
  O  O173  1  0.86885335  0.88614802  0.87310884  1
  O  O174  1  0.26175446  -0.00150091  0.36503996  1
  O  O175  1  0.26200455  0.00725718  0.87728407  1
  O  O176  1  0.25642291  0.50411112  0.37073368  1
  O  O177  1  0.26216615  0.50639338  0.87825531  1
  O  O178  1  0.75292784  -0.00368872  0.37067754  1
  O  O179  1  0.75268479  0.01131797  0.87612125  1
  O  O180  1  0.76183576  0.50294383  0.37454641  1
  O  O181  1  0.76102235  0.50094285  0.87326921  1
  O  O182  1  0.24248567  0.49490685  0.12873011  1
  O  O183  1  0.25493604  0.48178041  0.61774228  1
  O  O184  1  0.23724619  1.00501300  0.14064350  1
  O  O185  1  0.24513137  0.99019834  0.62301839  1
  O  O186  1  0.73798395  0.48599080  0.11250733  1
  O  O187  1  0.73528771  0.49455918  0.61926299  1
  O  O188  1  0.74813385  0.98597279  0.12800048  1
  O  O189  1  0.73664852  1.00793212  0.62579599  1
  O  O190  1  0.00272702  0.37911762  0.26587329  1
  O  O191  1  -0.00046096  0.35002429  0.75691633  1
  O  O192  1  0.00910473  0.87837669  0.26887629  1
  O  O193  1  0.00734801  0.86448447  0.74877120  1
  O  O194  1  0.49612812  0.36407228  0.24271163  1
  O  O195  1  0.51011978  0.37907138  0.76464523  1
  O  O196  1  0.50922692  0.86560001  0.25556540  1
  O  O197  1  0.50062523  0.87423296  0.76750656  1
  O  O198  1  0.49425836  0.13298224  0.24072246  1
  O  O199  1  0.50693980  0.12714500  0.73824343  1
  O  O200  1  0.48648538  0.63296478  0.25564072  1
  O  O201  1  0.48949493  0.62732857  0.77038759  1
  O  O202  1  0.99137342  0.12040619  0.23833674  1
  O  O203  1  1.00273536  0.14578571  0.74571354  1
  O  O204  1  0.99734864  0.62874710  0.23849121  1
  O  O205  1  0.99373590  0.63444789  0.74035546  1
  O  O206  1  0.36856245  0.24279565  0.01285848  1
  O  O207  1  0.37512740  0.25785587  0.49788044  1
  O  O208  1  0.36492182  0.74182477  0.01109535  1
  O  O209  1  0.36367497  0.75493059  0.50463903  1
  O  O210  1  0.85952947  0.24559588  -0.00897735  1
  O  O211  1  0.85855636  0.26565018  0.49414659  1
  O  O212  1  0.85575117  0.75165055  -0.01047749  1
  O  O213  1  0.88542347  0.75487445  0.51025964  1
  O  O214  1  0.14103923  0.24280464  0.49303615  1
  O  O215  1  0.13983816  0.24643432  0.98500098  1
  O  O216  1  0.14022200  0.75499029  0.49008760  1
  O  O217  1  0.13481273  0.75580575  0.98794635  1
  O  O218  1  0.63121968  0.25627003  0.49091752  1
  O  O219  1  0.62862741  0.23936400  0.98924931  1
  O  O220  1  0.61665993  0.74901532  0.48574133  1
  O  O221  1  0.62645462  0.74078435  1.00147205  1
  O  O222  1  0.49382953  0.24567906  0.12949323  1
  O  O223  1  0.49178897  0.24624252  0.62535939  1
  O  O224  1  0.48793558  0.75213453  0.13534458  1
  O  O225  1  0.48424604  0.74838293  0.62319978  1
  O  O226  1  1.01794013  0.23702211  0.12539037  1
  O  O227  1  0.99291241  0.25247389  0.62333950  1
  O  O228  1  1.01519863  0.73436922  0.12889499  1
  O  O229  1  1.00030265  0.74271295  0.63180470  1
  O  O230  1  0.01769350  0.25895166  0.38754649  1
  O  O231  1  0.01710929  0.23820596  0.87816011  1
  O  O232  1  0.01388553  0.75573843  0.37811494  1
  O  O233  1  0.00634367  0.74741641  0.86547783  1
  O  O234  1  0.50017795  0.25561635  0.35923882  1
  O  O235  1  0.50580305  0.25795180  0.88525261  1
  O  O236  1  0.50562223  0.75413066  0.36428098  1
  O  O237  1  0.50244538  0.76510424  0.89254780  1
  O  O238  1  0.25019929  0.13593599  0.50044929  1
  O  O239  1  0.25403834  0.12898617  1.00024343  1
  O  O240  1  0.25535217  0.63176809  0.48956634  1
  O  O241  1  0.24720899  0.63820832  0.98301522  1
  O  O242  1  0.73355549  0.14737657  0.50326627  1
  O  O243  1  0.74141260  0.13479268  1.00108672  1
  O  O244  1  0.75557872  0.61647596  0.48233909  1
  O  O245  1  0.74128632  0.63877564  1.00564801  1
  O  O246  1  0.25072359  0.36279231  0.01002516  1
  O  O247  1  0.26603579  0.36536179  0.50868060  1
  O  O248  1  0.25509960  0.85430017  -0.00963649  1
  O  O249  1  0.25376568  0.86783834  0.51142671  1
  O  O250  1  0.74431056  0.36091596  0.00365806  1
  O  O251  1  0.75664141  0.37311203  0.51013444  1
  O  O252  1  0.74401877  0.86821504  0.01617124  1
  O  O253  1  0.75620797  0.86382944  0.49465241  1
  O  O254  1  0.13767249  0.49628674  0.25054608  1
  O  O255  1  0.12044510  0.48862968  0.74675924  1
  O  O256  1  0.13103074  0.99510323  0.25454042  1
  O  O257  1  0.11319264  0.99060042  0.73787866  1
  O  O258  1  0.61922058  0.50670250  0.22902996  1
  O  O259  1  0.62239227  0.49350522  0.74261328  1
  O  O260  1  0.62465105  0.98310168  0.25461559  1
  O  O261  1  0.62346279  0.99864781  0.73794870  1
  O  O262  1  0.36846227  0.00742709  0.25527537  1
  O  O263  1  0.38124984  -0.00185445  0.76311792  1
  O  O264  1  0.36681386  0.50521965  0.25564272  1
  O  O265  1  0.37490885  0.49983273  0.75434887  1
  O  O266  1  0.86995154  0.01170198  0.25455900  1
  O  O267  1  0.87538948  -0.00483012  0.76018891  1
  O  O268  1  0.88418850  0.49620859  0.26594984  1
  O  O269  1  0.86771251  0.51475956  0.73790898  1
  O  O270  1  0.12100389  0.36485263  0.37668588  1
  O  O271  1  0.13336655  0.35346163  0.87186859  1
  O  O272  1  0.12068262  0.87016981  0.37210937  1
  O  O273  1  0.12508171  0.86842554  0.86512021  1
  O  O274  1  0.62590411  0.40634427  0.37177006  1
  O  O275  1  0.61789721  0.36906400  0.87107828  1
  O  O276  1  0.61839154  0.86126627  0.36536793  1
  O  O277  1  0.60887023  0.86701965  0.88483710  1
  O  O278  1  0.38413008  0.13316775  0.13454749  1
  O  O279  1  0.38993644  0.13680880  0.61988843  1
  O  O280  1  0.36475057  0.63019718  0.13835917  1
  O  O281  1  0.36924547  0.64158661  0.62863614  1
  O  O282  1  0.89117100  0.12444227  0.13257051  1
  O  O283  1  0.90177496  0.10648976  0.53398638  1
  O  O284  1  0.89272346  0.61019384  0.12744833  1
  O  O285  1  0.88728976  0.63373931  0.62930401  1
  O  O286  1  0.25474104  0.25336776  0.12008730  1
  O  O287  1  0.26862350  0.25378502  0.61482546  1
  O  O288  1  0.25140144  0.74378521  0.11246069  1
  O  O289  1  0.25727643  0.75919674  0.61986252  1
  O  O290  1  0.74701826  0.26319252  0.11018311  1
  O  O291  1  0.73973742  0.26663585  0.61154603  1
  O  O292  1  0.74379345  0.75845452  0.11419719  1
  O  O293  1  0.76639081  0.73293760  0.60632723  1
  O  O294  1  0.24205178  0.25945108  0.38318052  1
  O  O295  1  0.25425226  0.23202282  0.88090131  1
  O  O296  1  0.24675709  0.74365494  0.38098957  1
  O  O297  1  0.24612972  0.74017305  0.88105248  1
  O  O298  1  0.74285464  0.26687794  0.38601461  1
  O  O299  1  0.74086742  0.23876713  0.88393917  1
  O  O300  1  0.73280047  0.74441532  0.37461712  1
  O  O301  1  0.72834487  0.76393431  0.89389893  1
  O  O302  1  -0.00091321  0.11777895  0.01817936  1
  O  O303  1  0.03100297  0.12809144  0.49253357  1
  O  O304  1  -0.00084215  0.63018139  0.01333892  1
  O  O305  1  -0.00110299  0.61403744  0.50973383  1
  O  O306  1  0.50580054  0.11850661  0.00847121  1
  O  O307  1  0.51607815  0.13516441  0.51096755  1
  O  O308  1  0.50376243  0.60882803  -0.00201389  1
  O  O309  1  0.48969094  0.61774034  0.50482441  1
  O  O310  1  0.49084131  0.38881417  0.50889678  1
  O  O311  1  0.50372462  0.38807385  0.98809241  1
  O  O312  1  0.49878128  0.86910775  0.48360263  1
  O  O313  1  0.50236874  0.89117336  1.00275056  1
  O  O314  1  0.99537818  0.38113105  0.49596065  1
  O  O315  1  1.00139672  0.37423007  0.99077038  1
  O  O316  1  1.00331203  0.87357325  0.49206350  1
  O  O317  1  0.99545608  0.87916414  0.99380560  1
  O  O318  1  0.48620270  0.51005954  0.38460730  1
  O  O319  1  0.48535733  0.49463470  0.88436730  1
  O  O320  1  0.49030282  0.98754478  0.36439042  1
  O  O321  1  0.49140512  0.99342193  0.88484725  1
  O  O322  1  0.99932995  0.49397456  0.38551246  1
  O  O323  1  0.97552667  0.49465212  0.85700961  1
  O  O324  1  0.99081781  0.99808084  0.39860099  1
  O  O325  1  0.98409875  1.00421403  0.87481689  1
  O  O326  1  0.01467699  0.00176678  0.12526238  1
  O  O327  1  0.00898223  -0.00515962  0.61058522  1
  O  O328  1  0.01785885  0.50360758  0.12481756  1
  O  O329  1  0.00176833  0.50765362  0.61938162  1
  O  O330  1  0.49306237  0.00993395  0.11754280  1
  O  O331  1  0.50466151  0.01495734  0.62405925  1
  O  O332  1  0.50892805  0.49205959  0.11193631  1
  O  O333  1  0.50865013  0.51232710  0.62520771  1
  O  O334  1  0.25028083  0.38335405  0.23804504  1
  O  O335  1  0.25661348  0.36687645  0.73424072  1
  O  O336  1  0.23873285  0.88525507  0.25569476  1
  O  O337  1  0.23803476  0.87019473  0.74218290  1
  O  O338  1  0.75677703  0.36908847  0.22935122  1
  O  O339  1  0.73709408  0.37035889  0.74231901  1
  O  O340  1  0.73634477  0.86745131  0.23954466  1
  O  O341  1  0.73231987  0.82339331  0.72628249  1
  O  O342  1  0.26452526  0.11969455  0.24869187  1
  O  O343  1  0.25669697  0.12282781  0.75675892  1
  O  O344  1  0.25496627  0.61629048  0.25826881  1
  O  O345  1  0.25054686  0.62931134  0.76669341  1
  O  O346  1  0.76838097  0.12972315  0.23593667  1
  O  O347  1  0.74449944  0.13085481  0.76290273  1
  O  O348  1  0.75292999  0.62326550  0.26573709  1
  O  O349  1  0.76423398  0.63570670  0.74303833  1
  O  O350  1  0.38908984  0.11633586  0.36420406  1
  O  O351  1  0.36677717  0.11185206  0.87593834  1
  O  O352  1  0.36336300  0.61793468  0.36610956  1
  O  O353  1  0.36433216  0.61077717  0.87665034  1
  O  O354  1  0.88449481  0.12966900  0.35933363  1
  O  O355  1  0.85940833  0.11553823  0.87644213  1
  O  O356  1  0.87149627  0.61516257  0.37474538  1
  O  O357  1  0.87606143  0.61643745  0.85754028  1
  O  O358  1  0.13356346  0.38585948  0.12485832  1
  O  O359  1  0.14692773  0.36265006  0.62386257  1
  O  O360  1  0.11761297  0.88682440  0.14101309  1
  O  O361  1  0.13364399  0.88253411  0.63090728  1
  O  O362  1  0.62983354  0.38601666  0.11961936  1
  O  O363  1  0.62810958  0.38299653  0.63698258  1
  O  O364  1  0.62605109  0.87172988  0.13847009  1
  O  O365  1  0.61797449  0.89400634  0.61540848  1
  O  O366  1  0.13443262  0.25105904  0.26493947  1
  O  O367  1  0.13015204  0.24945289  0.76255670  1
  O  O368  1  0.12988520  0.76100420  0.26214846  1
  O  O369  1  0.11806368  0.75849815  0.75773332  1
  O  O370  1  0.61133817  0.25199580  0.25108039  1
  O  O371  1  0.62719384  0.25848486  0.76358826  1
  O  O372  1  0.61445186  0.75411650  0.25327359  1
  O  O373  1  0.61078448  0.73824209  0.77681944  1
  O  O374  1  0.38349844  0.24425457  0.24265354  1
  O  O375  1  0.37711188  0.25012443  0.73848322  1
  O  O376  1  0.37791299  0.74370653  0.24468777  1
  O  O377  1  0.37009741  0.75760265  0.73979760  1
  O  O378  1  0.88161363  0.24257210  0.24810684  1
  O  O379  1  0.87561944  0.24561435  0.74155989  1
  O  O380  1  0.87707180  0.74876924  0.25118459  1
  O  O381  1  0.88358619  0.74439911  0.73749539  1
  O  O382  1  0.38123940  0.49435949  0.49486389  1
  O  O383  1  0.38402657  0.50249460  1.00702459  1
  O  O384  1  0.37053099  1.00064761  0.48627942  1
  O  O385  1  0.38812823  1.00506549  0.99520707  1
  O  O386  1  0.88642215  0.49069547  0.49314009  1
  O  O387  1  0.87470783  0.50517939  0.98517799  1
  O  O388  1  0.87215435  0.97049440  0.50469037  1
  O  O389  1  0.87090686  0.99508911  0.98623547  1
  O  O390  1  0.13232794  -0.00680554  0.01654665  1
  O  O391  1  0.13187019  0.00766596  0.50770379  1
  O  O392  1  0.13236239  0.49921922  0.00541751  1
  O  O393  1  0.11747964  0.49079951  0.50900391  1
  O  O394  1  0.61106915  0.01260073  -0.00620553  1
  O  O395  1  0.62970121  0.01662944  0.50529094  1
  O  O396  1  0.61614054  0.50568398  0.00487981  1
  O  O397  1  0.61380717  0.50601020  0.52348659  1
  O  O398  1  0.36547462  0.36399693  0.12916115  1
  O  O399  1  0.37409198  0.36347797  0.61883544  1
  O  O400  1  0.37123642  0.86415566  0.13452662  1
  O  O401  1  0.36989986  0.86926637  0.62543986  1
  O  O402  1  0.86467009  0.38528421  0.11587933  1
  O  O403  1  0.86464231  0.38735597  0.61837402  1
  O  O404  1  0.86258114  0.87736074  0.12855675  1
  O  O405  1  0.87603905  0.85827520  0.61394514  1
  O  O406  1  0.12821427  0.13749589  0.37711740  1
  O  O407  1  0.14337849  0.12857932  0.86890680  1
  O  O408  1  0.13625566  0.63394867  0.36783112  1
  O  O409  1  0.13336633  0.63263163  0.86913727  1
  O  O410  1  0.61695882  0.12568398  0.38649417  1
  O  O411  1  0.63233727  0.12866871  0.88148488  1
  O  O412  1  0.62898773  0.63470487  0.37169538  1
  O  O413  1  0.62042931  0.63719284  0.89403620  1
