# generated using pymatgen
data_V79Zn79O256
_symmetry_space_group_name_H-M   'P 1'
_cell_length_a   16.88757860
_cell_length_b   16.88664561
_cell_length_c   16.90615670
_cell_angle_alpha   90.03419560
_cell_angle_beta   90.03678566
_cell_angle_gamma   90.05003027
_symmetry_Int_Tables_number   1
_chemical_formula_structural   V79Zn79O256
_chemical_formula_sum   'V79 Zn79 O256'
_cell_volume   4821.20202111
_cell_formula_units_Z   1
loop_
 _symmetry_equiv_pos_site_id
 _symmetry_equiv_pos_as_xyz
  1  'x, y, z'
loop_
 _atom_site_type_symbol
 _atom_site_label
 _atom_site_symmetry_multiplicity
 _atom_site_fract_x
 _atom_site_fract_y
 _atom_site_fract_z
 _atom_site_occupancy
  V  V0  1  0.25601510  0.10428880  0.37566800  1
  V  V1  1  0.25690219  0.49601107  0.24048481  1
  V  V2  1  0.63978315  0.39143224  0.24714847  1
  V  V3  1  0.61824542  0.74877931  0.38762424  1
  V  V4  1  0.87626052  0.25581160  0.62637168  1
  V  V5  1  0.37665445  0.37226973  0.50949627  1
  V  V6  1  0.24626771  -0.00349820  0.74090263  1
  V  V7  1  0.25173009  0.12600515  0.87955199  1
  V  V8  1  0.11973507  0.62403163  0.00541166  1
  V  V9  1  0.74056145  0.63607665  0.87291267  1
  V  V10  1  0.38091627  0.37103371  -0.00838096  1
  V  V11  1  0.62488297  0.24958968  0.36566863  1
  V  V12  1  0.12309147  0.74461197  0.36884676  1
  V  V13  1  0.37940259  0.13286111  0.75290671  1
  V  V14  1  0.87360082  0.00087953  0.87559859  1
  V  V15  1  0.63039031  0.87279787  0.24734210  1
  V  V16  1  0.87397283  0.50026521  0.88172008  1
  V  V17  1  0.24090892  0.74605512  0.50222675  1
  V  V18  1  0.36257601  0.88172507  0.50257870  1
  V  V19  1  0.25992868  0.88540616  0.12408125  1
  V  V20  1  0.23108039  0.37308626  0.62908336  1
  V  V21  1  0.37389452  0.73393517  0.62803259  1
  V  V22  1  0.87928260  0.75753039  0.61980897  1
  V  V23  1  0.76057649  0.12232565  0.36962744  1
  V  V24  1  0.37785761  0.50546015  0.37400564  1
  V  V25  1  0.63630954  0.51450900  0.61149923  1
  V  V26  1  0.87338140  0.50044678  0.36903957  1
  V  V27  1  0.49861941  0.12894735  0.13124309  1
  V  V28  1  0.24948546  0.25296267  0.00923093  1
  V  V29  1  0.26830846  0.74624869  0.01218810  1
  V  V30  1  0.23333507  0.50247455  0.75400018  1
  V  V31  1  0.00230786  0.37264359  0.37016393  1
  V  V32  1  0.87564279  0.62400822  0.24352284  1
  V  V33  1  0.62483812  0.13481418  -0.00513749  1
  V  V34  1  0.13795845  0.25131063  0.37677206  1
  V  V35  1  0.59441248  0.38056644  0.73875325  1
  V  V36  1  0.13035465  0.88035435  0.74452134  1
  V  V37  1  0.75743396  0.48852018  0.73401775  1
  V  V38  1  0.00057321  0.37944259  0.88256953  1
  V  V39  1  0.11111612  0.49663279  0.12752592  1
  V  V40  1  0.49604406  -0.00301038  0.49444123  1
  V  V41  1  0.61083286  0.86969859  0.75992493  1
  V  V42  1  0.75022255  0.62670883  0.37761913  1
  V  V43  1  0.00726307  0.00032834  0.00442843  1
  V  V44  1  0.62185574  -0.00170278  0.62525820  1
  V  V45  1  0.50519509  0.51631683  0.49766929  1
  V  V46  1  0.74821400  0.00434154  0.75114994  1
  V  V47  1  0.00979247  0.12069066  0.62710356  1
  V  V48  1  0.62932115  -0.00415927  0.12590365  1
  V  V49  1  0.75637537  0.75847804  0.49996083  1
  V  V50  1  0.00639548  0.75014635  0.75089476  1
  V  V51  1  0.00022274  0.11967949  0.13605335  1
  V  V52  1  0.75282904  0.37787212  0.10129263  1
  V  V53  1  0.86222195  0.87113844  0.00179218  1
  V  V54  1  0.87746386  0.37938902  0.50175631  1
  V  V55  1  0.87822883  0.62476219  0.74416522  1
  V  V56  1  0.75063770  0.25377785  0.50663539  1
  V  V57  1  0.00227021  0.87289608  0.87874115  1
  V  V58  1  0.00379611  0.74458063  0.23484868  1
  V  V59  1  0.13171210  0.11945150  0.50232686  1
  V  V60  1  0.12713683  0.88742407  0.24030497  1
  V  V61  1  0.37529995  -0.01348997  0.88007619  1
  V  V62  1  0.36924423  0.25593319  0.14032018  1
  V  V63  1  0.48589118  0.74158951  0.23967160  1
  V  V64  1  0.50269745  0.37170940  0.36877116  1
  V  V65  1  0.13778846  0.74529838  0.88162788  1
  V  V66  1  0.12774876  0.25574783  0.87660311  1
  V  V67  1  0.85782142  0.75165161  0.12014861  1
  V  V68  1  -0.00763326  -0.00528762  0.49973619  1
  V  V69  1  0.24896341  0.62366044  0.36964681  1
  V  V70  1  0.49931299  0.13319716  0.62806170  1
  V  V71  1  0.62420500  0.12720703  0.50254078  1
  V  V72  1  0.01972615  0.62203414  0.61715332  1
  V  V73  1  0.36822334  0.51925491  0.86968028  1
  V  V74  1  0.87708336  0.12614147  0.75165190  1
  V  V75  1  0.37532559  0.10347729  0.25555390  1
  V  V76  1  0.86739219  0.24551579  0.11671401  1
  V  V77  1  0.49490941  -0.01158650  -0.00110615  1
  V  V78  1  0.00880700  0.25765663  0.75072529  1
  Zn  Zn79  1  -0.00502587  0.86978597  0.37305543  1
  Zn  Zn80  1  -0.01640046  0.50199561  0.01361848  1
  Zn  Zn81  1  0.61323979  0.62616511  0.01809447  1
  Zn  Zn82  1  0.76432791  0.00000726  0.23842297  1
  Zn  Zn83  1  0.01839484  0.50306394  0.49763009  1
  Zn  Zn84  1  0.51023440  0.70879631  0.74944487  1
  Zn  Zn85  1  0.86902071  -0.01870902  0.37611407  1
  Zn  Zn86  1  0.37398395  0.25236237  0.62421576  1
  Zn  Zn87  1  -0.00794287  0.24096628  0.25450335  1
  Zn  Zn88  1  0.12891525  0.11916709  0.00961880  1
  Zn  Zn89  1  0.50714882  0.49810509  -0.00689418  1
  Zn  Zn90  1  0.49067703  0.87884601  0.37210427  1
  Zn  Zn91  1  0.13087044  0.36113900  0.23436173  1
  Zn  Zn92  1  0.75350076  0.87828461  0.62309490  1
  Zn  Zn93  1  0.75762177  0.14935257  0.89347055  1
  Zn  Zn94  1  0.18659011  0.17521672  0.19439380  1
  Zn  Zn95  1  0.19464020  0.19121564  0.68833337  1
  Zn  Zn96  1  0.19162050  0.68338368  0.18406592  1
  Zn  Zn97  1  0.21481975  0.70494542  0.70811948  1
  Zn  Zn98  1  0.69017672  0.18701340  0.18466294  1
  Zn  Zn99  1  0.69972220  0.21679015  0.72741197  1
  Zn  Zn100  1  0.68184628  0.68975970  0.19661859  1
  Zn  Zn101  1  0.68975615  0.68870404  0.68875787  1
  Zn  Zn102  1  0.31321522  0.31700204  0.31499064  1
  Zn  Zn103  1  0.31407529  0.32023174  0.80850628  1
  Zn  Zn104  1  0.30948609  0.82104857  0.31328090  1
  Zn  Zn105  1  0.34797841  0.77270525  0.83460117  1
  Zn  Zn106  1  0.81532801  0.30493025  0.30921717  1
  Zn  Zn107  1  0.81734189  0.31667170  0.82036127  1
  Zn  Zn108  1  0.81538213  0.81244479  0.31150590  1
  Zn  Zn109  1  0.81198581  0.81717562  0.80598925  1
  Zn  Zn110  1  0.19502515  0.43363885  0.43713609  1
  Zn  Zn111  1  0.19082496  0.43701788  0.94378903  1
  Zn  Zn112  1  0.17735052  0.93193311  0.43583563  1
  Zn  Zn113  1  0.19387950  0.93068181  0.94114465  1
  Zn  Zn114  1  0.69054750  0.43683432  0.43574617  1
  Zn  Zn115  1  0.68100596  0.44085432  0.92767652  1
  Zn  Zn116  1  0.68412584  0.93595734  0.43715636  1
  Zn  Zn117  1  0.68257813  0.94315314  0.93471103  1
  Zn  Zn118  1  0.31355202  0.06227238  0.06649737  1
  Zn  Zn119  1  0.31362273  0.06580283  0.56368326  1
  Zn  Zn120  1  0.31039881  0.56046567  0.05254451  1
  Zn  Zn121  1  0.19362938  0.56056087  0.56673640  1
  Zn  Zn122  1  0.81606154  0.06331318  0.06069184  1
  Zn  Zn123  1  0.81263009  0.06752731  0.56600023  1
  Zn  Zn124  1  0.76725977  0.58001669  0.07923046  1
  Zn  Zn125  1  0.82035369  0.56989325  0.55552994  1
  Zn  Zn126  1  0.43910160  0.43117770  0.19287776  1
  Zn  Zn127  1  0.44572482  0.51366775  0.69684115  1
  Zn  Zn128  1  0.44574585  0.92886369  0.18642914  1
  Zn  Zn129  1  0.42926766  0.93533662  0.68309373  1
  Zn  Zn130  1  0.92697059  0.42668586  0.18896902  1
  Zn  Zn131  1  0.95108719  0.44033216  0.68777482  1
  Zn  Zn132  1  0.93606216  0.93312918  0.19050527  1
  Zn  Zn133  1  0.94278786  0.93937543  0.68994744  1
  Zn  Zn134  1  0.06189359  0.06142953  0.31842683  1
  Zn  Zn135  1  0.06435946  0.06497490  0.81799313  1
  Zn  Zn136  1  0.06136521  0.56089550  0.30979468  1
  Zn  Zn137  1  0.06496590  0.56518408  0.81334610  1
  Zn  Zn138  1  0.56643157  0.06413076  0.31279618  1
  Zn  Zn139  1  0.55994996  0.06160214  0.81414613  1
  Zn  Zn140  1  0.56387237  0.56645107  0.30825617  1
  Zn  Zn141  1  0.56709884  0.53605199  0.82190601  1
  Zn  Zn142  1  0.43884497  0.18830122  0.43659055  1
  Zn  Zn143  1  0.44051802  0.18668258  0.94203853  1
  Zn  Zn144  1  0.42726584  0.69374233  0.43565447  1
  Zn  Zn145  1  0.48002314  0.70391335  0.93723692  1
  Zn  Zn146  1  0.94264466  0.18728169  0.44098294  1
  Zn  Zn147  1  0.94143524  0.18684046  0.94152613  1
  Zn  Zn148  1  0.93991235  0.68929502  0.43577094  1
  Zn  Zn149  1  0.93685700  0.68481431  0.94017672  1
  Zn  Zn150  1  0.05797637  0.30883272  0.06248743  1
  Zn  Zn151  1  0.06138449  0.30654804  0.55371556  1
  Zn  Zn152  1  0.06433369  0.81320340  0.06274879  1
  Zn  Zn153  1  0.06570299  0.81162505  0.56343175  1
  Zn  Zn154  1  0.56120981  0.31461314  0.06961017  1
  Zn  Zn155  1  0.56476330  0.32215606  0.56398083  1
  Zn  Zn156  1  0.56309995  0.80471942  0.06404989  1
  Zn  Zn157  1  0.55156122  0.81079125  0.57165400  1
  O  O158  1  0.10754611  0.12767912  0.12510488  1
  O  O159  1  0.11987904  0.13485515  0.61686522  1
  O  O160  1  0.12588608  0.60908379  0.11970395  1
  O  O161  1  0.12034009  0.63403537  0.62826684  1
  O  O162  1  0.61540030  0.11727410  0.12334521  1
  O  O163  1  0.61527345  0.11343682  0.62049986  1
  O  O164  1  0.66555666  0.61667671  0.11784041  1
  O  O165  1  0.63087072  0.61493458  0.61961209  1
  O  O166  1  0.38496257  0.38271917  0.37750130  1
  O  O167  1  0.38422135  0.35385156  0.89287341  1
  O  O168  1  0.37671895  0.86802337  0.39550101  1
  O  O169  1  0.36676284  0.88967002  0.87505186  1
  O  O170  1  0.88274444  0.38001035  0.37980686  1
  O  O171  1  0.88464825  0.39152143  0.87005669  1
  O  O172  1  0.88167697  0.86679232  0.38239781  1
  O  O173  1  0.88528482  0.87729255  0.87972970  1
  O  O174  1  0.24854095  0.00621223  0.37559878  1
  O  O175  1  0.26019535  0.00887643  0.88023574  1
  O  O176  1  0.25892709  0.50611636  0.36872893  1
  O  O177  1  0.25777256  0.48131082  0.86398457  1
  O  O178  1  0.75003348  0.01636580  0.38553877  1
  O  O179  1  0.75614511  0.00550964  0.86462896  1
  O  O180  1  0.76351849  0.51137740  0.38421854  1
  O  O181  1  0.76703199  0.50623251  0.85645951  1
  O  O182  1  0.25168579  0.50215962  0.13859347  1
  O  O183  1  0.24429074  0.48591584  0.63966550  1
  O  O184  1  0.24479503  0.98559976  0.11359073  1
  O  O185  1  0.25193391  1.00642477  0.64237761  1
  O  O186  1  0.76348092  0.47466362  0.12250646  1
  O  O187  1  0.74587140  0.50637486  0.61761508  1
  O  O188  1  0.73372230  1.00623172  0.12415381  1
  O  O189  1  0.74019638  1.00034200  0.62914498  1
  O  O190  1  0.00674386  0.37465263  0.26274289  1
  O  O191  1  0.00113781  0.36383882  0.76017295  1
  O  O192  1  0.01364194  0.86264819  0.24743612  1
  O  O193  1  0.00849617  0.87288307  0.76246822  1
  O  O194  1  0.51645665  0.37888567  0.25937346  1
  O  O195  1  0.49770723  0.40231748  0.73186106  1
  O  O196  1  0.51026937  0.86637227  0.25733189  1
  O  O197  1  0.51217649  0.88906471  0.74757073  1
  O  O198  1  0.48674729  0.11897214  0.24592886  1
  O  O199  1  0.48997999  0.11461367  0.74012143  1
  O  O200  1  0.50324347  0.64182774  0.25327574  1
  O  O201  1  0.50683164  0.59725130  0.74572140  1
  O  O202  1  1.00087224  0.11927527  0.23953907  1
  O  O203  1  0.99875695  0.13162241  0.74537481  1
  O  O204  1  0.98651053  0.63222407  0.25293052  1
  O  O205  1  0.99848676  0.63084624  0.73956693  1
  O  O206  1  0.36845817  0.25337787  0.01565546  1
  O  O207  1  0.38059189  0.26827058  0.49563095  1
  O  O208  1  0.36522748  0.74245829  0.00001361  1
  O  O209  1  0.36081734  0.75697698  0.50798473  1
  O  O210  1  0.87693992  0.24583703  0.01374322  1
  O  O211  1  0.87229590  0.25722966  0.50747734  1
  O  O212  1  0.87827431  0.75413901  0.01222252  1
  O  O213  1  0.87075681  0.74803619  0.50919868  1
  O  O214  1  0.12012305  0.23326981  0.48428541  1
  O  O215  1  0.13338731  0.24629844  0.99482700  1
  O  O216  1  0.13422810  0.76298840  0.48368249  1
  O  O217  1  0.12594549  0.74149581  0.99642898  1
  O  O218  1  0.63592423  0.24973052  0.49595025  1
  O  O219  1  0.61589812  0.23339895  1.00943663  1
  O  O220  1  0.62884639  0.75550559  0.49123793  1
  O  O221  1  0.58697901  0.73326842  0.98290531  1
  O  O222  1  0.48295171  0.23716087  0.12467715  1
  O  O223  1  0.49856742  0.23535867  0.61288484  1
  O  O224  1  0.49305115  0.75592254  0.14074684  1
  O  O225  1  0.47884899  0.74916922  0.63773581  1
  O  O226  1  0.99219674  0.23741126  0.12659271  1
  O  O227  1  0.99782097  0.24251749  0.63150185  1
  O  O228  1  0.99754228  0.74634498  0.13221659  1
  O  O229  1  0.99874446  0.74247457  0.62977820  1
  O  O230  1  0.00785843  0.25527521  0.37355146  1
  O  O231  1  0.00671410  0.25702169  0.87096297  1
  O  O232  1  0.00990700  0.74718084  0.36367244  1
  O  O233  1  0.00715751  0.75778417  0.87192113  1
  O  O234  1  0.51329444  0.25934918  0.38098845  1
  O  O235  1  0.49927185  0.25833046  0.88103734  1
  O  O236  1  0.51310422  0.75006153  0.37678475  1
  O  O237  1  0.45801747  0.75109811  0.84085141  1
  O  O238  1  0.24749472  0.12001763  0.48622437  1
  O  O239  1  0.25210523  0.13315922  0.99502423  1
  O  O240  1  0.24393983  0.63995399  0.48755486  1
  O  O241  1  0.23850547  0.63844924  1.00899956  1
  O  O242  1  0.74540249  0.13697257  0.49628340  1
  O  O243  1  0.73193922  0.11894558  1.00129736  1
  O  O244  1  0.75696702  0.64069690  0.48683747  1
  O  O245  1  0.75455875  0.62343838  0.97260834  1
  O  O246  1  0.26063972  0.35830807  0.00132900  1
  O  O247  1  0.26769537  0.38482161  0.51530475  1
  O  O248  1  0.24555120  0.85961609  0.01479269  1
  O  O249  1  0.25600155  0.86732394  0.49293599  1
  O  O250  1  0.73793213  0.37231618  0.00259790  1
  O  O251  1  0.76441533  0.36378745  0.49227385  1
  O  O252  1  0.76348236  0.88163372  -0.00874927  1
  O  O253  1  0.74644999  0.86367147  0.50346086  1
  O  O254  1  0.13241943  0.49977137  0.23684004  1
  O  O255  1  0.13262559  0.48761769  0.76533496  1
  O  O256  1  0.12017038  0.98576063  0.25378592  1
  O  O257  1  0.13793351  0.99707585  0.76029815  1
  O  O258  1  0.63021252  0.49073567  0.25232182  1
  O  O259  1  0.64224581  0.49773801  0.72443078  1
  O  O260  1  0.62260050  0.98792045  0.24407238  1
  O  O261  1  0.63073350  0.99748011  0.74403329  1
  O  O262  1  0.37779189  0.00526074  0.25215714  1
  O  O263  1  0.36457140  0.00589075  0.76290738  1
  O  O264  1  0.36470701  0.49240631  0.25982411  1
  O  O265  1  0.35710988  0.49941954  0.76420796  1
  O  O266  1  0.87308613  -0.00810059  0.26081934  1
  O  O267  1  0.86985587  0.00445415  0.75468415  1
  O  O268  1  0.87969016  0.50737279  0.26018576  1
  O  O269  1  0.87626267  0.51055695  0.74496358  1
  O  O270  1  0.12126575  0.35950593  0.38070502  1
  O  O271  1  0.11986494  0.36174892  0.88266592  1
  O  O272  1  0.12326519  0.86282317  0.35857755  1
  O  O273  1  0.11745670  0.86740868  0.87365063  1
  O  O274  1  0.62303414  0.36998008  0.36652635  1
  O  O275  1  0.61934160  0.40895902  0.83761274  1
  O  O276  1  0.62230621  0.86394876  0.36756959  1
  O  O277  1  0.62567017  0.87954923  0.85910276  1
  O  O278  1  0.37789238  0.12607336  0.14141608  1
  O  O279  1  0.38144081  0.12687595  0.63400727  1
  O  O280  1  0.40920641  0.58154798  0.12130958  1
  O  O281  1  0.36665060  0.63752892  0.61619637  1
  O  O282  1  0.88427824  0.13280404  0.12367526  1
  O  O283  1  0.88886553  0.13593855  0.62998944  1
  O  O284  1  0.86178505  0.63703905  0.13311549  1
  O  O285  1  0.88506783  0.63556490  0.63083611  1
  O  O286  1  0.25957482  0.23648085  0.12184822  1
  O  O287  1  0.25659644  0.26641756  0.62723270  1
  O  O288  1  0.25216085  0.75532542  0.11774019  1
  O  O289  1  0.24025407  0.74868872  0.60253546  1
  O  O290  1  0.76033364  0.25456268  0.12510691  1
  O  O291  1  0.76694613  0.24597550  0.61993160  1
  O  O292  1  0.76068658  0.75963251  0.12990637  1
  O  O293  1  0.76167388  0.75069095  0.61724353  1
  O  O294  1  0.24001029  0.24743484  0.37438552  1
  O  O295  1  0.24564609  0.24364594  0.88291075  1
  O  O296  1  0.24317094  0.74218738  0.37619477  1
  O  O297  1  0.24358864  0.75871855  0.89255352  1
  O  O298  1  0.74507292  0.24054517  0.38472071  1
  O  O299  1  0.74023519  0.24098526  0.83432620  1
  O  O300  1  0.74135834  0.74806978  0.38290755  1
  O  O301  1  0.75560939  0.73533646  0.85857445  1
  O  O302  1  0.00279247  0.11392312  0.00765660  1
  O  O303  1  0.00896265  0.11761484  0.50872989  1
  O  O304  1  0.01301512  0.61685687  -0.00376001  1
  O  O305  1  0.00218115  0.62941702  0.51428749  1
  O  O306  1  0.50539742  0.11535707  0.01339976  1
  O  O307  1  0.50242329  0.11710086  0.50607709  1
  O  O308  1  0.49669511  0.61468983  0.00196686  1
  O  O309  1  0.49884254  0.61408432  0.48210059  1
  O  O310  1  0.49758684  0.38390568  0.48489310  1
  O  O311  1  0.48278881  0.38370686  1.02063548  1
  O  O312  1  0.48970743  0.88255623  0.50076579  1
  O  O313  1  0.49909029  0.89063630  1.00863857  1
  O  O314  1  0.99309583  0.37468632  0.48744426  1
  O  O315  1  1.00215499  0.38215806  0.98699760  1
  O  O316  1  1.01034869  0.89295734  0.50370849  1
  O  O317  1  0.99407838  0.87940842  0.99255758  1
  O  O318  1  0.49771273  0.49406227  0.37540708  1
  O  O319  1  0.47146821  0.49757981  0.87953880  1
  O  O320  1  0.50686604  1.00089135  0.39053771  1
  O  O321  1  0.48692547  1.00290904  0.88764905  1
  O  O322  1  0.99278271  0.49208612  0.37644136  1
  O  O323  1  0.98930728  0.49484340  0.87103229  1
  O  O324  1  0.99710846  1.00151746  0.39153671  1
  O  O325  1  0.99426552  0.99205683  0.88090391  1
  O  O326  1  -0.00940391  0.01050165  0.11695305  1
  O  O327  1  -0.00109513  0.01270135  0.61864573  1
  O  O328  1  0.00684003  0.49506911  0.12891888  1
  O  O329  1  0.00477705  0.51784527  0.62238048  1
  O  O330  1  0.50490159  0.00694655  0.11756356  1
  O  O331  1  0.50330503  0.00773155  0.61499797  1
  O  O332  1  0.46012483  0.52148760  0.11877388  1
  O  O333  1  0.51035548  0.50860704  0.60108877  1
  O  O334  1  0.24249726  0.39146425  0.25952259  1
  O  O335  1  0.25104742  0.37817391  0.73478778  1
  O  O336  1  0.23675606  0.87051784  0.23828363  1
  O  O337  1  0.24401750  0.89381800  0.75817223  1
  O  O338  1  0.74026583  0.37658592  0.25830808  1
  O  O339  1  0.76765508  0.38936275  0.73913880  1
  O  O340  1  0.73339868  0.87654740  0.25540634  1
  O  O341  1  0.74096054  0.88862582  0.74496902  1
  O  O342  1  0.26233181  0.12022948  0.26351297  1
  O  O343  1  0.25618047  0.11665788  0.76115584  1
  O  O344  1  0.24737601  0.61016910  0.25913815  1
  O  O345  1  0.23697959  0.60282358  0.74925620  1
  O  O346  1  0.74261838  0.12062401  0.26689450  1
  O  O347  1  0.75823473  0.11219634  0.73982402  1
  O  O348  1  0.76581144  0.63786551  0.26684013  1
  O  O349  1  0.76445351  0.61689079  0.74887414  1
  O  O350  1  0.36667133  0.12572997  0.36706110  1
  O  O351  1  0.36691513  0.11985541  0.87170928  1
  O  O352  1  0.36321394  0.61514191  0.37850360  1
  O  O353  1  0.35818589  0.61463651  0.88434946  1
  O  O354  1  0.86129116  0.13080000  0.38017960  1
  O  O355  1  0.87555217  0.12005501  0.86987558  1
  O  O356  1  0.87266853  0.61857459  0.36894536  1
  O  O357  1  0.87909659  0.61626838  0.86053185  1
  O  O358  1  0.12286553  0.38909776  0.12070510  1
  O  O359  1  0.13178618  0.36789112  0.61926477  1
  O  O360  1  0.12948005  0.87346783  0.13580139  1
  O  O361  1  0.12010133  0.87193552  0.64570608  1
  O  O362  1  0.64035461  0.36530633  0.13955605  1
  O  O363  1  0.62224824  0.39765366  0.62659093  1
  O  O364  1  0.61820788  0.88088507  0.13757331  1
  O  O365  1  0.62225691  0.88857256  0.63033493  1
  O  O366  1  0.12189435  0.24602049  0.26466946  1
  O  O367  1  0.11789542  0.24135892  0.76304331  1
  O  O368  1  0.11933770  0.74899925  0.25212097  1
  O  O369  1  0.12758317  0.75982510  0.76361535  1
  O  O370  1  0.63120063  0.25364602  0.26311247  1
  O  O371  1  0.60720317  0.27886056  0.72714351  1
  O  O372  1  0.61770922  0.76134594  0.25857648  1
  O  O373  1  0.61783356  0.76566921  0.73737654  1
  O  O374  1  0.36827732  0.24430941  0.24258558  1
  O  O375  1  0.37043265  0.23526242  0.75095834  1
  O  O376  1  0.38846426  0.75505986  0.26439565  1
  O  O377  1  0.32893306  0.74927058  0.72303402  1
  O  O378  1  0.87954622  0.25434642  0.23201007  1
  O  O379  1  0.89021377  0.24693191  0.74289237  1
  O  O380  1  0.88301780  0.74665770  0.23635938  1
  O  O381  1  0.88558867  0.74283873  0.74252681  1
  O  O382  1  0.39257284  0.48943852  0.48558613  1
  O  O383  1  0.35715918  0.47781036  0.98585673  1
  O  O384  1  0.37912495  0.98926721  0.50578714  1
  O  O385  1  0.38446190  1.00520073  0.99203421  1
  O  O386  1  0.88225024  0.49171480  0.49138060  1
  O  O387  1  0.87060612  0.50974766  0.98113436  1
  O  O388  1  0.88862553  1.00577758  0.50227503  1
  O  O389  1  0.88355978  0.99111857  0.99482957  1
  O  O390  1  0.11114617  -0.00298818  -0.00672276  1
  O  O391  1  0.11670601  0.01290719  0.49541582  1
  O  O392  1  0.13063200  0.50596431  0.01465987  1
  O  O393  1  0.13037038  0.50476640  0.49204097  1
  O  O394  1  0.61154919  0.00436663  0.00734867  1
  O  O395  1  0.61736774  0.00433026  0.50812779  1
  O  O396  1  0.62039745  0.51003858  -0.00792021  1
  O  O397  1  0.61807434  0.49939656  0.50036905  1
  O  O398  1  0.37278014  0.35831162  0.12807417  1
  O  O399  1  0.38792837  0.37623930  0.60922179  1
  O  O400  1  0.35956056  0.87930963  0.13192044  1
  O  O401  1  0.37245261  0.86726855  0.60862767  1
  O  O402  1  0.86470973  0.36180872  0.11820281  1
  O  O403  1  0.89276529  0.36633397  0.61358664  1
  O  O404  1  0.88115380  0.86136778  0.11510468  1
  O  O405  1  0.87872921  0.86148857  0.63421912  1
  O  O406  1  0.14008057  0.12974006  0.37774877  1
  O  O407  1  0.13629622  0.13384099  0.88136962  1
  O  O408  1  0.13262278  0.63473849  0.36740839  1
  O  O409  1  0.12308793  0.63796837  0.88447981  1
  O  O410  1  0.63096835  0.13311910  0.38343333  1
  O  O411  1  0.61863200  0.12131425  0.89264756  1
  O  O412  1  0.63627633  0.64146807  0.36721952  1
  O  O413  1  0.64219110  0.61871863  0.85793791  1
