# generated using pymatgen
data_V79Zn79O256
_symmetry_space_group_name_H-M   'P 1'
_cell_length_a   16.87430775
_cell_length_b   16.87603835
_cell_length_c   16.87572363
_cell_angle_alpha   90.06109519
_cell_angle_beta   89.98212478
_cell_angle_gamma   90.06619039
_symmetry_Int_Tables_number   1
_chemical_formula_structural   V79Zn79O256
_chemical_formula_sum   'V79 Zn79 O256'
_cell_volume   4805.71836648
_cell_formula_units_Z   1
loop_
 _symmetry_equiv_pos_site_id
 _symmetry_equiv_pos_as_xyz
  1  'x, y, z'
loop_
 _atom_site_type_symbol
 _atom_site_label
 _atom_site_symmetry_multiplicity
 _atom_site_fract_x
 _atom_site_fract_y
 _atom_site_fract_z
 _atom_site_occupancy
  V  V0  1  0.73674019  0.63113060  0.87752586  1
  V  V1  1  0.37538998  0.25213734  0.12484627  1
  V  V2  1  0.62502744  0.49903877  0.11613136  1
  V  V3  1  0.62111235  0.62185897  0.49426725  1
  V  V4  1  0.36598636  0.24477978  0.61351787  1
  V  V5  1  0.76335228  -0.00215471  0.75073869  1
  V  V6  1  0.37936084  0.38878071  0.49740775  1
  V  V7  1  0.36050193  0.12307427  0.75809108  1
  V  V8  1  0.36420436  0.11444718  0.25269647  1
  V  V9  1  0.13254276  0.13307819  -0.01335231  1
  V  V10  1  0.62310034  0.11745791  -0.00019706  1
  V  V11  1  0.75133028  0.87492743  0.12684942  1
  V  V12  1  0.87901971  0.37445501  0.49863033  1
  V  V13  1  -0.00843455  0.88557718  0.37468861  1
  V  V14  1  0.13695882  0.62802798  0.49732503  1
  V  V15  1  0.55663957  0.82264953  0.80110197  1
  V  V16  1  0.62094696  -0.00248420  0.12578404  1
  V  V17  1  0.49642179  0.12280866  0.62780951  1
  V  V18  1  0.50217501  0.37362488  0.87648531  1
  V  V19  1  0.12789907  0.49993398  0.63270864  1
  V  V20  1  0.00128345  0.24070949  0.74200988  1
  V  V21  1  0.62499335  0.37026099  0.74932071  1
  V  V22  1  0.87745726  0.74256313  0.11944579  1
  V  V23  1  0.63115845  0.37882442  0.24851076  1
  V  V24  1  0.38096210  0.51003142  0.87453015  1
  V  V25  1  0.38155872  0.87905951  0.00978460  1
  V  V26  1  0.75017302  0.49951550  0.74740366  1
  V  V27  1  0.00963882  0.86090316  0.86907752  1
  V  V28  1  0.87257556  0.88441812  -0.00673870  1
  V  V29  1  0.75600828  0.00426168  0.25773171  1
  V  V30  1  0.12831350  0.87768871  0.24084523  1
  V  V31  1  0.24918602  0.37490846  0.62740150  1
  V  V32  1  0.00355318  0.00884665  -0.00664661  1
  V  V33  1  0.37600479  0.74878611  0.13032486  1
  V  V34  1  0.35537655  0.75571697  0.62117766  1
  V  V35  1  0.76249577  0.11396349  0.87186820  1
  V  V36  1  0.76396767  0.37078873  0.12419188  1
  V  V37  1  0.87521980  0.49068003  0.88378219  1
  V  V38  1  0.87371233  0.49898058  0.37074285  1
  V  V39  1  0.61943331  0.86103650  0.25275063  1
  V  V40  1  0.24802250  0.25300923  -0.01297214  1
  V  V41  1  0.38234651  0.38044590  0.00049032  1
  V  V42  1  0.03255163  0.37136411  0.87183939  1
  V  V43  1  0.10786853  -0.01620582  0.62741470  1
  V  V44  1  0.62930673  0.12234715  0.49614618  1
  V  V45  1  0.49870857  0.38488299  0.37841721  1
  V  V46  1  0.75983697  0.24494431  0.50001191  1
  V  V47  1  0.25172538  0.38033843  0.12712431  1
  V  V48  1  0.00563164  0.24993131  0.24601939  1
  V  V49  1  0.75483433  0.36800904  0.62368710  1
  V  V50  1  0.75078013  0.61934038  0.36940583  1
  V  V51  1  -0.00657993  0.74022085  0.25156631  1
  V  V52  1  0.76556157  0.24714646  0.00299404  1
  V  V53  1  0.12785522  0.37459856  0.25985551  1
  V  V54  1  0.50205144  0.85325685  0.37293976  1
  V  V55  1  0.12392383  0.51571847  0.12235883  1
  V  V56  1  -0.00056432  0.62760790  0.62659879  1
  V  V57  1  0.49910064  0.24648425  0.74878793  1
  V  V58  1  0.13092986  0.74573088  0.37831229  1
  V  V59  1  0.12568706  0.25289947  0.40171847  1
  V  V60  1  0.49478586  -0.00071731  0.48935428  1
  V  V61  1  0.23511435  0.62962538  0.88261686  1
  V  V62  1  0.87470117  0.62885094  0.74995613  1
  V  V63  1  0.61433646  0.49707040  0.61937830  1
  V  V64  1  0.74485595  0.74744192  0.49257091  1
  V  V65  1  0.49837095  0.24957954  0.25164097  1
  V  V66  1  0.62387455  -0.00419613  0.63128892  1
  V  V67  1  0.62418291  0.24153092  0.87524970  1
  V  V68  1  0.25862898  0.50899295  0.26474536  1
  V  V69  1  0.36119300  0.87370645  0.49340873  1
  V  V70  1  0.23853286  0.75548017  0.00208162  1
  V  V71  1  0.49871705  0.11960621  0.12201703  1
  V  V72  1  0.49935960  0.63889904  0.62644051  1
  V  V73  1  0.38129843  0.62704339  0.26119795  1
  V  V74  1  0.87484494  0.74958758  0.62204910  1
  V  V75  1  0.87294721  0.88326790  0.49571257  1
  V  V76  1  0.63173024  0.24652931  0.37495385  1
  V  V77  1  0.00064075  0.49717518  0.49569875  1
  V  V78  1  0.37476113  -0.00941783  0.88001242  1
  Zn  Zn79  1  0.74496858  0.86801350  0.63105578  1
  Zn  Zn80  1  0.72687793  0.73714561  0.00342382  1
  Zn  Zn81  1  -0.00256688  0.13346013  0.11935183  1
  Zn  Zn82  1  0.14247659  0.11018078  0.51284976  1
  Zn  Zn83  1  0.13128705  0.00505185  0.12601816  1
  Zn  Zn84  1  0.23369463  -0.00343610  0.75164947  1
  Zn  Zn85  1  0.87467319  0.13259618  0.25070292  1
  Zn  Zn86  1  0.51313880  0.52730122  -0.00860259  1
  Zn  Zn87  1  0.26185331  0.11794829  0.39061184  1
  Zn  Zn88  1  0.87392104  0.61178837  0.23960169  1
  Zn  Zn89  1  0.51167109  0.63615252  0.12654734  1
  Zn  Zn90  1  0.82031048  0.06036037  0.41588612  1
  Zn  Zn91  1  0.00190362  0.50610929  0.00461422  1
  Zn  Zn92  1  0.24917122  0.50224696  0.75507138  1
  Zn  Zn93  1  0.38002677  0.63659470  0.75783561  1
  Zn  Zn94  1  0.18276481  0.18803227  0.17425013  1
  Zn  Zn95  1  0.17418351  0.18657321  0.68678705  1
  Zn  Zn96  1  0.19268217  0.69625185  0.19205838  1
  Zn  Zn97  1  0.19263376  0.68302889  0.69036252  1
  Zn  Zn98  1  0.68988578  0.18753679  0.18655849  1
  Zn  Zn99  1  0.68851987  0.18153417  0.68688057  1
  Zn  Zn100  1  0.69345005  0.68463553  0.18822875  1
  Zn  Zn101  1  0.68258901  0.69109386  0.68873473  1
  Zn  Zn102  1  0.30641444  0.30583516  0.32114965  1
  Zn  Zn103  1  0.31476604  0.31585164  0.80671237  1
  Zn  Zn104  1  0.31007908  0.81708715  0.31432555  1
  Zn  Zn105  1  0.32767880  0.80384180  0.82097878  1
  Zn  Zn106  1  0.81798397  0.31247842  0.31351748  1
  Zn  Zn107  1  0.81292663  0.30650382  0.80999405  1
  Zn  Zn108  1  0.81080009  0.81071168  0.31041004  1
  Zn  Zn109  1  0.81187811  0.81213554  0.81176155  1
  Zn  Zn110  1  0.19299855  0.44057147  0.44635396  1
  Zn  Zn111  1  0.19424270  0.44517407  0.94273565  1
  Zn  Zn112  1  0.17792334  0.94607459  0.42953108  1
  Zn  Zn113  1  0.18971360  0.93795866  0.93307008  1
  Zn  Zn114  1  0.68843791  0.43605473  0.43668344  1
  Zn  Zn115  1  0.69440464  0.43219946  0.93661935  1
  Zn  Zn116  1  0.68123633  0.93033688  0.43973926  1
  Zn  Zn117  1  0.65935945  0.89868178  0.95357677  1
  Zn  Zn118  1  0.30433152  0.06214853  0.06705150  1
  Zn  Zn119  1  0.29867294  0.04801139  0.57174754  1
  Zn  Zn120  1  0.31252117  0.56753392  0.06449915  1
  Zn  Zn121  1  0.31617670  0.56202155  0.56054286  1
  Zn  Zn122  1  0.81768010  0.06547910  0.07051355  1
  Zn  Zn123  1  0.82144784  0.06426923  0.58204695  1
  Zn  Zn124  1  0.80419166  0.55838172  0.05967875  1
  Zn  Zn125  1  0.80910181  0.55982163  0.56027568  1
  Zn  Zn126  1  0.44254236  0.44188216  0.19032573  1
  Zn  Zn127  1  0.43375770  0.43592461  0.68931263  1
  Zn  Zn128  1  0.43220649  0.93363393  0.19212093  1
  Zn  Zn129  1  0.42660460  0.94031939  0.67983237  1
  Zn  Zn130  1  0.94500705  0.43330368  0.18733928  1
  Zn  Zn131  1  0.94225928  0.43393457  0.69149018  1
  Zn  Zn132  1  0.94433819  0.93893104  0.18373575  1
  Zn  Zn133  1  0.93836068  0.93404524  0.68916094  1
  Zn  Zn134  1  0.08794169  0.06556039  0.32372706  1
  Zn  Zn135  1  0.05666268  0.05782168  0.80896748  1
  Zn  Zn136  1  0.06406683  0.56105973  0.31036481  1
  Zn  Zn137  1  0.05636697  0.56406579  0.81603691  1
  Zn  Zn138  1  0.56310062  0.05924805  0.30826128  1
  Zn  Zn139  1  0.57877233  0.01645784  0.83520491  1
  Zn  Zn140  1  0.56421997  0.56567748  0.30718048  1
  Zn  Zn141  1  0.56003247  0.56243835  0.80572302  1
  Zn  Zn142  1  0.43921977  0.18805212  0.43581815  1
  Zn  Zn143  1  0.43489251  0.18557460  0.93759601  1
  Zn  Zn144  1  0.43524138  0.68503001  0.44563583  1
  Zn  Zn145  1  0.45381048  0.70037741  0.94107144  1
  Zn  Zn146  1  0.95542136  0.19399714  0.42212435  1
  Zn  Zn147  1  0.93778455  0.19947938  0.90396190  1
  Zn  Zn148  1  0.93857021  0.68667679  0.43745463  1
  Zn  Zn149  1  0.93604894  0.68263591  0.93896234  1
  Zn  Zn150  1  0.06053431  0.32150960  0.05779636  1
  Zn  Zn151  1  0.05625600  0.31313504  0.58499042  1
  Zn  Zn152  1  0.05469095  0.80752793  0.05694217  1
  Zn  Zn153  1  0.05998465  0.81515423  0.55767434  1
  Zn  Zn154  1  0.56867282  0.30789276  0.06236243  1
  Zn  Zn155  1  0.56153534  0.30920032  0.56108969  1
  Zn  Zn156  1  0.55589439  0.80777054  0.06416577  1
  Zn  Zn157  1  0.56268449  0.81439871  0.55927502  1
  O  O158  1  0.11520309  0.12401593  0.10796807  1
  O  O159  1  0.12754149  0.10650297  0.62414067  1
  O  O160  1  0.13071885  0.61371261  0.14037017  1
  O  O161  1  0.11794123  0.62400943  0.61913368  1
  O  O162  1  0.61864603  0.11793623  0.12030026  1
  O  O163  1  0.61685946  0.12067642  0.61326605  1
  O  O164  1  0.63417606  0.60240160  0.13410586  1
  O  O165  1  0.61594027  0.61795317  0.61901071  1
  O  O166  1  0.38143776  0.36577236  0.38979490  1
  O  O167  1  0.38139564  0.38548536  0.88247336  1
  O  O168  1  0.38913669  0.86677288  0.38310252  1
  O  O169  1  0.37766816  0.88375339  0.88557443  1
  O  O170  1  0.86824374  0.38542644  0.38926487  1
  O  O171  1  0.85851635  0.39242975  0.87451021  1
  O  O172  1  0.88108608  0.87105946  0.38067970  1
  O  O173  1  0.87068161  0.87267806  0.89246586  1
  O  O174  1  0.19439477  0.03289432  0.35920404  1
  O  O175  1  0.26352225  -0.00892779  0.86128348  1
  O  O176  1  0.25230360  0.49915875  0.36342892  1
  O  O177  1  0.26301798  0.51614150  0.87929626  1
  O  O178  1  0.74087060  -0.00478147  0.36293026  1
  O  O179  1  0.74408954  0.00842100  0.86092745  1
  O  O180  1  0.76101187  0.50656136  0.38108092  1
  O  O181  1  0.75426839  0.50740359  0.86512806  1
  O  O182  1  0.24767579  0.49552143  0.13462173  1
  O  O183  1  0.24421461  0.49788906  0.62654109  1
  O  O184  1  0.24160279  0.98990563  0.12010808  1
  O  O185  1  0.24065741  0.98239150  0.63993941  1
  O  O186  1  0.74124048  0.47873314  0.11801542  1
  O  O187  1  0.74061711  0.49191248  0.63170792  1
  O  O188  1  0.74120900  0.99183856  0.13584226  1
  O  O189  1  0.74206143  1.00547275  0.63682734  1
  O  O190  1  0.02355693  0.37439458  0.24960223  1
  O  O191  1  -0.00565298  0.37227957  0.77028089  1
  O  O192  1  -0.00213621  0.86174478  0.26010369  1
  O  O193  1  -0.01599320  0.87500479  0.77177112  1
  O  O194  1  0.50786062  0.36548604  0.25550926  1
  O  O195  1  0.50465448  0.36698705  0.75543743  1
  O  O196  1  0.50315909  0.87842375  0.26594471  1
  O  O197  1  0.49956753  0.87493557  0.73608741  1
  O  O198  1  0.49416057  0.13303308  0.24279351  1
  O  O199  1  0.49237258  0.12773376  0.73572859  1
  O  O200  1  0.48667070  0.62007261  0.24269268  1
  O  O201  1  0.49783629  0.62315094  0.73066511  1
  O  O202  1  1.02468681  0.14736782  0.25549948  1
  O  O203  1  1.00080848  0.13876104  0.75408806  1
  O  O204  1  0.99288873  0.63451789  0.25389474  1
  O  O205  1  0.98761656  0.61995124  0.73786831  1
  O  O206  1  0.36927984  0.25874736  0.00476280  1
  O  O207  1  0.37913078  0.25316586  0.51081560  1
  O  O208  1  0.37293742  0.76383766  0.01050004  1
  O  O209  1  0.37729694  0.76251441  0.50750299  1
  O  O210  1  0.86345729  0.24166901  -0.00797563  1
  O  O211  1  0.86617404  0.25957401  0.48851111  1
  O  O212  1  0.87015315  0.76161066  0.01253958  1
  O  O213  1  0.86527406  0.75284202  0.50588350  1
  O  O214  1  0.12403717  0.27793172  0.49849646  1
  O  O215  1  0.13401498  0.24230893  1.00512108  1
  O  O216  1  0.11553954  0.74191324  0.48668783  1
  O  O217  1  0.13941121  0.75150701  1.00467976  1
  O  O218  1  0.63449750  0.24153371  0.49439884  1
  O  O219  1  0.63164535  0.23450682  0.99554305  1
  O  O220  1  0.63527341  0.73723574  0.50563880  1
  O  O221  1  0.63137964  0.79091747  0.98620544  1
  O  O222  1  0.49852230  0.24200326  0.13399757  1
  O  O223  1  0.49212773  0.24064913  0.62767943  1
  O  O224  1  0.48173998  0.75597709  0.13240895  1
  O  O225  1  0.49962970  0.74038263  0.62202536  1
  O  O226  1  1.01046409  0.25801977  0.14024228  1
  O  O227  1  0.97574855  0.26338350  0.64367170  1
  O  O228  1  0.98241859  0.75158882  0.13162094  1
  O  O229  1  0.98681989  0.73783130  0.61538330  1
  O  O230  1  0.02244113  0.26894437  0.36267781  1
  O  O231  1  0.02799166  0.26889145  0.88211314  1
  O  O232  1  0.00002819  0.75444620  0.36627222  1
  O  O233  1  -0.00829053  0.76090389  0.88086097  1
  O  O234  1  0.51143206  0.25692217  0.36799280  1
  O  O235  1  0.50448574  0.25223989  0.86940174  1
  O  O236  1  0.50408908  0.75485764  0.37768470  1
  O  O237  1  0.49383986  0.76322234  0.85652722  1
  O  O238  1  0.25782612  0.12486293  0.50326600  1
  O  O239  1  0.24102639  0.13731496  1.00154434  1
  O  O240  1  0.23634309  0.61840960  0.49927248  1
  O  O241  1  0.25529977  0.63502319  0.98967319  1
  O  O242  1  0.74666536  0.12896708  0.50308397  1
  O  O243  1  0.74364440  0.12818388  0.99635585  1
  O  O244  1  0.74219339  0.62870946  0.49367363  1
  O  O245  1  0.74630154  0.62328451  0.98329370  1
  O  O246  1  0.26254616  0.37422029  0.00849098  1
  O  O247  1  0.26848567  0.38100780  0.51112000  1
  O  O248  1  0.25805591  0.85960533  -0.00835463  1
  O  O249  1  0.26404237  0.88139799  0.47807332  1
  O  O250  1  0.74772402  0.35593966  0.00865922  1
  O  O251  1  0.75555995  0.36583450  0.50670225  1
  O  O252  1  0.76215679  0.88658353  0.01306044  1
  O  O253  1  0.75525688  0.86244513  0.49742188  1
  O  O254  1  0.13950931  0.49313228  0.24734733  1
  O  O255  1  0.12554027  0.51232998  0.73541957  1
  O  O256  1  0.10210837  0.97901024  0.24020364  1
  O  O257  1  0.12003420  0.99671230  0.73992479  1
  O  O258  1  0.62468450  0.48374534  0.24131884  1
  O  O259  1  0.63338024  0.49129645  0.74134679  1
  O  O260  1  0.63184345  0.99110183  0.24248536  1
  O  O261  1  0.63338923  1.01250829  0.73447751  1
  O  O262  1  0.37367194  0.01489585  0.24738280  1
  O  O263  1  0.37210217  0.01304920  0.75419100  1
  O  O264  1  0.36759335  0.51194683  0.24635786  1
  O  O265  1  0.37704965  0.50468524  0.76398434  1
  O  O266  1  0.85646747  -0.01059929  0.24788601  1
  O  O267  1  0.86123779  0.01148157  0.73657230  1
  O  O268  1  0.88612149  0.49595232  0.26536627  1
  O  O269  1  0.86366728  0.50702386  0.75101657  1
  O  O270  1  0.14037737  0.37277235  0.36476541  1
  O  O271  1  0.13034144  0.39606299  0.86294373  1
  O  O272  1  0.10741750  0.86207479  0.37078509  1
  O  O273  1  0.10920608  0.87247619  0.88207172  1
  O  O274  1  0.62104925  0.36647847  0.36921916  1
  O  O275  1  0.62315808  0.36472827  0.86909003  1
  O  O276  1  0.61119383  0.87334127  0.36817238  1
  O  O277  1  0.60481879  0.90190871  0.85566456  1
  O  O278  1  0.38309582  0.13050000  0.13060560  1
  O  O279  1  0.37984995  0.12770545  0.63258669  1
  O  O280  1  0.37769070  0.63812313  0.13108341  1
  O  O281  1  0.38681713  0.63727042  0.61546823  1
  O  O282  1  0.88700363  0.12006190  0.13984847  1
  O  O283  1  0.91922660  0.13032233  0.58473628  1
  O  O284  1  0.85816080  0.63858620  0.12383069  1
  O  O285  1  0.87902549  0.62758380  0.62854416  1
  O  O286  1  0.25669936  0.26442697  0.11667539  1
  O  O287  1  0.25853023  0.26063300  0.63162521  1
  O  O288  1  0.26131242  0.74418076  0.11081515  1
  O  O289  1  0.25731654  0.74239235  0.61377276  1
  O  O290  1  0.74989500  0.25360481  0.11247746  1
  O  O291  1  0.74655076  0.25631132  0.61511828  1
  O  O292  1  0.75534233  0.76008081  0.12278619  1
  O  O293  1  0.75780539  0.74692051  0.61398283  1
  O  O294  1  0.22748930  0.23780537  0.37231260  1
  O  O295  1  0.25461823  0.26331245  0.88785211  1
  O  O296  1  0.22937474  0.75242434  0.37157997  1
  O  O297  1  0.25874048  0.73643780  0.88719983  1
  O  O298  1  0.73943631  0.25434282  0.38265464  1
  O  O299  1  0.74395696  0.23546116  0.88522698  1
  O  O300  1  0.75616099  0.73694772  0.38462934  1
  O  O301  1  0.75526289  0.73327858  0.87334894  1
  O  O302  1  0.00455483  0.11678404  -0.00922992  1
  O  O303  1  -0.03341424  0.12289209  0.52426863  1
  O  O304  1  -0.00649394  0.61712094  0.00452113  1
  O  O305  1  0.00426007  0.61553064  0.51048823  1
  O  O306  1  0.50727144  0.12998303  0.01267559  1
  O  O307  1  0.50532228  0.11957815  0.50736489  1
  O  O308  1  0.51138039  0.63732736  0.01239257  1
  O  O309  1  0.51105457  0.62558378  0.51017170  1
  O  O310  1  0.49103193  0.36909422  0.49280357  1
  O  O311  1  0.49112053  0.36665619  0.99539166  1
  O  O312  1  0.49904477  0.87965346  0.48551449  1
  O  O313  1  0.48076489  0.88426534  1.00960340  1
  O  O314  1  0.98825323  0.38642535  0.51274106  1
  O  O315  1  1.01355346  0.39107889  0.98025517  1
  O  O316  1  0.98500507  0.86897074  0.48484519  1
  O  O317  1  0.98714028  0.87965347  0.99402401  1
  O  O318  1  0.50506217  0.48365656  0.36719260  1
  O  O319  1  0.49861686  0.49299794  0.87775806  1
  O  O320  1  0.50192774  1.00069342  0.38691339  1
  O  O321  1  0.47377286  1.01237293  0.87570610  1
  O  O322  1  0.99405829  0.50544287  0.38915828  1
  O  O323  1  0.98325890  0.49294666  0.86973503  1
  O  O324  1  1.00174274  0.98340169  0.36806860  1
  O  O325  1  0.99962283  0.98815629  0.89009775  1
  O  O326  1  0.00812645  -0.00510374  0.10474563  1
  O  O327  1  0.00571857  -0.00458633  0.62518948  1
  O  O328  1  0.02024640  0.49425262  0.12763803  1
  O  O329  1  0.00677995  0.50702549  0.61886123  1
  O  O330  1  0.50821845  0.00940242  0.13560771  1
  O  O331  1  0.50533945  0.00677465  0.61434268  1
  O  O332  1  0.51732579  0.49612315  0.12054375  1
  O  O333  1  0.51058146  0.50268819  0.62890341  1
  O  O334  1  0.25147212  0.38557691  0.24522795  1
  O  O335  1  0.26313309  0.38523853  0.73314283  1
  O  O336  1  0.22783268  0.87352245  0.25904882  1
  O  O337  1  0.22192917  0.83983988  0.75759123  1
  O  O338  1  0.74299541  0.35842930  0.23487629  1
  O  O339  1  0.74624973  0.37692295  0.74238255  1
  O  O340  1  0.73990862  0.87982391  0.24449050  1
  O  O341  1  0.75790812  0.89216406  0.74853150  1
  O  O342  1  0.26607072  0.13642120  0.23814198  1
  O  O343  1  0.26108479  0.13045212  0.74674868  1
  O  O344  1  0.26109993  0.61483820  0.24973485  1
  O  O345  1  0.25744258  0.62601950  0.76788348  1
  O  O346  1  0.74716541  0.10830347  0.24687550  1
  O  O347  1  0.74927603  0.12231315  0.76486385  1
  O  O348  1  0.75488017  0.62629584  0.26489444  1
  O  O349  1  0.75398580  0.61602842  0.75207657  1
  O  O350  1  0.37485330  0.13401961  0.35739760  1
  O  O351  1  0.37075000  0.12460564  0.86239847  1
  O  O352  1  0.38001904  0.63360708  0.36060632  1
  O  O353  1  0.38535506  0.61748549  0.87907721  1
  O  O354  1  0.88316869  0.13175402  0.36281031  1
  O  O355  1  0.85983933  0.11253193  0.88654588  1
  O  O356  1  0.86692911  0.61406552  0.37881609  1
  O  O357  1  0.86564792  0.61456685  0.86286480  1
  O  O358  1  0.14053783  0.38463467  0.13489263  1
  O  O359  1  0.13732294  0.39002690  0.61880966  1
  O  O360  1  0.11708252  0.85782112  0.14124042  1
  O  O361  1  0.11618369  0.87991439  0.62653676  1
  O  O362  1  0.63178756  0.37734945  0.13158096  1
  O  O363  1  0.63250056  0.37792505  0.62737424  1
  O  O364  1  0.62915097  0.88199763  0.13274944  1
  O  O365  1  0.63014247  0.89084616  0.61225015  1
  O  O366  1  0.13040108  0.26808179  0.24784616  1
  O  O367  1  0.10529214  0.25870964  0.73825421  1
  O  O368  1  0.11390269  0.75261754  0.26097170  1
  O  O369  1  0.16464116  0.79049473  0.74929102  1
  O  O370  1  0.61831941  0.25349703  0.25570550  1
  O  O371  1  0.62009188  0.25068436  0.75378383  1
  O  O372  1  0.62479538  0.76159349  0.24031422  1
  O  O373  1  0.62653773  0.76711559  0.74930797  1
  O  O374  1  0.38569357  0.25071175  0.24534599  1
  O  O375  1  0.37991350  0.23954094  0.74191972  1
  O  O376  1  0.36022644  0.74024741  0.23968205  1
  O  O377  1  0.36888140  0.75179577  0.72747371  1
  O  O378  1  0.90189893  0.25838285  0.25841258  1
  O  O379  1  0.90122112  0.24336532  0.79577323  1
  O  O380  1  0.87667976  0.74833473  0.23669492  1
  O  O381  1  0.86414769  0.73821216  0.73576525  1
  O  O382  1  0.38389236  0.48834942  0.50228367  1
  O  O383  1  0.38068321  0.49274212  0.99545983  1
  O  O384  1  0.38496457  0.98258324  0.50862213  1
  O  O385  1  0.36138663  0.99069761  0.99007415  1
  O  O386  1  0.88134776  0.49431681  0.49469910  1
  O  O387  1  0.87165735  0.50165497  0.98595486  1
  O  O388  1  0.85825935  0.98708871  0.50005149  1
  O  O389  1  0.88532443  0.99063513  1.00671005  1
  O  O390  1  0.11818490  0.01155699  -0.00331124  1
  O  O391  1  0.12492963  -0.00638580  0.51831835  1
  O  O392  1  0.13586757  0.50571303  0.02037617  1
  O  O393  1  0.11799850  0.50809688  0.50698349  1
  O  O394  1  0.63019246  0.00471014  0.01461009  1
  O  O395  1  0.61913441  0.00866573  0.50509873  1
  O  O396  1  0.62637554  0.48954407  0.01103747  1
  O  O397  1  0.63259641  0.50746381  0.51030141  1
  O  O398  1  0.37233060  0.37464785  0.11957809  1
  O  O399  1  0.37451050  0.36701089  0.61433464  1
  O  O400  1  0.36976456  0.86740028  0.11977057  1
  O  O401  1  0.37193683  0.86416075  0.60925560  1
  O  O402  1  0.86301988  0.37776087  0.12825446  1
  O  O403  1  0.86095666  0.38553588  0.61630989  1
  O  O404  1  0.86660651  0.86736109  0.12086193  1
  O  O405  1  0.87257244  0.86423067  0.61417378  1
  O  O406  1  0.09416512  0.14955535  0.41444265  1
  O  O407  1  0.12343816  0.12337707  0.88831148  1
  O  O408  1  0.11738711  0.63622886  0.38204894  1
  O  O409  1  0.13584294  0.62229701  0.87527080  1
  O  O410  1  0.61794263  0.13354168  0.38558932  1
  O  O411  1  0.62809475  0.11921180  0.88747871  1
  O  O412  1  0.63449968  0.61351588  0.38418187  1
  O  O413  1  0.63772042  0.62119722  0.86423876  1
