# generated using pymatgen
data_V79Zn79O256
_symmetry_space_group_name_H-M   'P 1'
_cell_length_a   16.87581282
_cell_length_b   16.90806827
_cell_length_c   16.90274433
_cell_angle_alpha   90.06681352
_cell_angle_beta   89.94653604
_cell_angle_gamma   90.19421153
_symmetry_Int_Tables_number   1
_chemical_formula_structural   V79Zn79O256
_chemical_formula_sum   'V79 Zn79 O256'
_cell_volume   4822.95197059
_cell_formula_units_Z   1
loop_
 _symmetry_equiv_pos_site_id
 _symmetry_equiv_pos_as_xyz
  1  'x, y, z'
loop_
 _atom_site_type_symbol
 _atom_site_label
 _atom_site_symmetry_multiplicity
 _atom_site_fract_x
 _atom_site_fract_y
 _atom_site_fract_z
 _atom_site_occupancy
  V  V0  1  0.25103824  0.76324250  0.00625666  1
  V  V1  1  0.87367830  -0.00653285  0.37798729  1
  V  V2  1  0.61227416  0.61074894  0.00122989  1
  V  V3  1  0.37103648  0.49566144  0.36697273  1
  V  V4  1  0.00301942  0.87327881  0.37125811  1
  V  V5  1  0.61823903  0.25851015  0.84968869  1
  V  V6  1  0.37667032  0.12527028  0.25966772  1
  V  V7  1  0.13773740  0.12723476  0.48950139  1
  V  V8  1  0.75648339  0.74814430  0.00717177  1
  V  V9  1  0.74656134  -0.00401913  0.25034106  1
  V  V10  1  0.86290468  0.24944086  0.12150481  1
  V  V11  1  0.50397858  0.76112278  0.75115894  1
  V  V12  1  0.63573843  0.74529241  0.37391973  1
  V  V13  1  0.61014140  0.25336223  0.36770018  1
  V  V14  1  0.75026002  0.37468988  0.62749013  1
  V  V15  1  -0.00144448  -0.00204616  0.49688680  1
  V  V16  1  0.61941808  0.38602840  0.25093347  1
  V  V17  1  0.11207345  0.51622082  0.63268181  1
  V  V18  1  0.87766930  0.11928211  0.75343473  1
  V  V19  1  0.12848693  0.62362779  0.00438733  1
  V  V20  1  0.00242041  0.13013131  0.62653649  1
  V  V21  1  0.62103404  0.76117021  0.87266332  1
  V  V22  1  0.12981028  0.38092796  0.23972761  1
  V  V23  1  0.88085772  0.24763200  0.62934135  1
  V  V24  1  0.49832663  0.13152812  0.63501551  1
  V  V25  1  0.00176042  0.25115166  0.25829813  1
  V  V26  1  0.36494958  0.26765603  0.63144964  1
  V  V27  1  0.63641471  0.62958964  0.49815334  1
  V  V28  1  0.62431290  -0.00945179  0.62715434  1
  V  V29  1  0.75037666  0.12722213  0.87807964  1
  V  V30  1  0.38332185  0.75270169  0.13443381  1
  V  V31  1  0.62768913  0.49650439  0.62538502  1
  V  V32  1  0.13061524  -0.00140692  0.63540263  1
  V  V33  1  0.49557665  0.61805275  0.13712142  1
  V  V34  1  0.38525026  0.00051533  0.86694425  1
  V  V35  1  0.43485770  0.43650374  0.92512649  1
  V  V36  1  0.25574079  0.00099939  0.27010131  1
  V  V37  1  0.62355149  0.12533764  0.49842541  1
  V  V38  1  -0.00996352  -0.00962036  -0.00187055  1
  V  V39  1  0.00398760  0.35952930  0.87288473  1
  V  V40  1  0.74951019  0.12362483  0.37414963  1
  V  V41  1  0.75890282  0.86778473  0.12685143  1
  V  V42  1  0.74465580  0.39535816  0.12927596  1
  V  V43  1  0.88188165  0.62674679  0.73808352  1
  V  V44  1  0.62811180  0.14299889  0.00179351  1
  V  V45  1  0.00263192  0.12588153  0.12561024  1
  V  V46  1  0.11649641  0.76670330  0.87522612  1
  V  V47  1  0.00076241  0.51332575  0.49477379  1
  V  V48  1  0.49441042  0.86503193  0.37551252  1
  V  V49  1  0.25405334  0.25312656  -0.00982578  1
  V  V50  1  -0.01054127  0.62785914  0.12669862  1
  V  V51  1  0.39978156  0.88057439  -0.00425511  1
  V  V52  1  0.87798590  0.49975426  0.87634648  1
  V  V53  1  0.12883754  0.13004401  -0.00648611  1
  V  V54  1  0.13805635  -0.00474152  0.12373165  1
  V  V55  1  0.37054750  0.87974801  0.49810783  1
  V  V56  1  0.89596935  0.37031217  0.49435575  1
  V  V57  1  0.74630131  0.62007458  0.87536334  1
  V  V58  1  0.76299142  0.86353154  0.61006230  1
  V  V59  1  0.75342244  0.25195124  0.49490836  1
  V  V60  1  -0.00600895  0.76374519  0.74793593  1
  V  V61  1  0.48690706  0.48515687  0.50094811  1
  V  V62  1  0.61497133  0.86984703  0.24968655  1
  V  V63  1  0.37120443  0.75150857  0.62383286  1
  V  V64  1  0.49683854  0.00039459  0.49364333  1
  V  V65  1  0.87387960  0.12410793  0.25097555  1
  V  V66  1  0.36870492  0.62612172  0.75463814  1
  V  V67  1  0.11799055  0.36105306  0.74485974  1
  V  V68  1  0.86650706  0.50015421  0.36791224  1
  V  V69  1  0.37866753  0.25308538  0.12031944  1
  V  V70  1  0.49724067  0.62377204  0.62378185  1
  V  V71  1  0.49729555  0.11805921  0.11811817  1
  V  V72  1  0.14438633  0.25356194  0.37114624  1
  V  V73  1  0.24725020  0.87946343  0.63934426  1
  V  V74  1  0.62156905  -0.00536593  0.10808092  1
  V  V75  1  0.00617259  0.49812705  0.00494824  1
  V  V76  1  0.74728751  -0.00724774  0.74715850  1
  V  V77  1  0.24794378  0.49650894  0.74833336  1
  V  V78  1  -0.00756473  0.74999308  0.24534257  1
  Zn  Zn79  1  0.31476702  0.33849859  0.47962053  1
  Zn  Zn80  1  0.12481294  0.74308726  0.37231103  1
  Zn  Zn81  1  0.24574991  0.11674559  0.86041817  1
  Zn  Zn82  1  0.24192546  0.74956020  0.49942957  1
  Zn  Zn83  1  0.25160467  0.38407029  0.11263329  1
  Zn  Zn84  1  0.84809540  0.62182982  0.25002322  1
  Zn  Zn85  1  0.86694585  0.36819565  -0.00477929  1
  Zn  Zn86  1  0.92054222  -0.06806955  0.84847538  1
  Zn  Zn87  1  0.36687723  0.12482782  0.75023187  1
  Zn  Zn88  1  0.12409278  0.63315556  0.50059100  1
  Zn  Zn89  1  0.24654339  0.62694510  0.87687746  1
  Zn  Zn90  1  0.75003196  0.49511234  0.75196364  1
  Zn  Zn91  1  0.13568169  0.86769413  0.24456200  1
  Zn  Zn92  1  0.25189370  0.51661376  0.23671645  1
  Zn  Zn93  1  0.25104777  0.63025426  0.37166532  1
  Zn  Zn94  1  0.19589335  0.18552834  0.18408377  1
  Zn  Zn95  1  0.19390526  0.18748575  0.68129931  1
  Zn  Zn96  1  0.18460874  0.68496424  0.18689381  1
  Zn  Zn97  1  0.18222175  0.69418009  0.69106509  1
  Zn  Zn98  1  0.68116676  0.18419462  0.19006949  1
  Zn  Zn99  1  0.69045258  0.18207740  0.68448724  1
  Zn  Zn100  1  0.67925259  0.67861052  0.18658270  1
  Zn  Zn101  1  0.68927459  0.68522082  0.68887939  1
  Zn  Zn102  1  0.32103433  0.31741130  0.30203081  1
  Zn  Zn103  1  0.31234089  0.30773998  0.80638370  1
  Zn  Zn104  1  0.30742444  0.81376471  0.31258633  1
  Zn  Zn105  1  0.31261688  0.81362735  0.82054136  1
  Zn  Zn106  1  0.81283635  0.31875140  0.30976286  1
  Zn  Zn107  1  0.81156785  0.30867700  0.81310786  1
  Zn  Zn108  1  0.81228306  0.80852125  0.31162100  1
  Zn  Zn109  1  0.80292774  0.80613950  0.80260972  1
  Zn  Zn110  1  0.18172501  0.45025302  0.42615089  1
  Zn  Zn111  1  0.18944379  0.43742233  0.92957091  1
  Zn  Zn112  1  0.18505169  0.93432899  0.44206625  1
  Zn  Zn113  1  0.19208835  0.94379335  0.93577686  1
  Zn  Zn114  1  0.68423617  0.43731191  0.43903564  1
  Zn  Zn115  1  0.68513090  0.42920369  0.94304220  1
  Zn  Zn116  1  0.68311573  0.93469509  0.43830794  1
  Zn  Zn117  1  0.73177284  0.92418638  0.92329951  1
  Zn  Zn118  1  0.31736147  0.06134402  0.05294432  1
  Zn  Zn119  1  0.31374391  0.06496426  0.56459395  1
  Zn  Zn120  1  0.32012918  0.56196025  0.05626498  1
  Zn  Zn121  1  0.30274755  0.55793319  0.56258103  1
  Zn  Zn122  1  0.80701733  0.06074640  0.06465203  1
  Zn  Zn123  1  0.81126378  0.06018009  0.56240539  1
  Zn  Zn124  1  0.81271224  0.56240815  0.05777078  1
  Zn  Zn125  1  0.81652112  0.56110827  0.55622489  1
  Zn  Zn126  1  0.44166492  0.43544584  0.18117377  1
  Zn  Zn127  1  0.44408065  0.43509215  0.71182132  1
  Zn  Zn128  1  0.43264304  0.93799790  0.18502151  1
  Zn  Zn129  1  0.43821108  0.94091790  0.68568305  1
  Zn  Zn130  1  0.94153687  0.43300237  0.18846816  1
  Zn  Zn131  1  0.93866246  0.43533412  0.68603749  1
  Zn  Zn132  1  0.94024000  0.93940125  0.18693100  1
  Zn  Zn133  1  0.93703043  0.93804949  0.67783762  1
  Zn  Zn134  1  0.06657938  0.06277350  0.30989683  1
  Zn  Zn135  1  0.05996366  0.06247821  0.81427064  1
  Zn  Zn136  1  0.05988335  0.56254265  0.31369597  1
  Zn  Zn137  1  0.06088535  0.57011166  0.81970311  1
  Zn  Zn138  1  0.55816385  0.06090730  0.30797363  1
  Zn  Zn139  1  0.56742915  0.05944720  0.81963140  1
  Zn  Zn140  1  0.55685744  0.56073284  0.31818127  1
  Zn  Zn141  1  0.55744741  0.54804794  0.80966824  1
  Zn  Zn142  1  0.43315410  0.19075308  0.44704885  1
  Zn  Zn143  1  0.44311540  0.18771365  0.93251986  1
  Zn  Zn144  1  0.43504474  0.68189283  0.43660081  1
  Zn  Zn145  1  0.43715974  0.68934846  0.93697494  1
  Zn  Zn146  1  0.94099372  0.18255826  0.43960603  1
  Zn  Zn147  1  0.93593386  0.18000316  0.94089530  1
  Zn  Zn148  1  0.92920147  0.68907804  0.43278294  1
  Zn  Zn149  1  0.93870482  0.68766043  0.93549994  1
  Zn  Zn150  1  0.06095919  0.31123922  0.06144421  1
  Zn  Zn151  1  0.11602864  0.33566511  0.54312617  1
  Zn  Zn152  1  0.05959463  0.81183688  0.06384160  1
  Zn  Zn153  1  0.05683390  0.81387303  0.56125807  1
  Zn  Zn154  1  0.55633273  0.32494908  0.06172594  1
  Zn  Zn155  1  0.56460648  0.30943302  0.56421208  1
  Zn  Zn156  1  0.56871103  0.80291261  0.06121249  1
  Zn  Zn157  1  0.56249453  0.81044834  0.56105198  1
  O  O158  1  0.11915912  0.11729680  0.11833449  1
  O  O159  1  0.11987750  0.11858023  0.61322911  1
  O  O160  1  0.11261592  0.62984047  0.11002245  1
  O  O161  1  0.11745161  0.61872513  0.62665450  1
  O  O162  1  0.62033650  0.11486870  0.11913968  1
  O  O163  1  0.61622944  0.11760379  0.61657576  1
  O  O164  1  0.60803801  0.63234838  0.10971314  1
  O  O165  1  0.61885878  0.62209924  0.61312424  1
  O  O166  1  0.36363824  0.38493049  0.38491231  1
  O  O167  1  0.37323075  0.37366682  0.87271538  1
  O  O168  1  0.38115460  0.86934165  0.38862903  1
  O  O169  1  0.37483487  0.88381828  0.88761785  1
  O  O170  1  0.87586123  0.38067675  0.38589153  1
  O  O171  1  0.88390907  0.38004379  0.87379943  1
  O  O172  1  0.88278485  0.88739392  0.36772842  1
  O  O173  1  0.83172649  0.87897314  0.88308496  1
  O  O174  1  0.24685900  0.00352302  0.36884183  1
  O  O175  1  0.27134901  0.00640123  0.89006997  1
  O  O176  1  0.26001816  0.50233391  0.36251504  1
  O  O177  1  0.23460368  0.51041733  0.85323399  1
  O  O178  1  0.75464661  0.00251121  0.37183057  1
  O  O179  1  0.73631502  0.01750950  0.85871815  1
  O  O180  1  0.76739190  0.49500079  0.38533235  1
  O  O181  1  0.75972683  0.50241077  0.87560880  1
  O  O182  1  0.26869241  0.49358908  0.12896020  1
  O  O183  1  0.22694849  0.50374416  0.63760028  1
  O  O184  1  0.23815904  1.00201353  0.11714156  1
  O  O185  1  0.23738067  0.99608514  0.62113179  1
  O  O186  1  0.75641409  0.49402398  0.13260310  1
  O  O187  1  0.74557211  0.48982382  0.61770381  1
  O  O188  1  0.74068158  0.98879158  0.13086169  1
  O  O189  1  0.74218051  0.99586120  0.62765965  1
  O  O190  1  0.01356315  0.35844380  0.24010724  1
  O  O191  1  0.00439874  0.37555496  0.76272644  1
  O  O192  1  -0.00025921  0.86789441  0.25441437  1
  O  O193  1  -0.02149452  0.86733090  0.76279720  1
  O  O194  1  0.52015409  0.37188182  0.23809178  1
  O  O195  1  0.50125422  0.43972566  0.80856145  1
  O  O196  1  0.50597056  0.88386517  0.26211958  1
  O  O197  1  0.49935949  0.85997088  0.74195574  1
  O  O198  1  0.48626819  0.11795340  0.23654211  1
  O  O199  1  0.50192784  0.11652375  0.73479081  1
  O  O200  1  0.50701279  0.62365593  0.23683396  1
  O  O201  1  0.49021572  0.62848148  0.73686179  1
  O  O202  1  0.99562749  0.12803518  0.24190269  1
  O  O203  1  0.99049244  0.11716566  0.73853930  1
  O  O204  1  1.00395675  0.62801364  0.23349328  1
  O  O205  1  0.98642932  0.63723942  0.75804982  1
  O  O206  1  0.36302569  0.24016565  0.00732738  1
  O  O207  1  0.38011498  0.25589892  0.52050627  1
  O  O208  1  0.36473163  0.76219133  -0.00451307  1
  O  O209  1  0.37867070  0.75942418  0.51388506  1
  O  O210  1  0.88218760  0.24939895  0.01816879  1
  O  O211  1  0.87178454  0.25184762  0.50546491  1
  O  O212  1  0.85495251  0.74007472  -0.00331050  1
  O  O213  1  0.87183457  0.75473457  0.49871922  1
  O  O214  1  0.11893788  0.23682188  0.48249096  1
  O  O215  1  0.13260743  0.23566564  1.00548858  1
  O  O216  1  0.12173828  0.75083821  0.49638942  1
  O  O217  1  0.13308930  0.74846349  0.99631008  1
  O  O218  1  0.63522444  0.24690813  0.48898571  1
  O  O219  1  0.62807043  0.24237495  1.00949227  1
  O  O220  1  0.62005922  0.73784508  0.49128456  1
  O  O221  1  0.63018021  0.73643764  0.98491227  1
  O  O222  1  0.48554707  0.23960680  0.11534898  1
  O  O223  1  0.50186527  0.23430506  0.62285454  1
  O  O224  1  0.48987764  0.74321827  0.12256856  1
  O  O225  1  0.49385290  0.74260153  0.63040160  1
  O  O226  1  0.99517971  0.23835154  0.13239511  1
  O  O227  1  0.99090554  0.23558427  0.61705928  1
  O  O228  1  0.99682386  0.73715948  0.12737279  1
  O  O229  1  1.00465580  0.76203163  0.64908109  1
  O  O230  1  0.00280488  0.23991438  0.36102548  1
  O  O231  1  -0.00452244  0.26101832  0.88037417  1
  O  O232  1  -0.00007080  0.76060810  0.36575500  1
  O  O233  1  0.00909145  0.75579764  0.87667500  1
  O  O234  1  0.51234606  0.24966252  0.38194775  1
  O  O235  1  0.51997253  0.24772868  0.87393832  1
  O  O236  1  0.50370967  0.76055628  0.38224743  1
  O  O237  1  0.51298589  0.74612214  0.86673430  1
  O  O238  1  0.23636249  0.12357907  0.50255594  1
  O  O239  1  0.23710238  0.13135545  1.00243372  1
  O  O240  1  0.24452573  0.62910591  0.49748270  1
  O  O241  1  0.24259291  0.63462283  0.99779397  1
  O  O242  1  0.74577567  0.13315749  0.49542392  1
  O  O243  1  0.74186484  0.11804751  0.98906635  1
  O  O244  1  0.73508125  0.62253705  0.50164296  1
  O  O245  1  0.73855890  0.63074866  0.99650922  1
  O  O246  1  0.23699371  0.35640050  -0.00416233  1
  O  O247  1  0.21543628  0.37794066  0.50398141  1
  O  O248  1  0.24855815  0.86366581  0.00337536  1
  O  O249  1  0.25875145  0.87607766  0.51048208  1
  O  O250  1  0.75239614  0.37765876  0.02282106  1
  O  O251  1  0.75966937  0.36406940  0.50627248  1
  O  O252  1  0.73831586  0.85582437  0.01443989  1
  O  O253  1  0.74510902  0.87689946  0.51076965  1
  O  O254  1  0.11907397  0.48113278  0.25383434  1
  O  O255  1  0.12122806  0.50470510  0.74204473  1
  O  O256  1  0.14030085  1.00812267  0.23785890  1
  O  O257  1  0.11894641  1.00528334  0.73346538  1
  O  O258  1  0.62596047  0.48430909  0.26766721  1
  O  O259  1  0.63408789  0.51447931  0.72855132  1
  O  O260  1  0.62964477  0.98838621  0.24699382  1
  O  O261  1  0.63413213  1.00859318  0.73708202  1
  O  O262  1  0.36484103  0.00923898  0.24841435  1
  O  O263  1  0.37671537  -0.00232549  0.76248000  1
  O  O264  1  0.38590487  0.48915026  0.26733811  1
  O  O265  1  0.35307331  0.51044944  0.73801166  1
  O  O266  1  0.86821925  0.00504784  0.25723069  1
  O  O267  1  0.86907165  0.00688938  0.74978051  1
  O  O268  1  0.88121333  0.49266876  0.26481771  1
  O  O269  1  0.87821246  0.51089514  0.75866937  1
  O  O270  1  0.12527485  0.35693496  0.35984637  1
  O  O271  1  0.10995108  0.37661421  0.86316369  1
  O  O272  1  0.11114575  0.88118446  0.36706681  1
  O  O273  1  0.12600550  0.86596748  0.88173042  1
  O  O274  1  0.63317345  0.36035781  0.36621917  1
  O  O275  1  0.64325649  0.35549731  0.87056699  1
  O  O276  1  0.61676478  0.86310822  0.37148542  1
  O  O277  1  0.63625957  0.85808255  0.87683028  1
  O  O278  1  0.38357246  0.12668653  0.12427015  1
  O  O279  1  0.38952577  0.12771920  0.62444003  1
  O  O280  1  0.38676290  0.64221871  0.11459576  1
  O  O281  1  0.37789385  0.63421668  0.63079451  1
  O  O282  1  0.88134507  0.13154884  0.13039882  1
  O  O283  1  0.88197635  0.12766142  0.62985997  1
  O  O284  1  0.88587824  0.61904627  0.12923270  1
  O  O285  1  0.87148638  0.62011022  0.63963188  1
  O  O286  1  0.26120117  0.24896229  0.11142349  1
  O  O287  1  0.26338131  0.26093641  0.62526391  1
  O  O288  1  0.26175109  0.74566173  0.11051504  1
  O  O289  1  0.25660455  0.75978230  0.62574458  1
  O  O290  1  0.76295132  0.23954882  0.12778301  1
  O  O291  1  0.75842350  0.25268281  0.61297647  1
  O  O292  1  0.74101091  0.75067127  0.11379619  1
  O  O293  1  0.74359413  0.76598305  0.63124604  1
  O  O294  1  0.24367996  0.25016283  0.36993548  1
  O  O295  1  0.25565440  0.23970258  0.88785299  1
  O  O296  1  0.24376557  0.75214451  0.38030626  1
  O  O297  1  0.23637161  0.75049409  0.88493446  1
  O  O298  1  0.75177841  0.24347719  0.38292406  1
  O  O299  1  0.74089866  0.23377366  0.86482069  1
  O  O300  1  0.73441008  0.75387050  0.37829561  1
  O  O301  1  0.73803524  0.73655849  0.88186546  1
  O  O302  1  0.01121105  0.12022448  0.00794557  1
  O  O303  1  0.00792952  0.11536743  0.50675568  1
  O  O304  1  0.00258373  0.61893000  0.00906477  1
  O  O305  1  -0.00419722  0.61427505  0.49977195  1
  O  O306  1  0.51328974  0.12562887  0.00981427  1
  O  O307  1  0.50362667  0.11578405  0.50528819  1
  O  O308  1  0.50969292  0.62699060  -0.00062173  1
  O  O309  1  0.50070254  0.61700363  0.51421806  1
  O  O310  1  0.50548998  0.38773951  0.50625010  1
  O  O311  1  0.49692743  0.38499437  0.98802977  1
  O  O312  1  0.49215076  0.88106334  0.49585710  1
  O  O313  1  0.49799534  0.86737302  0.99409098  1
  O  O314  1  0.99718992  0.37609519  0.50680732  1
  O  O315  1  1.00078871  0.38063086  0.98853097  1
  O  O316  1  1.00431021  0.89063406  0.48892737  1
  O  O317  1  0.99781066  0.89117500  1.00921333  1
  O  O318  1  0.48930836  0.50102346  0.39436580  1
  O  O319  1  0.48072016  0.53097119  0.89118333  1
  O  O320  1  0.50798491  0.98862584  0.38787824  1
  O  O321  1  0.48749151  1.00216219  0.87654047  1
  O  O322  1  0.99669676  0.49519225  0.39190348  1
  O  O323  1  0.99179949  0.49647190  0.88381557  1
  O  O324  1  0.99293892  0.99642756  0.37635149  1
  O  O325  1  1.00053883  1.00079387  0.89097297  1
  O  O326  1  0.00702201  0.01105957  0.12072581  1
  O  O327  1  0.01001255  0.00628455  0.61541694  1
  O  O328  1  -0.00461221  0.50732377  0.11313815  1
  O  O329  1  0.00508278  0.50118696  0.61682669  1
  O  O330  1  0.51005964  0.00618635  0.12732544  1
  O  O331  1  0.50644080  0.00625971  0.61505905  1
  O  O332  1  0.48664770  0.51928118  0.12027235  1
  O  O333  1  0.50728855  0.50490597  0.62009778  1
  O  O334  1  0.23590310  0.37246371  0.24374036  1
  O  O335  1  0.23045442  0.38857818  0.75671892  1
  O  O336  1  0.25122392  0.89599306  0.25135812  1
  O  O337  1  0.25416955  0.87208906  0.73842659  1
  O  O338  1  0.74027989  0.36692270  0.23603181  1
  O  O339  1  0.76321570  0.37694175  0.73142019  1
  O  O340  1  0.73750479  0.87498097  0.24552260  1
  O  O341  1  0.75143088  0.88847493  0.73328573  1
  O  O342  1  0.26404406  0.11230350  0.24422264  1
  O  O343  1  0.25086430  0.12098085  0.74761764  1
  O  O344  1  0.24892448  0.62744362  0.25490740  1
  O  O345  1  0.25310753  0.62132614  0.74797155  1
  O  O346  1  0.75304651  0.11610505  0.25503006  1
  O  O347  1  0.76100317  0.11495291  0.74915430  1
  O  O348  1  0.73835368  0.62807819  0.26094522  1
  O  O349  1  0.76279537  0.62404596  0.76014722  1
  O  O350  1  0.38341164  0.13446861  0.35841734  1
  O  O351  1  0.37735266  0.11335836  0.87358410  1
  O  O352  1  0.37334419  0.60248811  0.38520978  1
  O  O353  1  0.36841455  0.64048488  0.85707596  1
  O  O354  1  0.86989059  0.11523049  0.36981000  1
  O  O355  1  0.86770472  0.13098819  0.86307821  1
  O  O356  1  0.88328201  0.60466002  0.36968537  1
  O  O357  1  0.86549465  0.61512630  0.87513199  1
  O  O358  1  0.12860681  0.36616518  0.13505424  1
  O  O359  1  0.11074150  0.38938508  0.64393280  1
  O  O360  1  0.11842026  0.89262866  0.12744675  1
  O  O361  1  0.13042806  0.89218420  0.61940131  1
  O  O362  1  0.63623121  0.37512014  0.13490939  1
  O  O363  1  0.63759883  0.38404237  0.61559463  1
  O  O364  1  0.62622036  0.87699639  0.13398432  1
  O  O365  1  0.62753675  0.88722220  0.61896375  1
  O  O366  1  0.12295225  0.24542382  0.25849961  1
  O  O367  1  0.12537282  0.26303717  0.74018826  1
  O  O368  1  0.10904516  0.75339452  0.24703215  1
  O  O369  1  0.10961706  0.74913806  0.76620811  1
  O  O370  1  0.62446112  0.24967784  0.26430744  1
  O  O371  1  0.62484179  0.24864585  0.74892411  1
  O  O372  1  0.62196496  0.75938656  0.26333776  1
  O  O373  1  0.61837785  0.73941032  0.76413158  1
  O  O374  1  0.36590373  0.23357693  0.23249290  1
  O  O375  1  0.37599363  0.24254220  0.73591353  1
  O  O376  1  0.37212082  0.76140268  0.23235009  1
  O  O377  1  0.38142968  0.74680770  0.74039405  1
  O  O378  1  0.88236584  0.24451192  0.24153673  1
  O  O379  1  0.86977217  0.23815100  0.73535716  1
  O  O380  1  0.88742635  0.74029978  0.25709302  1
  O  O381  1  0.88266603  0.73683079  0.75833094  1
  O  O382  1  0.38253303  0.49159605  0.50660137  1
  O  O383  1  0.36721155  0.48899934  0.98144725  1
  O  O384  1  0.38385660  0.99017434  0.50725271  1
  O  O385  1  0.38392356  0.98366399  1.00130012  1
  O  O386  1  0.88748669  0.49035338  0.49646365  1
  O  O387  1  0.88417108  0.49535896  0.99101127  1
  O  O388  1  0.88510865  1.00962945  0.48796364  1
  O  O389  1  0.89060732  1.00873513  1.00709099  1
  O  O390  1  0.11731208  0.00911734  0.01048024  1
  O  O391  1  0.11751689  0.01278325  0.50105630  1
  O  O392  1  0.11547857  0.50920951  -0.01000657  1
  O  O393  1  0.11001677  0.50162415  0.51284156  1
  O  O394  1  0.63297909  -0.00060081  0.00973279  1
  O  O395  1  0.61688641  0.00597306  0.50592942  1
  O  O396  1  0.62768315  0.51214298  -0.00110680  1
  O  O397  1  0.61525700  0.51162651  0.50398945  1
  O  O398  1  0.37645956  0.35480787  0.12973400  1
  O  O399  1  0.38899088  0.36635999  0.64102028  1
  O  O400  1  0.38448899  0.86273432  0.10845868  1
  O  O401  1  0.36797475  0.87030256  0.61931796  1
  O  O402  1  0.86462268  0.36097856  0.13062509  1
  O  O403  1  0.87291697  0.36500796  0.61532164  1
  O  O404  1  0.85815966  0.87616871  0.13454367  1
  O  O405  1  0.86316156  0.87860435  0.61744382  1
  O  O406  1  0.12601229  0.13130586  0.38291381  1
  O  O407  1  0.12422306  0.11958471  0.89062549  1
  O  O408  1  0.12563493  0.62391862  0.38132319  1
  O  O409  1  0.12061908  0.64025985  0.89050538  1
  O  O410  1  0.62836454  0.13408607  0.37713539  1
  O  O411  1  0.62987747  0.13775794  0.88318388  1
  O  O412  1  0.61518057  0.63590023  0.38752580  1
  O  O413  1  0.63429339  0.61900414  0.88141531  1
