# generated using pymatgen
data_V79Zn79O256
_symmetry_space_group_name_H-M   'P 1'
_cell_length_a   16.91247458
_cell_length_b   16.94961169
_cell_length_c   16.92039518
_cell_angle_alpha   89.92365770
_cell_angle_beta   90.16995628
_cell_angle_gamma   89.96584020
_symmetry_Int_Tables_number   1
_chemical_formula_structural   V79Zn79O256
_chemical_formula_sum   'V79 Zn79 O256'
_cell_volume   4850.37188094
_cell_formula_units_Z   1
loop_
 _symmetry_equiv_pos_site_id
 _symmetry_equiv_pos_as_xyz
  1  'x, y, z'
loop_
 _atom_site_type_symbol
 _atom_site_label
 _atom_site_symmetry_multiplicity
 _atom_site_fract_x
 _atom_site_fract_y
 _atom_site_fract_z
 _atom_site_occupancy
  V  V0  1  -0.00109273  0.36350563  0.37481062  1
  V  V1  1  0.86910844  0.62893418  0.25349279  1
  V  V2  1  0.50539135  0.14014851  0.61894251  1
  V  V3  1  -0.00128571  0.37574314  0.87519949  1
  V  V4  1  0.63179392  0.24205793  0.37982413  1
  V  V5  1  0.01368749  0.62106237  0.63519383  1
  V  V6  1  0.61909915  0.86789212  0.75246951  1
  V  V7  1  0.25647174  0.61871104  0.87584345  1
  V  V8  1  0.88580730  0.23374943  0.12863705  1
  V  V9  1  0.12812074  0.25089014  0.88010197  1
  V  V10  1  0.62248151  0.12501470  -0.00065672  1
  V  V11  1  0.49156047  0.50425161  0.50653990  1
  V  V12  1  0.12361405  0.38189504  0.74219058  1
  V  V13  1  0.49787624  0.13268013  0.12635489  1
  V  V14  1  0.25593480  0.49999921  0.75175517  1
  V  V15  1  0.88618229  0.00001976  0.87922376  1
  V  V16  1  0.74369747  0.74932564  -0.01790440  1
  V  V17  1  0.50087154  0.88182885  0.37951151  1
  V  V18  1  0.74975388  0.86701861  0.12470608  1
  V  V19  1  0.62290779  0.38228118  0.74527581  1
  V  V20  1  0.37695415  0.00006780  0.38167069  1
  V  V21  1  -0.00628413  0.50102021  0.00129779  1
  V  V22  1  0.49727687  -0.00044562  -0.00558237  1
  V  V23  1  0.24496279  0.13337145  0.37698916  1
  V  V24  1  0.74882078  0.12641970  0.87563551  1
  V  V25  1  0.12272699  0.50115040  0.12641946  1
  V  V26  1  0.87559341  0.50151280  0.38342258  1
  V  V27  1  0.12006162  0.11795333  0.50927371  1
  V  V28  1  0.50079828  0.86243267  0.87084012  1
  V  V29  1  0.50799518  0.37313480  0.36478754  1
  V  V30  1  0.25399699  0.12177505  0.88455475  1
  V  V31  1  0.86620951  0.50217366  0.87445419  1
  V  V32  1  0.87307674  0.63005389  0.75443028  1
  V  V33  1  0.12743844  0.86754025  0.25446220  1
  V  V34  1  0.74778657  0.00186240  0.75161223  1
  V  V35  1  0.11468004  0.00210359  0.12144236  1
  V  V36  1  0.11696947  0.37175398  0.25581521  1
  V  V37  1  0.37480878  0.13456174  0.24756959  1
  V  V38  1  0.26051870  0.50178515  0.25457494  1
  V  V39  1  0.88133345  0.74776966  0.62747803  1
  V  V40  1  0.25071388  0.00048404  0.24977529  1
  V  V41  1  0.62975479  0.00079680  0.12722443  1
  V  V42  1  0.36481452  0.38009187  -0.00595222  1
  V  V43  1  0.25614598  0.37987860  0.62481520  1
  V  V44  1  0.24634090  0.25471704  0.50298482  1
  V  V45  1  0.37436062  0.87413708  -0.00231678  1
  V  V46  1  0.62763183  0.74659577  0.37666421  1
  V  V47  1  0.74543745  0.48423015  0.24803468  1
  V  V48  1  -0.00178232  0.74789122  0.25257220  1
  V  V49  1  0.62547623  0.00702054  0.61691616  1
  V  V50  1  0.36701553  0.12983901  0.73953042  1
  V  V51  1  0.00351944  0.87117866  0.37989305  1
  V  V52  1  0.75016192  0.36192944  0.62151335  1
  V  V53  1  0.00783777  0.85627405  0.86508550  1
  V  V54  1  0.87727546  0.12954412  0.74516627  1
  V  V55  1  0.12522058  0.62433464  0.47265110  1
  V  V56  1  0.88363738  0.87429461  0.00450231  1
  V  V57  1  -0.01230161  0.62887619  0.12663185  1
  V  V58  1  0.87374883  0.36409962  0.50674486  1
  V  V59  1  0.49889699  0.74248572  0.24807331  1
  V  V60  1  0.62554832  0.61804884  0.51742684  1
  V  V61  1  0.87793871  0.00656604  0.34761742  1
  V  V62  1  0.49426253  0.39057143  0.88129617  1
  V  V63  1  0.37727087  0.74145013  0.12810283  1
  V  V64  1  0.25095746  0.87452446  0.12373024  1
  V  V65  1  0.24425597  0.36277540  0.12174426  1
  V  V66  1  0.74673902  0.25254775  0.01207529  1
  V  V67  1  0.12150467  0.62917029  -0.00569944  1
  V  V68  1  0.88360492  0.88484136  0.50694099  1
  V  V69  1  0.37270882  0.37798838  0.49223145  1
  V  V70  1  0.24583840  0.74951440  -0.00545567  1
  V  V71  1  0.61965061  0.25064808  0.87370834  1
  V  V72  1  0.38808759  0.63099974  0.74215991  1
  V  V73  1  0.86961166  0.37359995  0.00849929  1
  V  V74  1  0.74914596  0.50228732  0.74234503  1
  V  V75  1  0.27388971  0.64228084  0.36513346  1
  V  V76  1  -0.00411820  0.25135593  0.74265035  1
  V  V77  1  0.63100164  0.87989266  0.25041660  1
  V  V78  1  0.10907080  0.12135282  0.00136016  1
  Zn  Zn79  1  0.74996324  0.87467668  0.62539459  1
  Zn  Zn80  1  0.36477444  -0.00513162  0.86896845  1
  Zn  Zn81  1  0.62309532  0.49451211  0.12136412  1
  Zn  Zn82  1  0.74726931  0.62282977  0.37843255  1
  Zn  Zn83  1  0.00735762  0.11453977  0.62707356  1
  Zn  Zn84  1  0.51059638  0.01236236  0.49322120  1
  Zn  Zn85  1  -0.03565534  0.19257728  0.27913881  1
  Zn  Zn86  1  0.74730788  0.12324823  0.37695513  1
  Zn  Zn87  1  0.62071805  0.62363365  -0.00610147  1
  Zn  Zn88  1  0.49270420  0.25868742  0.74507338  1
  Zn  Zn89  1  0.18247367  -0.06407495  0.67592782  1
  Zn  Zn90  1  0.36585728  0.24617686  0.11551052  1
  Zn  Zn91  1  0.75409165  0.74849464  0.50262284  1
  Zn  Zn92  1  0.00778188  0.49582354  0.50981550  1
  Zn  Zn93  1  0.49873807  0.61226299  0.11409245  1
  Zn  Zn94  1  0.14970633  0.17262698  0.20547632  1
  Zn  Zn95  1  0.18883787  0.19722341  0.68917210  1
  Zn  Zn96  1  0.18780149  0.68541587  0.18595376  1
  Zn  Zn97  1  0.21494898  0.69238286  0.67386086  1
  Zn  Zn98  1  0.68679473  0.19371901  0.20302447  1
  Zn  Zn99  1  0.68592443  0.19076062  0.68758298  1
  Zn  Zn100  1  0.68256232  0.68451441  0.18304403  1
  Zn  Zn101  1  0.69398029  0.69055357  0.69137317  1
  Zn  Zn102  1  0.30909581  0.31750796  0.31109365  1
  Zn  Zn103  1  0.31117833  0.30933727  0.81283107  1
  Zn  Zn104  1  0.31870437  0.81599405  0.31221722  1
  Zn  Zn105  1  0.31532162  0.80673691  0.80999265  1
  Zn  Zn106  1  0.81256910  0.30749028  0.31473625  1
  Zn  Zn107  1  0.80936441  0.31379707  0.81478073  1
  Zn  Zn108  1  0.81411798  0.81488640  0.31638051  1
  Zn  Zn109  1  0.81687902  0.81795175  0.81201273  1
  Zn  Zn110  1  0.18423637  0.44529784  0.43766153  1
  Zn  Zn111  1  0.18383806  0.44055670  0.93713617  1
  Zn  Zn112  1  0.18636622  0.94111850  0.44008591  1
  Zn  Zn113  1  0.18339916  0.93944332  0.93467633  1
  Zn  Zn114  1  0.68524273  0.43627176  0.43580748  1
  Zn  Zn115  1  0.68214818  0.43603512  0.93690654  1
  Zn  Zn116  1  0.69943778  0.93660658  0.43506867  1
  Zn  Zn117  1  0.68771528  0.93539165  0.93764355  1
  Zn  Zn118  1  0.30988280  0.06077808  0.06212308  1
  Zn  Zn119  1  0.31445338  0.06681030  0.56212716  1
  Zn  Zn120  1  0.31255196  0.55818289  0.06306290  1
  Zn  Zn121  1  0.30601363  0.56966166  0.56226260  1
  Zn  Zn122  1  0.81244508  0.05968324  0.06296074  1
  Zn  Zn123  1  0.80906727  0.06399258  0.56304926  1
  Zn  Zn124  1  0.78107058  0.55063406  0.04832050  1
  Zn  Zn125  1  0.81234900  0.56226987  0.56595050  1
  Zn  Zn126  1  0.43581415  0.43312893  0.17955782  1
  Zn  Zn127  1  0.43628890  0.44460584  0.68595366  1
  Zn  Zn128  1  0.44083825  0.93637548  0.18794692  1
  Zn  Zn129  1  0.43956936  0.95199020  0.68745139  1
  Zn  Zn130  1  0.93052049  0.43859796  0.19138208  1
  Zn  Zn131  1  0.93599398  0.44057890  0.68736749  1
  Zn  Zn132  1  0.94102620  0.93059135  0.18422198  1
  Zn  Zn133  1  0.94338316  0.93597036  0.69570154  1
  Zn  Zn134  1  0.06435606  0.05384628  0.32174866  1
  Zn  Zn135  1  0.06422688  0.06173009  0.81254458  1
  Zn  Zn136  1  0.05523122  0.55124787  0.30993746  1
  Zn  Zn137  1  0.06020446  0.56338657  0.81289095  1
  Zn  Zn138  1  0.56863023  0.07378786  0.30920194  1
  Zn  Zn139  1  0.55634478  0.06467696  0.80549052  1
  Zn  Zn140  1  0.55738896  0.55437720  0.31531900  1
  Zn  Zn141  1  0.56779729  0.57264329  0.82275977  1
  Zn  Zn142  1  0.43296053  0.19593369  0.43673814  1
  Zn  Zn143  1  0.43351037  0.19547701  0.94021500  1
  Zn  Zn144  1  0.44903578  0.69143577  0.44198345  1
  Zn  Zn145  1  0.43663760  0.68236801  0.93673979  1
  Zn  Zn146  1  0.91280270  0.16306696  0.45676909  1
  Zn  Zn147  1  0.93499394  0.19086789  0.93443797  1
  Zn  Zn148  1  0.94314235  0.68749440  0.44331212  1
  Zn  Zn149  1  0.92721734  0.68867807  0.94124763  1
  Zn  Zn150  1  0.06059315  0.31122228  0.06274908  1
  Zn  Zn151  1  0.06388838  0.30863917  0.55871539  1
  Zn  Zn152  1  0.06208808  0.81191003  0.06662992  1
  Zn  Zn153  1  0.06618170  0.79533956  0.55825412  1
  Zn  Zn154  1  0.55944393  0.31964380  0.06531644  1
  Zn  Zn155  1  0.56461263  0.31953416  0.55428312  1
  Zn  Zn156  1  0.56273426  0.80842793  0.05979890  1
  Zn  Zn157  1  0.56858080  0.81870465  0.56056690  1
  O  O158  1  0.13296224  0.11845316  0.10522205  1
  O  O159  1  0.13031405  0.13360965  0.61354832  1
  O  O160  1  0.11593434  0.61657638  0.11863151  1
  O  O161  1  0.11073676  0.63098825  0.65052457  1
  O  O162  1  0.61584121  0.11728162  0.12020814  1
  O  O163  1  0.61462547  0.12191641  0.62859388  1
  O  O164  1  0.62155094  0.61881357  0.11700470  1
  O  O165  1  0.62639076  0.63188179  0.61578417  1
  O  O166  1  0.37800551  0.37435183  0.38682808  1
  O  O167  1  0.38213667  0.37251642  0.88171381  1
  O  O168  1  0.38804672  0.88838007  0.36629719  1
  O  O169  1  0.38049896  0.87742693  0.87658370  1
  O  O170  1  0.87709853  0.38125263  0.38959895  1
  O  O171  1  0.88117898  0.38057067  0.88222963  1
  O  O172  1  0.88336369  0.88186747  0.38723258  1
  O  O173  1  0.88557007  0.88171691  0.88401879  1
  O  O174  1  0.25751826  0.00453702  0.36766496  1
  O  O175  1  0.24510412  0.01606524  0.87014916  1
  O  O176  1  0.25231799  0.49389351  0.35529405  1
  O  O177  1  0.24455524  0.50886559  0.86839445  1
  O  O178  1  0.77929309  0.00043425  0.38238090  1
  O  O179  1  0.75322529  0.00650412  0.86677207  1
  O  O180  1  0.76053867  0.50174541  0.36930582  1
  O  O181  1  0.76260559  0.48556900  0.86072631  1
  O  O182  1  0.23584787  0.49639446  0.13060450  1
  O  O183  1  0.24815759  0.49038508  0.63689635  1
  O  O184  1  0.24392893  0.99465769  0.13287489  1
  O  O185  1  0.28466393  0.97925905  0.63657924  1
  O  O186  1  0.76222403  0.50330291  0.14934401  1
  O  O187  1  0.75473713  0.48935082  0.63773025  1
  O  O188  1  0.73448177  0.99033082  0.11545743  1
  O  O189  1  0.74494867  1.00223981  0.63614758  1
  O  O190  1  0.00406605  0.38243712  0.26045585  1
  O  O191  1  0.00424441  0.37172798  0.75477136  1
  O  O192  1  0.00749487  0.86487632  0.25482270  1
  O  O193  1  -0.00707186  0.86113391  0.76554307  1
  O  O194  1  0.48575981  0.37866216  0.26779685  1
  O  O195  1  0.50438529  0.37675032  0.75824277  1
  O  O196  1  0.51132892  0.86925339  0.25715306  1
  O  O197  1  0.51091285  0.88526457  0.75500735  1
  O  O198  1  0.48558823  0.11541663  0.23696058  1
  O  O199  1  0.49546913  0.13467862  0.73604722  1
  O  O200  1  0.50573831  0.64224715  0.25539468  1
  O  O201  1  0.48578133  0.61965601  0.76468125  1
  O  O202  1  1.04847434  0.13173721  0.24482026  1
  O  O203  1  0.99351965  0.13652353  0.75498544  1
  O  O204  1  0.99198826  0.62989652  0.24531605  1
  O  O205  1  0.98566930  0.61982831  0.74461574  1
  O  O206  1  0.37218680  0.26774210  0.00105394  1
  O  O207  1  0.35865327  0.26326409  0.49850512  1
  O  O208  1  0.36504434  0.75637198  0.00762954  1
  O  O209  1  0.41253032  0.75771746  0.53942077  1
  O  O210  1  0.86708796  0.25390792  0.00732233  1
  O  O211  1  0.88013028  0.26726467  0.50368650  1
  O  O212  1  0.86507271  0.77099246  -0.00342740  1
  O  O213  1  0.87620520  0.75468764  0.51116860  1
  O  O214  1  0.13929338  0.24533502  0.49773800  1
  O  O215  1  0.11761827  0.23738077  0.98972277  1
  O  O216  1  0.13473191  0.71739000  0.51162144  1
  O  O217  1  0.13490417  0.73919127  1.01303623  1
  O  O218  1  0.62620781  0.26150439  0.48301127  1
  O  O219  1  0.62953649  0.24496298  0.99225676  1
  O  O220  1  0.62349824  0.74080559  0.49452649  1
  O  O221  1  0.64027651  0.75087366  1.00024685  1
  O  O222  1  0.49864530  0.23425552  0.11620134  1
  O  O223  1  0.50836869  0.24331392  0.62412290  1
  O  O224  1  0.49220162  0.75300877  0.13266694  1
  O  O225  1  0.46383763  0.76549427  0.59624805  1
  O  O226  1  0.98568048  0.24718226  0.11943145  1
  O  O227  1  1.00427583  0.24911571  0.64078076  1
  O  O228  1  1.00330306  0.73973108  0.13818792  1
  O  O229  1  0.99143704  0.73580520  0.62591466  1
  O  O230  1  -0.01584310  0.26338846  0.37407129  1
  O  O231  1  0.00725270  0.25719288  0.86797133  1
  O  O232  1  -0.00130774  0.75973972  0.36532717  1
  O  O233  1  -0.00085340  0.75776577  0.88540611  1
  O  O234  1  0.50305504  0.26659555  0.38240402  1
  O  O235  1  0.51151501  0.25427156  0.87377742  1
  O  O236  1  0.50853015  0.76243802  0.36946285  1
  O  O237  1  0.49558817  0.76429978  0.87622010  1
  O  O238  1  0.24714928  0.13535489  0.49734684  1
  O  O239  1  0.24582005  0.12537344  0.98694322  1
  O  O240  1  0.23732213  0.60640981  0.45815292  1
  O  O241  1  0.24156449  0.62844812  0.99609524  1
  O  O242  1  0.80332970  0.13143480  0.47795817  1
  O  O243  1  0.74252356  0.13250993  0.99446331  1
  O  O244  1  0.73720237  0.62584728  0.49964334  1
  O  O245  1  0.77091129  0.65395584  1.00395731  1
  O  O246  1  0.25464294  0.37847966  0.00509838  1
  O  O247  1  0.25234461  0.37583357  0.50444337  1
  O  O248  1  0.25190917  0.86792594  0.00237606  1
  O  O249  1  0.21553368  0.86628066  0.52456939  1
  O  O250  1  0.76053359  0.36099245  -0.01076333  1
  O  O251  1  0.75976369  0.38094250  0.51281913  1
  O  O252  1  0.75405298  0.86781949  0.00464998  1
  O  O253  1  0.77135174  0.87392544  0.50522203  1
  O  O254  1  0.12765425  0.49413836  0.23943815  1
  O  O255  1  0.13211531  0.48690551  0.76036875  1
  O  O256  1  0.13706872  0.98919078  0.24315513  1
  O  O257  1  0.09686145  0.99898392  0.71829307  1
  O  O258  1  0.64564293  0.50844074  0.25703388  1
  O  O259  1  0.63397896  0.48752559  0.75730748  1
  O  O260  1  0.61503105  0.98989350  0.23841327  1
  O  O261  1  0.63325141  0.99973926  0.74108548  1
  O  O262  1  0.36366035  0.00715011  0.25246496  1
  O  O263  1  0.38946367  0.02704272  0.76168418  1
  O  O264  1  0.35727326  0.50111143  0.23683686  1
  O  O265  1  0.36147933  0.50384480  0.75351595  1
  O  O266  1  0.86941186  -0.01269954  0.25082366  1
  O  O267  1  0.86569621  0.00523066  0.75985634  1
  O  O268  1  0.86874464  0.50947358  0.26323218  1
  O  O269  1  0.86841863  0.50650113  0.75696378  1
  O  O270  1  0.11004802  0.38586854  0.36882607  1
  O  O271  1  0.11892986  0.36783182  0.87154308  1
  O  O272  1  0.11750792  0.88443977  0.36348122  1
  O  O273  1  0.10546925  0.88034890  0.88099322  1
  O  O274  1  0.61386728  0.37095762  0.37353253  1
  O  O275  1  0.61234536  0.37022057  0.87041801  1
  O  O276  1  0.62392253  0.87259699  0.36788698  1
  O  O277  1  0.61666244  0.88349248  0.86034019  1
  O  O278  1  0.37871953  0.12518727  0.12948272  1
  O  O279  1  0.38548247  0.12580309  0.63450620  1
  O  O280  1  0.37501194  0.63845638  0.11930194  1
  O  O281  1  0.38614493  0.61038626  0.64309499  1
  O  O282  1  0.87532031  0.13413399  0.12012796  1
  O  O283  1  0.88441416  0.11258951  0.64310584  1
  O  O284  1  0.88576440  0.61825631  0.13681166  1
  O  O285  1  0.88016101  0.63163245  0.63426271  1
  O  O286  1  0.23814416  0.26356759  0.12898904  1
  O  O287  1  0.24713541  0.26826843  0.61749342  1
  O  O288  1  0.25722461  0.75423088  0.11905819  1
  O  O289  1  0.27755644  0.67788034  0.58485063  1
  O  O290  1  0.75500264  0.24285382  0.11508810  1
  O  O291  1  0.75491979  0.26285447  0.62976509  1
  O  O292  1  0.74728486  0.76559570  0.12238350  1
  O  O293  1  0.76494006  0.75584448  0.62423641  1
  O  O294  1  0.25415990  0.23943142  0.38141235  1
  O  O295  1  0.23532319  0.23736898  0.86757954  1
  O  O296  1  0.25327911  0.74057572  0.36566444  1
  O  O297  1  0.25124280  0.74076027  0.89028192  1
  O  O298  1  0.73877102  0.24754764  0.37447808  1
  O  O299  1  0.73860548  0.24567236  0.88145630  1
  O  O300  1  0.73870991  0.75199902  0.37986226  1
  O  O301  1  0.75037853  0.75896852  0.88231627  1
  O  O302  1  0.01024397  0.12164395  -0.00822680  1
  O  O303  1  0.01498920  0.13237963  0.50562092  1
  O  O304  1  0.00160558  0.62233287  0.00835182  1
  O  O305  1  0.01193735  0.62322645  0.51433106  1
  O  O306  1  0.50131675  0.11727674  0.00467212  1
  O  O307  1  0.48888539  0.12853962  0.51555790  1
  O  O308  1  0.50565761  0.62753399  0.00048349  1
  O  O309  1  0.51178307  0.61299958  0.49777463  1
  O  O310  1  0.48915418  0.38494590  0.49388370  1
  O  O311  1  0.48932228  0.37338684  0.98584802  1
  O  O312  1  0.51175640  0.88530751  0.48229193  1
  O  O313  1  0.49573861  0.88103382  0.99117022  1
  O  O314  1  0.99035803  0.37762351  0.49756022  1
  O  O315  1  0.99119838  0.38136381  0.99474629  1
  O  O316  1  0.99412462  0.86109332  0.49153055  1
  O  O317  1  0.98661480  0.87312061  1.00184340  1
  O  O318  1  0.50520283  0.48580356  0.39054747  1
  O  O319  1  0.50129267  0.48745614  0.87504119  1
  O  O320  1  0.49472102  0.99917445  0.37194839  1
  O  O321  1  0.50055245  0.99769805  0.88720728  1
  O  O322  1  0.98597640  0.48960826  0.37914857  1
  O  O323  1  0.98916850  0.49484546  0.88142167  1
  O  O324  1  0.98886112  0.98185372  0.36876216  1
  O  O325  1  0.98889055  0.99327240  0.86961560  1
  O  O326  1  0.01581202  -0.00396062  0.12966982  1
  O  O327  1  0.03246246  0.00039743  0.65743846  1
  O  O328  1  0.00427290  0.50762962  0.12190661  1
  O  O329  1  -0.00353717  0.51608738  0.62679195  1
  O  O330  1  0.50608345  0.00360354  0.11217152  1
  O  O331  1  0.51115872  0.01340526  0.61904585  1
  O  O332  1  0.51017929  0.50353414  0.14213912  1
  O  O333  1  0.50584073  0.48940634  0.60570943  1
  O  O334  1  0.24145015  0.38678312  0.24103851  1
  O  O335  1  0.24457814  0.37966783  0.74554787  1
  O  O336  1  0.24519087  0.88170755  0.24615663  1
  O  O337  1  0.22322331  0.84585099  0.74344831  1
  O  O338  1  0.75522759  0.38561966  0.25495571  1
  O  O339  1  0.74579759  0.37938663  0.73987279  1
  O  O340  1  0.73883577  0.87071134  0.24320768  1
  O  O341  1  0.74008268  0.88777548  0.75084920  1
  O  O342  1  0.24965965  0.11651220  0.25718387  1
  O  O343  1  0.26167099  0.12867860  0.75109477  1
  O  O344  1  0.24281712  0.61408359  0.26014498  1
  O  O345  1  0.25320007  0.61532672  0.75963238  1
  O  O346  1  0.73577488  0.11384626  0.26303167  1
  O  O347  1  0.75645930  0.12073281  0.75471321  1
  O  O348  1  0.76306055  0.63177034  0.25443798  1
  O  O349  1  0.76044086  0.61383622  0.74492306  1
  O  O350  1  0.36761768  0.11976190  0.36546330  1
  O  O351  1  0.36020464  0.12876212  0.87425378  1
  O  O352  1  0.37301532  0.63642119  0.37722232  1
  O  O353  1  0.36019641  0.62592011  0.87112311  1
  O  O354  1  0.90345378  0.10889141  0.34994745  1
  O  O355  1  0.86945524  0.11780937  0.86916052  1
  O  O356  1  0.87678623  0.61915863  0.37120444  1
  O  O357  1  0.87877572  0.61246544  0.86807981  1
  O  O358  1  0.12439107  0.38487569  0.12844977  1
  O  O359  1  0.12989702  0.37220636  0.63727021  1
  O  O360  1  0.13135144  0.88197347  0.13205553  1
  O  O361  1  0.15564522  0.87057819  0.58059001  1
  O  O362  1  0.63476844  0.38277940  0.11115783  1
  O  O363  1  0.63871796  0.37082449  0.63290226  1
  O  O364  1  0.62924221  0.88142492  0.13094996  1
  O  O365  1  0.62500305  0.88695554  0.63629493  1
  O  O366  1  0.13043273  0.27405749  0.25099213  1
  O  O367  1  0.11627687  0.25999662  0.76039866  1
  O  O368  1  0.11910855  0.76138008  0.24392351  1
  O  O369  1  0.17061149  0.78301500  0.72978496  1
  O  O370  1  0.61597012  0.24673279  0.27330736  1
  O  O371  1  0.62657517  0.26397979  0.75992396  1
  O  O372  1  0.61907615  0.75968523  0.25732809  1
  O  O373  1  0.62776496  0.76978045  0.74262042  1
  O  O374  1  0.36335970  0.23640104  0.24431700  1
  O  O375  1  0.37868132  0.23582894  0.75740843  1
  O  O376  1  0.38571856  0.75915004  0.23763681  1
  O  O377  1  0.36745274  0.73132219  0.74568161  1
  O  O378  1  0.87498084  0.25139179  0.23352653  1
  O  O379  1  0.88244885  0.24072873  0.76043815  1
  O  O380  1  0.88635730  0.74305637  0.25669174  1
  O  O381  1  0.86738366  0.73937860  0.74389379  1
  O  O382  1  0.38419438  0.49882119  0.50262799  1
  O  O383  1  0.37271387  0.48089701  1.00551036  1
  O  O384  1  0.37636298  1.00763226  0.48323306  1
  O  O385  1  0.38107174  0.99258828  0.99701950  1
  O  O386  1  0.87661694  0.49647372  0.49382855  1
  O  O387  1  0.87270593  0.49256456  0.99306466  1
  O  O388  1  0.89055954  0.98327682  0.51570446  1
  O  O389  1  0.86412203  0.98772321  0.98769170  1
  O  O390  1  0.12835197  0.01257635  0.00650551  1
  O  O391  1  0.13277472  0.01827633  0.50713345  1
  O  O392  1  0.11553874  0.50794579  0.00824213  1
  O  O393  1  0.12285189  0.51805477  0.50032029  1
  O  O394  1  0.61658226  0.00472476  0.00558698  1
  O  O395  1  0.63502158  -0.00303348  0.51308485  1
  O  O396  1  0.67148060  0.51558477  0.01228997  1
  O  O397  1  0.62242767  0.51422041  0.49934131  1
  O  O398  1  0.36199896  0.36924352  0.11517519  1
  O  O399  1  0.36422367  0.38202149  0.61346431  1
  O  O400  1  0.36969640  0.86997460  0.11790174  1
  O  O401  1  0.34082519  0.91678827  0.63565706  1
  O  O402  1  0.87886286  0.36904807  0.11170007  1
  O  O403  1  0.86676984  0.37972130  0.61572187  1
  O  O404  1  0.86493519  0.88609700  0.11078599  1
  O  O405  1  0.88502396  0.86705054  0.61940027  1
  O  O406  1  0.13986991  0.11679287  0.39048195  1
  O  O407  1  0.13146977  0.12811505  0.88253572  1
  O  O408  1  0.10572173  0.63191573  0.37402169  1
  O  O409  1  0.12811733  0.62110096  0.88994879  1
  O  O410  1  0.62216822  0.13368173  0.38838113  1
  O  O411  1  0.62704717  0.13232285  0.87735631  1
  O  O412  1  0.62372215  0.63855260  0.38020734  1
  O  O413  1  0.64708590  0.61314305  0.88453400  1
