# generated using pymatgen
data_V79Zn79O256
_symmetry_space_group_name_H-M   'P 1'
_cell_length_a   16.92459799
_cell_length_b   16.88260557
_cell_length_c   16.90292987
_cell_angle_alpha   90.02798541
_cell_angle_beta   89.98388270
_cell_angle_gamma   90.18026572
_symmetry_Int_Tables_number   1
_chemical_formula_structural   V79Zn79O256
_chemical_formula_sum   'V79 Zn79 O256'
_cell_volume   4829.67166597
_cell_formula_units_Z   1
loop_
 _symmetry_equiv_pos_site_id
 _symmetry_equiv_pos_as_xyz
  1  'x, y, z'
loop_
 _atom_site_type_symbol
 _atom_site_label
 _atom_site_symmetry_multiplicity
 _atom_site_fract_x
 _atom_site_fract_y
 _atom_site_fract_z
 _atom_site_occupancy
  V  V0  1  0.73293366  0.12414146  0.87723941  1
  V  V1  1  0.12769447  0.11866469  0.50228145  1
  V  V2  1  0.00186186  0.11692551  0.62143706  1
  V  V3  1  -0.00664891  0.86912358  0.88051166  1
  V  V4  1  0.00042701  0.24857549  0.75247278  1
  V  V5  1  0.25041085  0.24917058  0.49945507  1
  V  V6  1  0.37844699  0.24002536  0.13092155  1
  V  V7  1  0.50470768  0.37667339  0.36659442  1
  V  V8  1  0.75563937  0.87151815  0.61064741  1
  V  V9  1  0.86835854  0.74121990  0.62001342  1
  V  V10  1  0.63002030  0.75162905  0.38083083  1
  V  V11  1  0.39730114  0.50327689  0.87875089  1
  V  V12  1  0.24607429  0.62907585  0.38375848  1
  V  V13  1  0.37257322  0.63095029  0.24970689  1
  V  V14  1  0.49979343  0.63495541  0.63388327  1
  V  V15  1  0.62359601  -0.00886181  0.63156941  1
  V  V16  1  -0.00416156  0.49472895  -0.00136169  1
  V  V17  1  0.49791404  0.00075325  0.50012475  1
  V  V18  1  0.38837276  0.37842883  -0.00258462  1
  V  V19  1  0.74012820  0.24336908  -0.00623492  1
  V  V20  1  0.13223653  -0.00987890  0.13504621  1
  V  V21  1  0.62710615  0.25271146  0.36522664  1
  V  V22  1  0.13723039  0.62836719  -0.00273426  1
  V  V23  1  0.00265734  0.49853913  0.49599472  1
  V  V24  1  0.60697894  0.00243021  0.11545940  1
  V  V25  1  0.12760869  0.50085887  0.62514477  1
  V  V26  1  0.63891792  0.74828688  0.87118413  1
  V  V27  1  0.50248719  0.87043554  0.86713386  1
  V  V28  1  0.12709267  0.37082015  0.75748173  1
  V  V29  1  0.87136497  0.12082070  0.75547152  1
  V  V30  1  0.76768129  0.61195763  0.87457882  1
  V  V31  1  0.25382303  0.12235529  0.36023592  1
  V  V32  1  0.74787413  0.37681087  0.62358230  1
  V  V33  1  0.75620832  0.12391464  0.36734371  1
  V  V34  1  0.86431043  0.86956308  0.00472417  1
  V  V35  1  0.36292266  0.75144514  0.62943893  1
  V  V36  1  -0.00474656  0.63556199  0.13265605  1
  V  V37  1  0.00288201  0.01018700  -0.00637805  1
  V  V38  1  0.50225826  0.12753200  0.62590314  1
  V  V39  1  0.12225327  0.87675756  0.74702854  1
  V  V40  1  0.00347590  0.12570467  0.14700583  1
  V  V41  1  0.12376111  0.75837306  0.36868616  1
  V  V42  1  0.87792087  0.23866559  0.13494323  1
  V  V43  1  0.74833945  0.37688631  0.13638027  1
  V  V44  1  -0.00434225  0.62283145  0.63328877  1
  V  V45  1  0.49762458  0.75177534  0.24104521  1
  V  V46  1  0.13620006  0.74882254  0.87603834  1
  V  V47  1  0.24810239  0.37578299  0.12704496  1
  V  V48  1  0.36591664  -0.00214281  0.88150235  1
  V  V49  1  0.36970834  0.12517062  0.75819227  1
  V  V50  1  0.62442551  0.37211451  0.76357712  1
  V  V51  1  0.24790753  0.49855821  0.25214861  1
  V  V52  1  0.49767371  0.61145392  0.12363348  1
  V  V53  1  0.12488929  0.25055242  0.36095867  1
  V  V54  1  0.50109569  0.50152822  0.50039569  1
  V  V55  1  0.62980275  0.50071739  0.62916570  1
  V  V56  1  0.00660782  0.37102564  0.35621830  1
  V  V57  1  0.75245955  -0.00684954  0.23915577  1
  V  V58  1  0.37785378  0.25160050  0.62515623  1
  V  V59  1  0.36765494  0.87063834  0.50283411  1
  V  V60  1  -0.00230090  -0.01047297  0.50000592  1
  V  V61  1  0.63269048  0.63230588  0.50386601  1
  V  V62  1  0.37697808  0.37568390  0.50042999  1
  V  V63  1  0.25233155  0.50529813  0.76338547  1
  V  V64  1  0.74901562  0.24712024  0.49816430  1
  V  V65  1  0.74915619  -0.00823756  0.75407783  1
  V  V66  1  0.12477867  0.49896420  0.12807613  1
  V  V67  1  0.50392289  0.87516570  0.37248212  1
  V  V68  1  0.87556626  -0.00087322  0.37391945  1
  V  V69  1  -0.00296084  0.87090683  0.35549089  1
  V  V70  1  0.37253283  0.00491975  0.36295654  1
  V  V71  1  0.49677496  0.23420377  0.25020517  1
  V  V72  1  0.25274738  0.37653498  0.62557920  1
  V  V73  1  0.87692065  0.36958638  -0.00527369  1
  V  V74  1  0.50386918  0.25431698  0.76530613  1
  V  V75  1  0.85612216  0.74965401  0.13365540  1
  V  V76  1  0.75549513  0.62142354  0.36593299  1
  V  V77  1  0.87426790  0.24673583  0.62352286  1
  V  V78  1  0.24535407  0.24463213  -0.00784628  1
  Zn  Zn79  1  0.12071526  0.23550524  0.88029763  1
  Zn  Zn80  1  0.22959494  0.88195684  0.61497120  1
  Zn  Zn81  1  0.37467023  0.63831197  0.76702685  1
  Zn  Zn82  1  -0.01047261  0.73952034  0.75957907  1
  Zn  Zn83  1  0.63996711  0.86276170  0.22872598  1
  Zn  Zn84  1  0.37379394  0.50268214  0.37798527  1
  Zn  Zn85  1  0.63255139  0.62214236  0.00245309  1
  Zn  Zn86  1  0.62558086  0.12335527  0.49816621  1
  Zn  Zn87  1  0.62372977  0.49030291  0.13353131  1
  Zn  Zn88  1  0.87809768  0.37482791  0.49401720  1
  Zn  Zn89  1  -0.04193952  0.41684537  0.83442002  1
  Zn  Zn90  1  0.12715367  0.63465741  0.50457166  1
  Zn  Zn91  1  0.87124526  0.49874379  0.36308820  1
  Zn  Zn92  1  0.49550722  0.00799105  -0.00263214  1
  Zn  Zn93  1  0.23543855  0.01025649  0.74698077  1
  Zn  Zn94  1  0.18800095  0.18299049  0.17912353  1
  Zn  Zn95  1  0.18639202  0.18839364  0.68476848  1
  Zn  Zn96  1  0.18335554  0.69026936  0.19183667  1
  Zn  Zn97  1  0.18642893  0.68721392  0.69204650  1
  Zn  Zn98  1  0.68805871  0.18258052  0.18361371  1
  Zn  Zn99  1  0.68568937  0.18771212  0.69193380  1
  Zn  Zn100  1  0.68022830  0.68186864  0.19178915  1
  Zn  Zn101  1  0.69060192  0.68761598  0.70016428  1
  Zn  Zn102  1  0.31366430  0.31248339  0.31474657  1
  Zn  Zn103  1  0.31814795  0.31725574  0.81346408  1
  Zn  Zn104  1  0.32303235  0.80214392  0.33295534  1
  Zn  Zn105  1  0.31026001  0.81824399  0.81197737  1
  Zn  Zn106  1  0.82112128  0.31128801  0.31269399  1
  Zn  Zn107  1  0.79733961  0.44669353  0.79922968  1
  Zn  Zn108  1  0.81632139  0.80999202  0.31618227  1
  Zn  Zn109  1  0.81363659  0.80717716  0.80761407  1
  Zn  Zn110  1  0.18451122  0.43734054  0.43721453  1
  Zn  Zn111  1  0.18839918  0.43274883  0.94203304  1
  Zn  Zn112  1  0.18647707  0.93874437  0.43069667  1
  Zn  Zn113  1  0.18371057  1.06248565  0.93832471  1
  Zn  Zn114  1  0.68587148  0.43931857  0.43599423  1
  Zn  Zn115  1  0.68408149  0.44144432  0.95491990  1
  Zn  Zn116  1  0.68672576  0.94029238  0.43745337  1
  Zn  Zn117  1  0.68154635  0.93695777  0.93690110  1
  Zn  Zn118  1  0.31255855  0.06189844  0.06701000  1
  Zn  Zn119  1  0.30972713  0.05893653  0.56573416  1
  Zn  Zn120  1  0.31901265  0.56293190  0.06178719  1
  Zn  Zn121  1  0.31387784  0.56353693  0.56761503  1
  Zn  Zn122  1  0.82001623  0.05843468  0.05533754  1
  Zn  Zn123  1  0.81347422  0.05831061  0.56018425  1
  Zn  Zn124  1  0.81082906  0.56498838  0.05867929  1
  Zn  Zn125  1  0.81622599  0.56062188  0.55233134  1
  Zn  Zn126  1  0.42953326  0.43464476  0.19230314  1
  Zn  Zn127  1  0.44181016  0.44078860  0.69226936  1
  Zn  Zn128  1  0.43114000  0.93063532  0.18439160  1
  Zn  Zn129  1  0.43370337  0.93640275  0.69050133  1
  Zn  Zn130  1  0.92975227  0.43747560  0.18375963  1
  Zn  Zn131  1  0.93728710  0.43514075  0.67238645  1
  Zn  Zn132  1  0.93341990  0.94032468  0.18059983  1
  Zn  Zn133  1  0.93388914  0.93265533  0.69069400  1
  Zn  Zn134  1  0.06899195  0.05888422  0.31557083  1
  Zn  Zn135  1  0.05410226  0.05930045  0.81086263  1
  Zn  Zn136  1  0.06124712  0.56497874  0.31260145  1
  Zn  Zn137  1  0.06617471  0.56213867  0.81388335  1
  Zn  Zn138  1  0.57192037  0.05913838  0.30756220  1
  Zn  Zn139  1  0.55591716  0.05859406  0.81148064  1
  Zn  Zn140  1  0.56831076  0.56355734  0.30907421  1
  Zn  Zn141  1  0.57131359  0.56732690  0.81105510  1
  Zn  Zn142  1  0.43718866  0.18737018  0.43537618  1
  Zn  Zn143  1  0.43797252  0.18692546  0.94438801  1
  Zn  Zn144  1  0.43959028  0.68751474  0.44075049  1
  Zn  Zn145  1  0.45489346  0.68956461  0.93761682  1
  Zn  Zn146  1  0.94078325  0.18632293  0.43308053  1
  Zn  Zn147  1  0.92693351  0.19154131  0.93387617  1
  Zn  Zn148  1  0.93785904  0.69328308  0.44254610  1
  Zn  Zn149  1  0.93816631  0.68603532  0.94955491  1
  Zn  Zn150  1  0.06265237  0.30961222  0.06859763  1
  Zn  Zn151  1  0.06642364  0.31081287  0.56042112  1
  Zn  Zn152  1  0.06761055  0.81402571  0.06115651  1
  Zn  Zn153  1  0.05702303  0.80238249  0.55856162  1
  Zn  Zn154  1  0.56490235  0.30576601  0.06682044  1
  Zn  Zn155  1  0.56417564  0.31231933  0.55959966  1
  Zn  Zn156  1  0.56617895  0.82239477  0.04559532  1
  Zn  Zn157  1  0.55919303  0.81447783  0.56638942  1
  O  O158  1  0.10658742  0.12307215  0.12552044  1
  O  O159  1  0.11338720  0.12913185  0.61518771  1
  O  O160  1  0.11967399  0.62141317  0.11483539  1
  O  O161  1  0.11604245  0.61990962  0.62443698  1
  O  O162  1  0.62635404  0.10115539  0.13549226  1
  O  O163  1  0.61505820  0.11774739  0.62408555  1
  O  O164  1  0.60285667  0.63051173  0.12546515  1
  O  O165  1  0.62072274  0.62093065  0.62366452  1
  O  O166  1  0.38541590  0.37785513  0.38301673  1
  O  O167  1  0.37671033  0.38307377  0.89011569  1
  O  O168  1  0.38295175  0.88352614  0.38392487  1
  O  O169  1  0.37787937  0.89380888  0.86384119  1
  O  O170  1  0.89461341  0.37200989  0.37612344  1
  O  O171  1  0.87002977  0.36980538  0.89281653  1
  O  O172  1  0.88956312  0.88152034  0.37445139  1
  O  O173  1  0.88707129  0.86377673  0.88529991  1
  O  O174  1  0.26014778  0.00987228  0.37918419  1
  O  O175  1  0.26215354  0.00685617  0.86532702  1
  O  O176  1  0.24701861  0.50779287  0.36670488  1
  O  O177  1  0.25098453  0.49491619  0.86649127  1
  O  O178  1  0.75689449  0.00629426  0.37335146  1
  O  O179  1  0.74228850  0.01048743  0.86482758  1
  O  O180  1  0.75160817  0.51614218  0.38489157  1
  O  O181  1  0.75153552  0.50495369  0.88304629  1
  O  O182  1  0.24550754  0.49581324  0.13134760  1
  O  O183  1  0.24801935  0.49427411  0.63408726  1
  O  O184  1  0.23073984  1.00809949  0.11914965  1
  O  O185  1  0.25623921  0.99120384  0.63592174  1
  O  O186  1  0.76345464  0.47740326  0.12025524  1
  O  O187  1  0.74228501  0.48934415  0.61345421  1
  O  O188  1  0.75824671  1.00272240  0.13898206  1
  O  O189  1  0.74332120  0.99106185  0.62885556  1
  O  O190  1  0.00437055  0.37512307  0.25800688  1
  O  O191  1  0.01087643  0.36358689  0.74221475  1
  O  O192  1  -0.00208739  0.87926273  0.25757074  1
  O  O193  1  0.00242201  0.87384830  0.76480629  1
  O  O194  1  0.49381224  0.36804835  0.26360276  1
  O  O195  1  0.51512271  0.36828205  0.74518622  1
  O  O196  1  0.49533352  0.86836332  0.26310938  1
  O  O197  1  0.50484144  0.89373216  0.76654450  1
  O  O198  1  0.49813593  0.13505262  0.25957680  1
  O  O199  1  0.49383343  0.13486829  0.74206956  1
  O  O200  1  0.49116338  0.63293945  0.24584867  1
  O  O201  1  0.49212339  0.61388971  0.73658267  1
  O  O202  1  0.99762175  0.12199301  0.24560877  1
  O  O203  1  0.99069537  0.12719279  0.73886864  1
  O  O204  1  1.00424782  0.62103324  0.23134854  1
  O  O205  1  1.00231160  0.61909765  0.73733899  1
  O  O206  1  0.36728447  0.26087098  0.01118306  1
  O  O207  1  0.37158095  0.25580845  0.50515682  1
  O  O208  1  0.36545781  0.75073661  0.01431966  1
  O  O209  1  0.38022726  0.76173183  0.50812283  1
  O  O210  1  0.86799022  0.25310640  0.00875880  1
  O  O211  1  0.86683212  0.24632548  0.50768974  1
  O  O212  1  0.87817725  0.76281277  0.01256395  1
  O  O213  1  0.87795280  0.75529532  0.52024198  1
  O  O214  1  0.13155539  0.23896882  0.49309609  1
  O  O215  1  0.14074883  0.25954531  0.99861578  1
  O  O216  1  0.11860511  0.74778716  0.48148425  1
  O  O217  1  0.12471679  0.73787107  0.99145026  1
  O  O218  1  0.63435226  0.24693065  0.48974810  1
  O  O219  1  0.64185023  0.24329028  1.00936283  1
  O  O220  1  0.61454560  0.74251108  0.49286274  1
  O  O221  1  0.59731689  0.73634884  0.97591937  1
  O  O222  1  0.48647044  0.25568367  0.13600000  1
  O  O223  1  0.49799852  0.24283370  0.62786870  1
  O  O224  1  0.50251873  0.75366562  0.13993779  1
  O  O225  1  0.49252233  0.74097164  0.62356427  1
  O  O226  1  0.99090912  0.23620404  0.12086569  1
  O  O227  1  0.99290626  0.23917999  0.62646020  1
  O  O228  1  1.00461471  0.73625364  0.11961415  1
  O  O229  1  0.98804570  0.73686386  0.62612463  1
  O  O230  1  0.00969920  0.26165470  0.37934116  1
  O  O231  1  -0.00213525  0.24515605  0.85659555  1
  O  O232  1  0.00337631  0.76456236  0.37550503  1
  O  O233  1  0.00398024  0.75624556  0.87938824  1
  O  O234  1  0.50714379  0.25593895  0.37009582  1
  O  O235  1  0.49559603  0.24911414  0.86398857  1
  O  O236  1  0.50693873  0.75780339  0.37100340  1
  O  O237  1  0.47960085  0.76938981  0.86498814  1
  O  O238  1  0.24271935  0.12974368  0.49837229  1
  O  O239  1  0.24989350  0.14085370  1.00216297  1
  O  O240  1  0.25037262  0.61829626  0.48734316  1
  O  O241  1  0.23601410  0.62021550  1.00512267  1
  O  O242  1  0.74920012  0.13316210  0.49217288  1
  O  O243  1  0.75755808  0.12716544  0.98605525  1
  O  O244  1  0.73547871  0.62679916  0.49923509  1
  O  O245  1  0.74971199  0.62568627  0.98511112  1
  O  O246  1  0.25885837  0.36820157  0.01078948  1
  O  O247  1  0.25646946  0.37092283  0.50450185  1
  O  O248  1  0.32380649  0.80458862  -0.01301388  1
  O  O249  1  0.26302374  0.88251190  0.49921090  1
  O  O250  1  0.75730698  0.35722487  0.00745118  1
  O  O251  1  0.75130702  0.36291951  0.50382140  1
  O  O252  1  0.76706594  0.88245876  -0.00767187  1
  O  O253  1  0.74855436  0.87765302  0.51160013  1
  O  O254  1  0.13683875  0.50907363  0.23835062  1
  O  O255  1  0.13276304  0.49135469  0.74660148  1
  O  O256  1  0.12299219  1.00088776  0.23634221  1
  O  O257  1  0.11798503  0.98101197  0.75291458  1
  O  O258  1  0.62838821  0.49971480  0.24402853  1
  O  O259  1  0.61971226  0.48763110  0.73632316  1
  O  O260  1  0.63754012  0.98977985  0.24270080  1
  O  O261  1  0.63458634  1.00740216  0.73859546  1
  O  O262  1  0.37849893  -0.00433042  0.26438128  1
  O  O263  1  0.37777697  0.01873735  0.75412227  1
  O  O264  1  0.36405685  0.51064888  0.25626624  1
  O  O265  1  0.37053800  0.49274231  0.76845913  1
  O  O266  1  0.86437083  -0.00367837  0.26174171  1
  O  O267  1  0.86174326  0.01059774  0.74152589  1
  O  O268  1  0.88541604  0.50876616  0.25371301  1
  O  O269  1  0.89500316  0.48257631  0.76296908  1
  O  O270  1  0.11631537  0.36488098  0.37792480  1
  O  O271  1  0.12989245  0.36667854  0.86066052  1
  O  O272  1  0.11362830  0.86844910  0.37403588  1
  O  O273  1  0.11213475  0.85704094  0.86696728  1
  O  O274  1  0.61682441  0.36381019  0.38119493  1
  O  O275  1  0.63441187  0.38317763  0.86063894  1
  O  O276  1  0.61404262  0.86937703  0.38102921  1
  O  O277  1  0.61560319  0.86038203  0.87886827  1
  O  O278  1  0.37114976  0.14178780  0.12557300  1
  O  O279  1  0.38694543  0.13071879  0.63168228  1
  O  O280  1  0.37988498  0.62216339  0.14153254  1
  O  O281  1  0.38154454  0.64047910  0.62121128  1
  O  O282  1  0.88714380  0.13138176  0.12032685  1
  O  O283  1  0.87958690  0.13010570  0.62769759  1
  O  O284  1  0.88624170  0.63881054  0.11525355  1
  O  O285  1  0.87734064  0.63265657  0.62125788  1
  O  O286  1  0.25902951  0.25735877  0.12054791  1
  O  O287  1  0.25754258  0.25652378  0.61898806  1
  O  O288  1  0.25123414  0.77201210  0.13451067  1
  O  O289  1  0.25976942  0.75332768  0.62301188  1
  O  O290  1  0.76268155  0.24480814  0.11683219  1
  O  O291  1  0.75353360  0.25335345  0.61706284  1
  O  O292  1  0.75653847  0.74125051  0.12787459  1
  O  O293  1  0.75495185  0.76119516  0.63081060  1
  O  O294  1  0.24575877  0.24356593  0.38053546  1
  O  O295  1  0.25572649  0.25630769  0.89088922  1
  O  O296  1  0.23626635  0.74496206  0.37227644  1
  O  O297  1  0.23542443  0.75052453  0.86994360  1
  O  O298  1  0.74695215  0.24485139  0.37826709  1
  O  O299  1  0.74705219  0.23507772  0.88848008  1
  O  O300  1  0.73577866  0.74564358  0.37306902  1
  O  O301  1  0.74199773  0.74807609  0.87661926  1
  O  O302  1  -0.01121919  0.11003089  -0.01180558  1
  O  O303  1  0.00737429  0.11803272  0.50380109  1
  O  O304  1  0.00854645  0.61033965  0.01043923  1
  O  O305  1  0.00034993  0.61321607  0.50678583  1
  O  O306  1  0.49584634  0.12156314  0.00862833  1
  O  O307  1  0.49930196  0.11769588  0.50865112  1
  O  O308  1  0.48026121  0.62584982  0.02516230  1
  O  O309  1  0.50820636  0.61772132  0.50839066  1
  O  O310  1  0.49761289  0.38319122  0.49333782  1
  O  O311  1  0.48656021  0.36823850  1.00802233  1
  O  O312  1  0.49260421  0.88339809  0.49280026  1
  O  O313  1  0.49681008  0.88798086  0.97739040  1
  O  O314  1  1.00101621  0.38632292  0.50197764  1
  O  O315  1  0.99548376  0.38484749  1.00911245  1
  O  O316  1  1.00542090  0.88813376  0.49876430  1
  O  O317  1  0.99824716  0.87838833  0.98956374  1
  O  O318  1  0.50319662  0.49515249  0.38614198  1
  O  O319  1  0.49541897  0.49735697  0.87215903  1
  O  O320  1  0.49699054  0.99542196  0.38189989  1
  O  O321  1  0.48447184  1.00031625  0.87651829  1
  O  O322  1  1.01051415  0.48522154  0.38043450  1
  O  O323  1  1.01498407  0.49656483  0.89542794  1
  O  O324  1  0.99544139  0.98997409  0.37890303  1
  O  O325  1  1.00276055  0.98391781  0.88566272  1
  O  O326  1  0.00172572  0.01422149  0.11855906  1
  O  O327  1  -0.01090196  0.01010036  0.61656646  1
  O  O328  1  0.01007918  0.50465544  0.11773415  1
  O  O329  1  0.00654428  0.50559213  0.61542234  1
  O  O330  1  0.50217747  -0.00598685  0.12221283  1
  O  O331  1  0.50475956  0.00579408  0.62000560  1
  O  O332  1  0.49534190  0.50937270  0.13426309  1
  O  O333  1  0.50812500  0.50612479  0.61627094  1
  O  O334  1  0.25973415  0.38767382  0.24122763  1
  O  O335  1  0.24570444  0.38036265  0.74484162  1
  O  O336  1  0.28399635  0.83289799  0.17642665  1
  O  O337  1  0.22750924  0.87170472  0.75044498  1
  O  O338  1  0.75758258  0.36489947  0.23581629  1
  O  O339  1  0.73483111  0.37359545  0.73428103  1
  O  O340  1  0.75118190  0.88869363  0.25906053  1
  O  O341  1  0.75330216  0.88849035  0.74555687  1
  O  O342  1  0.24905387  0.12857428  0.26143458  1
  O  O343  1  0.26745538  0.13229344  0.74293222  1
  O  O344  1  0.25544151  0.62047757  0.25797405  1
  O  O345  1  0.25814772  0.61115154  0.74500885  1
  O  O346  1  0.74608212  0.11080527  0.26111742  1
  O  O347  1  0.75268153  0.12026761  0.75799348  1
  O  O348  1  0.74571114  0.62601715  0.26694422  1
  O  O349  1  0.74998602  0.62257074  0.77215067  1
  O  O350  1  0.36556981  0.11692149  0.38190437  1
  O  O351  1  0.37769369  0.12335527  0.86200943  1
  O  O352  1  0.36615790  0.62609619  0.36999652  1
  O  O353  1  0.38537884  0.60932720  0.88074096  1
  O  O354  1  0.86630974  0.11719467  0.37637782  1
  O  O355  1  0.86507514  0.12831310  0.85856936  1
  O  O356  1  0.85613063  0.63601555  0.38428469  1
  O  O357  1  0.86765021  0.62839996  0.88078765  1
  O  O358  1  0.13676966  0.38522191  0.12147003  1
  O  O359  1  0.13329689  0.37958917  0.63314236  1
  O  O360  1  0.11929421  0.89008516  0.12324715  1
  O  O361  1  0.11478554  0.85824275  0.64296717  1
  O  O362  1  0.64493888  0.36693128  0.12299040  1
  O  O363  1  0.63239604  0.38278389  0.62267576  1
  O  O364  1  0.62327727  0.88946508  0.12022005  1
  O  O365  1  0.63468975  0.88345067  0.62250367  1
  O  O366  1  0.13126344  0.24622895  0.26174885  1
  O  O367  1  0.11604925  0.25593004  0.74481904  1
  O  O368  1  0.11991836  0.74697702  0.26780655  1
  O  O369  1  0.11541877  0.74817039  0.76367539  1
  O  O370  1  0.61728858  0.24440075  0.25929661  1
  O  O371  1  0.61899079  0.26371856  0.74705941  1
  O  O372  1  0.61487412  0.75284728  0.26230465  1
  O  O373  1  0.61772289  0.74253171  0.77136116  1
  O  O374  1  0.37988312  0.25499411  0.23827729  1
  O  O375  1  0.38441603  0.24558526  0.74533251  1
  O  O376  1  0.38432581  0.74139430  0.26023022  1
  O  O377  1  0.36891211  0.75211439  0.73487315  1
  O  O378  1  0.87429107  0.24453065  0.23394416  1
  O  O379  1  0.88322747  0.24002054  0.73311770  1
  O  O380  1  0.87352524  0.75528531  0.23270228  1
  O  O381  1  0.87898964  0.75669678  0.73043790  1
  O  O382  1  0.38684506  0.49637901  0.50194002  1
  O  O383  1  0.37355590  0.48908803  0.99062289  1
  O  O384  1  0.38685479  0.99328091  0.49753979  1
  O  O385  1  0.36718574  1.00564264  0.98453407  1
  O  O386  1  0.88784465  0.49690439  0.48799069  1
  O  O387  1  0.89160207  0.49049558  1.00780041  1
  O  O388  1  0.88487109  1.00434428  0.48612564  1
  O  O389  1  0.89262295  0.98067280  1.00961088  1
  O  O390  1  0.10802955  0.00524394  0.01071603  1
  O  O391  1  0.11552641  0.01188305  0.49163339  1
  O  O392  1  0.12158517  0.50675733  0.00958223  1
  O  O393  1  0.11956737  0.50304036  0.50812245  1
  O  O394  1  0.62438992  0.00106559  0.01263446  1
  O  O395  1  0.61297773  0.00137432  0.50911920  1
  O  O396  1  0.62377076  0.50680662  0.02099445  1
  O  O397  1  0.61786345  0.50866877  0.50943403  1
  O  O398  1  0.36578667  0.37345976  0.11544205  1
  O  O399  1  0.37362376  0.37198182  0.62107897  1
  O  O400  1  0.34056004  0.87079019  0.13270295  1
  O  O401  1  0.37983722  0.86276386  0.61900188  1
  O  O402  1  0.87125517  0.35790552  0.11697731  1
  O  O403  1  0.86408377  0.36339399  0.61898074  1
  O  O404  1  0.87728479  0.86232679  0.11581200  1
  O  O405  1  0.85999672  0.87166509  0.62395772  1
  O  O406  1  0.13356537  0.13070116  0.38269036  1
  O  O407  1  0.12889887  0.12453208  0.86191182  1
  O  O408  1  0.13088507  0.63433203  0.37621135  1
  O  O409  1  0.12010000  0.63397203  0.88788367  1
  O  O410  1  0.63600542  0.13327754  0.37724285  1
  O  O411  1  0.63433416  0.12441009  0.86963270  1
  O  O412  1  0.63081755  0.63319204  0.38489788  1
  O  O413  1  0.63391456  0.63127485  0.87894307  1
