# generated using pymatgen
data_V79Zn79O256
_symmetry_space_group_name_H-M   'P 1'
_cell_length_a   16.95987565
_cell_length_b   16.93526273
_cell_length_c   16.88706531
_cell_angle_alpha   90.00068693
_cell_angle_beta   89.82836636
_cell_angle_gamma   89.98976753
_symmetry_Int_Tables_number   1
_chemical_formula_structural   V79Zn79O256
_chemical_formula_sum   'V79 Zn79 O256'
_cell_volume   4850.28021549
_cell_formula_units_Z   1
loop_
 _symmetry_equiv_pos_site_id
 _symmetry_equiv_pos_as_xyz
  1  'x, y, z'
loop_
 _atom_site_type_symbol
 _atom_site_label
 _atom_site_symmetry_multiplicity
 _atom_site_fract_x
 _atom_site_fract_y
 _atom_site_fract_z
 _atom_site_occupancy
  V  V0  1  0.12914031  0.11328979  0.50831701  1
  V  V1  1  0.74457053  0.48799328  0.73510008  1
  V  V2  1  0.37097978  0.86856112  0.00507201  1
  V  V3  1  -0.01802371  -0.00799739  0.50938731  1
  V  V4  1  0.11761056  0.85516563  0.24801195  1
  V  V5  1  0.87843491  0.26396277  0.59987723  1
  V  V6  1  0.50001227  -0.00199957  0.00117480  1
  V  V7  1  0.50891227  0.50335493  0.50241038  1
  V  V8  1  0.06586338  0.06750026  0.17527365  1
  V  V9  1  0.87332498  0.13535342  0.75082670  1
  V  V10  1  0.64164668  -0.00474258  0.12670644  1
  V  V11  1  0.12450376  0.37239112  0.25477926  1
  V  V12  1  0.50157740  0.74930957  0.74573525  1
  V  V13  1  0.62756773  0.74526079  0.87855406  1
  V  V14  1  0.37482779  0.61739202  0.75067280  1
  V  V15  1  0.75410112  0.87537660  0.62398765  1
  V  V16  1  0.62088417  0.74681694  0.37797773  1
  V  V17  1  0.01146459  0.62338790  0.13997629  1
  V  V18  1  0.24404142  0.75196410  0.00331836  1
  V  V19  1  0.13754174  0.12036649  -0.00594155  1
  V  V20  1  0.36017143  0.00173295  0.87142608  1
  V  V21  1  0.12289980  0.61849124  0.00052561  1
  V  V22  1  0.87853485  0.50069067  0.88593175  1
  V  V23  1  0.12150404  0.75507614  0.86164874  1
  V  V24  1  0.75117951  0.74922192  0.50291624  1
  V  V25  1  0.50662692  0.12104021  0.62566720  1
  V  V26  1  0.49837245  0.25000288  0.74546503  1
  V  V27  1  0.25082956  0.61817133  0.87140321  1
  V  V28  1  0.74621598  0.62374747  0.37997764  1
  V  V29  1  0.49260088  0.24911775  0.24655852  1
  V  V30  1  0.24118570  0.87966308  0.12100822  1
  V  V31  1  0.50315508  0.00068564  0.50273269  1
  V  V32  1  0.62515367  0.87946394  0.74345645  1
  V  V33  1  0.85707418  -0.00082099  0.36233928  1
  V  V34  1  0.62149802  0.38917460  0.24087618  1
  V  V35  1  0.37075736  0.49973796  0.37390903  1
  V  V36  1  0.87301383  0.49695725  0.38020110  1
  V  V37  1  0.74739314  0.26285917  0.00620126  1
  V  V38  1  0.87142043  0.00428898  0.87499371  1
  V  V39  1  0.50078608  0.87377364  0.87345156  1
  V  V40  1  0.62628744  0.24734658  0.86468303  1
  V  V41  1  -0.00569904  0.36356333  0.88113771  1
  V  V42  1  0.12450751  0.25197477  0.37854585  1
  V  V43  1  0.36870077  0.87004488  0.49946718  1
  V  V44  1  0.36642373  0.74756491  0.62065467  1
  V  V45  1  0.24454419  0.50201326  0.24570161  1
  V  V46  1  0.25452028  0.24997689  0.52025814  1
  V  V47  1  0.51280149  0.62455085  0.62020062  1
  V  V48  1  0.88102463  0.75200311  0.62717752  1
  V  V49  1  0.25384540  0.12590543  0.37653452  1
  V  V50  1  0.12713052  0.36863740  0.74962172  1
  V  V51  1  0.24714504  0.63241069  0.38932827  1
  V  V52  1  -0.00152120  0.48613879  0.49981623  1
  V  V53  1  0.00270461  0.00709161  -0.00063804  1
  V  V54  1  0.13222917  0.49667122  0.62364331  1
  V  V55  1  0.37534820  0.39468052  -0.00914101  1
  V  V56  1  0.37448969  0.63553918  0.24590400  1
  V  V57  1  0.61816059  0.50312638  0.09939402  1
  V  V58  1  0.00385951  0.12773319  0.62841985  1
  V  V59  1  0.36770433  0.12374090  0.74966322  1
  V  V60  1  0.12139512  0.74826563  0.39713656  1
  V  V61  1  0.50084173  0.38567901  0.87355829  1
  V  V62  1  0.00166188  0.87395658  0.86475025  1
  V  V63  1  0.64024566  0.23947975  0.37042979  1
  V  V64  1  0.74795108  0.62558418  0.87553506  1
  V  V65  1  0.24965490  0.37850673  0.12098952  1
  V  V66  1  0.24622357  0.88858737  0.63639011  1
  V  V67  1  0.88182213  0.62460649  0.74847616  1
  V  V68  1  0.74910673  0.00330751  0.75060401  1
  V  V69  1  0.49571648  0.62538532  0.10827822  1
  V  V70  1  0.87225498  0.63226489  0.25441056  1
  V  V71  1  0.37303700  0.24624519  0.10847391  1
  V  V72  1  0.37002341  0.37055095  0.51415882  1
  V  V73  1  0.62889380  0.12456296  -0.00346913  1
  V  V74  1  0.49559932  0.37252067  0.37187069  1
  V  V75  1  0.00392036  0.62537718  0.61941326  1
  V  V76  1  0.37440142  -0.00077102  0.37162273  1
  V  V77  1  0.63730977  0.87158455  0.24281434  1
  V  V78  1  0.14736677  0.24779713  0.88125867  1
  Zn  Zn79  1  0.67182287  0.04329733  0.56350493  1
  Zn  Zn80  1  -0.00139102  0.49834586  0.00920748  1
  Zn  Zn81  1  0.24211828  0.00256981  0.24598427  1
  Zn  Zn82  1  0.49913926  0.12112373  0.12496468  1
  Zn  Zn83  1  0.49779678  0.87413426  0.36968588  1
  Zn  Zn84  1  0.86767433  0.87888681  0.00966978  1
  Zn  Zn85  1  -0.02472626  0.34647952  0.35913949  1
  Zn  Zn86  1  -0.01023631  0.86883360  0.38406695  1
  Zn  Zn87  1  0.77270792  0.39339649  0.11593913  1
  Zn  Zn88  1  0.92201055  0.25266928  0.18291659  1
  Zn  Zn89  1  0.49488715  0.75293783  0.24225366  1
  Zn  Zn90  1  0.86899296  0.75390760  0.12710457  1
  Zn  Zn91  1  0.25654380  0.49003979  0.74826943  1
  Zn  Zn92  1  0.37294722  0.12257972  0.24545398  1
  Zn  Zn93  1  0.74761469  0.75773788  0.00839805  1
  Zn  Zn94  1  0.19380798  0.19592915  0.18835004  1
  Zn  Zn95  1  0.18060192  0.17769988  0.70023965  1
  Zn  Zn96  1  0.19044307  0.68820975  0.18798050  1
  Zn  Zn97  1  0.18774638  0.68385342  0.68377482  1
  Zn  Zn98  1  0.68125620  0.19091708  0.18485279  1
  Zn  Zn99  1  0.71106406  0.17924334  0.64322679  1
  Zn  Zn100  1  0.68079962  0.68079008  0.19038044  1
  Zn  Zn101  1  0.69341696  0.68588150  0.69431337  1
  Zn  Zn102  1  0.30962909  0.31076959  0.31232977  1
  Zn  Zn103  1  0.31613579  0.31191274  0.80893183  1
  Zn  Zn104  1  0.30318327  0.81577728  0.31126437  1
  Zn  Zn105  1  0.31580001  0.80615762  0.81385418  1
  Zn  Zn106  1  0.81093083  0.32771518  0.28664161  1
  Zn  Zn107  1  0.80971630  0.31492699  0.81683725  1
  Zn  Zn108  1  0.81417723  0.81361913  0.31733810  1
  Zn  Zn109  1  0.81565497  0.81324824  0.81358853  1
  Zn  Zn110  1  0.18916424  0.43767221  0.44158561  1
  Zn  Zn111  1  0.18707043  0.43408818  0.93611234  1
  Zn  Zn112  1  0.19130762  0.93129980  0.43863176  1
  Zn  Zn113  1  0.18187418  0.94182919  0.80070238  1
  Zn  Zn114  1  0.68462552  0.43282192  0.42832650  1
  Zn  Zn115  1  0.68840351  0.43759286  0.92631965  1
  Zn  Zn116  1  0.68972063  0.92640024  0.43136283  1
  Zn  Zn117  1  0.68946823  0.93223841  0.93591257  1
  Zn  Zn118  1  0.31069260  0.05717220  0.05838637  1
  Zn  Zn119  1  0.31893171  0.06261203  0.56490424  1
  Zn  Zn120  1  0.31223773  0.56649384  0.06110362  1
  Zn  Zn121  1  0.31899502  0.55955158  0.56519103  1
  Zn  Zn122  1  0.81557517  0.07227820  0.06194011  1
  Zn  Zn123  1  0.83707075  0.10588557  0.51821706  1
  Zn  Zn124  1  0.78802884  0.59361046  0.08227205  1
  Zn  Zn125  1  0.81397487  0.56389415  0.56037835  1
  Zn  Zn126  1  0.43568382  0.44192191  0.18099962  1
  Zn  Zn127  1  0.44701093  0.43841843  0.68815081  1
  Zn  Zn128  1  0.43791227  0.93085891  0.18753092  1
  Zn  Zn129  1  0.43418062  0.93743187  0.68572606  1
  Zn  Zn130  1  0.93825966  0.44594765  0.19112134  1
  Zn  Zn131  1  0.94114635  0.43683514  0.69589514  1
  Zn  Zn132  1  0.93065417  0.93656446  0.19834069  1
  Zn  Zn133  1  0.93761223  0.94085130  0.68809994  1
  Zn  Zn134  1  0.05331818  0.06739735  0.33740359  1
  Zn  Zn135  1  0.05721795  0.06921967  0.81625838  1
  Zn  Zn136  1  0.06492578  0.56304499  0.31967309  1
  Zn  Zn137  1  0.06453053  0.56105864  0.80955155  1
  Zn  Zn138  1  0.56315962  0.06083434  0.31010313  1
  Zn  Zn139  1  0.56116514  0.06372965  0.81172562  1
  Zn  Zn140  1  0.55593347  0.56805143  0.31258876  1
  Zn  Zn141  1  0.56731467  0.56196967  0.80349273  1
  Zn  Zn142  1  0.43990444  0.18662413  0.44056743  1
  Zn  Zn143  1  0.44183939  0.18418722  0.93125011  1
  Zn  Zn144  1  0.43605458  0.68709414  0.43618409  1
  Zn  Zn145  1  0.43493234  0.68840576  0.93198095  1
  Zn  Zn146  1  0.89769422  0.20372633  0.38967657  1
  Zn  Zn147  1  0.95325578  0.21318074  0.99340118  1
  Zn  Zn148  1  0.93757362  0.68513617  0.44543777  1
  Zn  Zn149  1  0.93754975  0.68842438  0.94561556  1
  Zn  Zn150  1  0.06940031  0.31616466  0.06359647  1
  Zn  Zn151  1  0.06363784  0.31062239  0.56023591  1
  Zn  Zn152  1  0.02537905  0.82785297  0.08065179  1
  Zn  Zn153  1  0.06672944  0.81533155  0.57354432  1
  Zn  Zn154  1  0.55812562  0.31459719  0.05569113  1
  Zn  Zn155  1  0.56034192  0.30108018  0.55202376  1
  Zn  Zn156  1  0.56108492  0.81004934  0.06257415  1
  Zn  Zn157  1  0.55943372  0.81363506  0.55924341  1
  O  O158  1  0.12728988  0.13024143  0.11632620  1
  O  O159  1  0.11289842  0.13110625  0.62105909  1
  O  O160  1  0.11720586  0.62774861  0.12059750  1
  O  O161  1  0.11606143  0.60823509  0.63380395  1
  O  O162  1  0.62054681  0.10851266  0.12092353  1
  O  O163  1  0.60947057  0.11778295  0.63766516  1
  O  O164  1  0.60924882  0.61008969  0.12650040  1
  O  O165  1  0.61120245  0.63584898  0.62746921  1
  O  O166  1  0.37981741  0.38303313  0.37709362  1
  O  O167  1  0.38122977  0.37325188  0.88470302  1
  O  O168  1  0.37007572  0.88206503  0.38108091  1
  O  O169  1  0.38072491  0.88437964  0.88023760  1
  O  O170  1  0.86892300  0.39549773  0.37528475  1
  O  O171  1  0.88703624  0.38766308  0.87162130  1
  O  O172  1  0.87667995  0.88956248  0.37286263  1
  O  O173  1  0.88789673  0.88349874  0.87471485  1
  O  O174  1  0.25783586  0.00897783  0.37549109  1
  O  O175  1  0.26300901  -0.00626399  0.87386457  1
  O  O176  1  0.25554768  0.51023759  0.37052407  1
  O  O177  1  0.24323308  0.51494472  0.87078033  1
  O  O178  1  0.75663462  -0.00694445  0.37070792  1
  O  O179  1  0.75885229  -0.00546753  0.86293378  1
  O  O180  1  0.76301140  0.50919720  0.39219538  1
  O  O181  1  0.76222972  0.50436222  0.86473602  1
  O  O182  1  0.25929357  0.49123050  0.13510142  1
  O  O183  1  0.23516972  0.50233685  0.62248716  1
  O  O184  1  0.24846661  0.98525764  0.12510114  1
  O  O185  1  0.25960015  0.98773206  0.62853492  1
  O  O186  1  0.72491403  0.50148377  0.11639416  1
  O  O187  1  0.75880424  0.50336239  0.63546781  1
  O  O188  1  0.73922267  1.00061181  0.12169292  1
  O  O189  1  0.74607480  0.98368014  0.63581035  1
  O  O190  1  0.02130768  0.38784063  0.25765480  1
  O  O191  1  0.01531613  0.38080523  0.77140058  1
  O  O192  1  0.01927047  0.88102756  0.26298003  1
  O  O193  1  0.00003010  0.88060125  0.76488711  1
  O  O194  1  0.49763319  0.37081813  0.25522290  1
  O  O195  1  0.48785416  0.36280978  0.76232558  1
  O  O196  1  0.50859674  0.86860567  0.25079459  1
  O  O197  1  0.50671043  0.87073546  0.75155669  1
  O  O198  1  0.49353664  0.13520464  0.24518612  1
  O  O199  1  0.49377692  0.13105290  0.74612385  1
  O  O200  1  0.48540406  0.62869963  0.24773049  1
  O  O201  1  0.49322135  0.62775124  0.74000155  1
  O  O202  1  1.01381389  0.12347165  0.24051267  1
  O  O203  1  0.98580397  0.11942516  0.73663165  1
  O  O204  1  0.99851857  0.62302232  0.24601146  1
  O  O205  1  0.99028829  0.61590317  0.73682151  1
  O  O206  1  0.37953727  0.25067486  0.00720573  1
  O  O207  1  0.37182844  0.26385266  0.49821724  1
  O  O208  1  0.36072463  0.76127547  -0.01336953  1
  O  O209  1  0.38044217  0.75848494  0.50755580  1
  O  O210  1  0.84331757  0.23795832  -0.00688217  1
  O  O211  1  0.87732527  0.24400879  0.49933406  1
  O  O212  1  0.86874128  0.75516870  0.00237418  1
  O  O213  1  0.86367815  0.74721515  0.51300178  1
  O  O214  1  0.13958180  0.24297339  0.49779234  1
  O  O215  1  0.12423936  0.24037614  0.98822458  1
  O  O216  1  0.13268598  0.75373670  0.49495485  1
  O  O217  1  0.13506413  0.73814559  0.98854131  1
  O  O218  1  0.61345201  0.24617745  0.46879853  1
  O  O219  1  0.62430399  0.24266291  0.99185798  1
  O  O220  1  0.63317914  0.75650569  0.48737581  1
  O  O221  1  0.62518544  0.75588600  0.98208379  1
  O  O222  1  0.48660246  0.25105683  0.12815466  1
  O  O223  1  0.50769662  0.24305796  0.63567856  1
  O  O224  1  0.50748755  0.73078324  0.12538399  1
  O  O225  1  0.49080843  0.74305288  0.62616178  1
  O  O226  1  0.98939821  0.24567103  0.09724058  1
  O  O227  1  0.99638235  0.23390598  0.61555690  1
  O  O228  1  0.99111544  0.72333824  0.12016929  1
  O  O229  1  0.99166761  0.74121273  0.61811134  1
  O  O230  1  0.02378306  0.24405188  0.39184927  1
  O  O231  1  -0.00992940  0.26427848  0.88867978  1
  O  O232  1  0.01595844  0.75085157  0.38985012  1
  O  O233  1  0.01132139  0.76299107  0.88219251  1
  O  O234  1  0.49453057  0.25865649  0.36375647  1
  O  O235  1  0.50726083  0.25509895  0.86621983  1
  O  O236  1  0.51067756  0.74867093  0.37391172  1
  O  O237  1  0.50615236  0.75392473  0.86611175  1
  O  O238  1  0.24991979  0.13100157  0.49760766  1
  O  O239  1  0.23668806  0.12097331  1.00023059  1
  O  O240  1  0.25713844  0.62102825  0.48733363  1
  O  O241  1  0.24689855  0.63260806  0.99263988  1
  O  O242  1  0.73266293  0.13219526  0.53842980  1
  O  O243  1  0.73220405  0.13275101  1.00453076  1
  O  O244  1  0.75139850  0.63674524  0.49259525  1
  O  O245  1  0.75074602  0.62205439  0.97628656  1
  O  O246  1  0.26361080  0.38223301  0.00681277  1
  O  O247  1  0.26381589  0.36761748  0.49925198  1
  O  O248  1  0.25441551  0.86676201  0.00641467  1
  O  O249  1  0.26383763  0.87905756  0.51311553  1
  O  O250  1  0.74688457  0.36862789  -0.00053488  1
  O  O251  1  0.71318443  0.37310279  0.52985791  1
  O  O252  1  0.75326866  0.87273133  0.00303959  1
  O  O253  1  0.74502744  0.86344318  0.51334910  1
  O  O254  1  0.14013602  0.49304243  0.26175661  1
  O  O255  1  0.12727211  0.49057218  0.73934315  1
  O  O256  1  0.12012535  1.00776752  0.24283056  1
  O  O257  1  0.13054215  1.02266032  0.74865210  1
  O  O258  1  0.61236482  0.48938503  0.25207442  1
  O  O259  1  0.64434598  0.50010121  0.74918117  1
  O  O260  1  0.62091089  0.98679515  0.23571409  1
  O  O261  1  0.63353153  0.98895480  0.75860580  1
  O  O262  1  0.37215900  -0.00092790  0.26034261  1
  O  O263  1  0.38406602  0.00757663  0.76464051  1
  O  O264  1  0.36672583  0.50616298  0.25956463  1
  O  O265  1  0.37357468  0.51268625  0.73882556  1
  O  O266  1  0.87883518  0.01017812  0.26383606  1
  O  O267  1  0.86533242  0.00300164  0.75501495  1
  O  O268  1  0.88570453  0.51531971  0.27535917  1
  O  O269  1  0.87014251  0.50887048  0.75553817  1
  O  O270  1  0.13773436  0.36512866  0.36925296  1
  O  O271  1  0.12029664  0.36060254  0.87406614  1
  O  O272  1  0.13498605  0.85792030  0.36861025  1
  O  O273  1  0.11873959  0.86352036  0.86772736  1
  O  O274  1  0.61068769  0.37031584  0.36042213  1
  O  O275  1  0.60705821  0.36257239  0.88166273  1
  O  O276  1  0.62310702  0.86481798  0.35894395  1
  O  O277  1  0.61953202  0.86677145  0.86367261  1
  O  O278  1  0.37203846  0.13680427  0.12186743  1
  O  O279  1  0.38771941  0.11759013  0.64246551  1
  O  O280  1  0.38559571  0.61865324  0.13366638  1
  O  O281  1  0.38291630  0.63116282  0.62961774  1
  O  O282  1  0.84021735  0.14661394  0.15440315  1
  O  O283  1  0.88750812  0.14034377  0.63091844  1
  O  O284  1  0.88240345  0.61375582  0.15019358  1
  O  O285  1  0.88335370  0.63238375  0.63006666  1
  O  O286  1  0.26745015  0.26326181  0.12834797  1
  O  O287  1  0.24686292  0.24156190  0.61874892  1
  O  O288  1  0.24370108  0.76044695  0.11364981  1
  O  O289  1  0.26338883  0.75268705  0.62910735  1
  O  O290  1  0.73001312  0.26398616  0.10850399  1
  O  O291  1  0.78333438  0.26345985  0.63509904  1
  O  O292  1  0.75925395  0.70814099  0.11461467  1
  O  O293  1  0.75727991  0.75366902  0.62116452  1
  O  O294  1  0.24893178  0.23951521  0.38487431  1
  O  O295  1  0.24544410  0.25132014  0.88141093  1
  O  O296  1  0.24376258  0.73708596  0.37529084  1
  O  O297  1  0.23788020  0.74371077  0.87856951  1
  O  O298  1  0.73676557  0.26585835  0.36194821  1
  O  O299  1  0.72903043  0.26102797  0.88263680  1
  O  O300  1  0.74382950  0.74442719  0.38387314  1
  O  O301  1  0.74155680  0.74164285  0.86712384  1
  O  O302  1  0.00727127  0.11283653  -0.00759609  1
  O  O303  1  0.01130997  0.10686862  0.51373212  1
  O  O304  1  0.01003443  0.62018153  0.00594952  1
  O  O305  1  -0.00006058  0.61378509  0.51366521  1
  O  O306  1  0.50932759  0.11504969  0.00101493  1
  O  O307  1  0.49211015  0.11439945  0.51195206  1
  O  O308  1  0.48901213  0.62517281  0.00862635  1
  O  O309  1  0.49110659  0.61000616  0.50407134  1
  O  O310  1  0.48943414  0.38254833  0.49208222  1
  O  O311  1  0.48499789  0.37352599  0.98625741  1
  O  O312  1  0.48671620  0.88210018  0.49657814  1
  O  O313  1  0.49035077  0.87790397  0.99586283  1
  O  O314  1  1.00460627  0.38498565  0.48722174  1
  O  O315  1  1.01411235  0.38690445  0.98407542  1
  O  O316  1  1.01062948  0.89103665  0.50776237  1
  O  O317  1  1.00499535  0.89406067  0.98697809  1
  O  O318  1  0.48778600  0.49491293  0.38199018  1
  O  O319  1  0.50509171  0.48421706  0.86344624  1
  O  O320  1  0.48940274  1.00131913  0.38077224  1
  O  O321  1  0.50221347  0.99238965  0.88800089  1
  O  O322  1  0.99281574  0.50845867  0.39175895  1
  O  O323  1  0.98599877  0.50278115  0.87589520  1
  O  O324  1  0.99247061  0.99536951  0.39681269  1
  O  O325  1  0.99309324  0.99246362  0.87934912  1
  O  O326  1  0.00068930  0.00822349  0.12004548  1
  O  O327  1  -0.00520068  0.01152708  0.61900041  1
  O  O328  1  -0.00246235  0.51562923  0.12423373  1
  O  O329  1  0.00561040  0.50312419  0.61453615  1
  O  O330  1  0.49847685  -0.00218133  0.11030195  1
  O  O331  1  0.49519404  0.00420797  0.61383144  1
  O  O332  1  0.50519582  0.51229619  0.12399536  1
  O  O333  1  0.50056868  0.50579517  0.61029508  1
  O  O334  1  0.24857345  0.38412824  0.24330187  1
  O  O335  1  0.23588558  0.37530241  0.75739183  1
  O  O336  1  0.23298384  0.87862604  0.24239716  1
  O  O337  1  0.25783679  0.87454367  0.74280165  1
  O  O338  1  0.72135326  0.37856160  0.23906902  1
  O  O339  1  0.75860183  0.38918536  0.75062699  1
  O  O340  1  0.73640484  0.86589074  0.24547296  1
  O  O341  1  0.74340881  0.87986843  0.74455127  1
  O  O342  1  0.25273252  0.12424785  0.26233230  1
  O  O343  1  0.26925644  0.12666109  0.74877101  1
  O  O344  1  0.25650364  0.61781212  0.25368522  1
  O  O345  1  0.25881285  0.62324095  0.75486447  1
  O  O346  1  0.78490365  0.13979115  0.21324209  1
  O  O347  1  0.76448364  0.11346053  0.73490600  1
  O  O348  1  0.76385407  0.62439405  0.26569086  1
  O  O349  1  0.76194724  0.61541228  0.75593795  1
  O  O350  1  0.36753397  0.11704816  0.37731686  1
  O  O351  1  0.37927823  0.10937296  0.86892898  1
  O  O352  1  0.36414347  0.61919657  0.36852255  1
  O  O353  1  0.36397242  0.63280562  0.86130949  1
  O  O354  1  0.86952510  0.09791458  0.40391541  1
  O  O355  1  0.88099383  0.10926532  0.85754599  1
  O  O356  1  0.86762845  0.62295001  0.37433149  1
  O  O357  1  0.87219766  0.61794579  0.86702494  1
  O  O358  1  0.14198239  0.36723805  0.13609911  1
  O  O359  1  0.11527384  0.38477198  0.63563305  1
  O  O360  1  0.12372677  0.86530495  0.13999661  1
  O  O361  1  0.14794227  0.87071708  0.62744304  1
  O  O362  1  0.60530605  0.39182765  0.13041489  1
  O  O363  1  0.65794292  0.36979049  0.58336340  1
  O  O364  1  0.62233849  0.88300207  0.13134865  1
  O  O365  1  0.63374716  0.86546964  0.63634634  1
  O  O366  1  0.13553117  0.26100157  0.26368150  1
  O  O367  1  0.12716573  0.25337968  0.76941117  1
  O  O368  1  0.12301319  0.75378596  0.25899103  1
  O  O369  1  0.12428852  0.74106747  0.76314587  1
  O  O370  1  0.60835023  0.26286797  0.24936458  1
  O  O371  1  0.61642023  0.24609700  0.76245130  1
  O  O372  1  0.62353051  0.75762572  0.25545437  1
  O  O373  1  0.61994644  0.75923734  0.75563181  1
  O  O374  1  0.38136244  0.25218028  0.23895307  1
  O  O375  1  0.38583281  0.23327216  0.76083633  1
  O  O376  1  0.36992878  0.73948392  0.25443204  1
  O  O377  1  0.38318969  0.74067562  0.74106540  1
  O  O378  1  0.90306614  0.26235521  0.29485374  1
  O  O379  1  0.87188428  0.23356347  0.76413127  1
  O  O380  1  0.87672657  0.73576974  0.25581126  1
  O  O381  1  0.86998610  0.73687131  0.74028987  1
  O  O382  1  0.37768496  0.48773959  0.49103212  1
  O  O383  1  0.37631459  0.49314792  0.99615005  1
  O  O384  1  0.38187777  0.99200697  0.49039971  1
  O  O385  1  0.38046058  0.99241806  0.98841016  1
  O  O386  1  0.88906603  0.50273425  0.49470235  1
  O  O387  1  0.87122245  0.50627863  0.98565131  1
  O  O388  1  0.88181392  0.99127607  0.51049467  1
  O  O389  1  0.88139732  1.00626429  0.99306422  1
  O  O390  1  0.11689721  0.01851840  -0.00356170  1
  O  O391  1  0.13363510  0.01235104  0.49795537  1
  O  O392  1  0.12941116  0.51560460  -0.00508144  1
  O  O393  1  0.11544514  0.49288822  0.51352114  1
  O  O394  1  0.61962302  0.00200701  0.00870034  1
  O  O395  1  0.60806537  -0.01399422  0.49073500  1
  O  O396  1  0.61646899  0.49640264  0.00058087  1
  O  O397  1  0.60568896  0.49774807  0.48587960  1
  O  O398  1  0.37293348  0.36910569  0.10949766  1
  O  O399  1  0.37941656  0.37989220  0.61222566  1
  O  O400  1  0.36353733  0.87785745  0.11223101  1
  O  O401  1  0.36906584  0.86580710  0.62019471  1
  O  O402  1  0.86525297  0.36266030  0.17286412  1
  O  O403  1  0.90639249  0.35904158  0.62137014  1
  O  O404  1  0.91260682  0.86229440  0.11929246  1
  O  O405  1  0.86527558  0.86283941  0.63757618  1
  O  O406  1  0.13710923  0.13097485  0.38799192  1
  O  O407  1  0.12353679  0.13938495  0.88363183  1
  O  O408  1  0.13738039  0.63565903  0.37586716  1
  O  O409  1  0.12949523  0.63373907  0.87883389  1
  O  O410  1  0.63466369  0.14047238  0.34670066  1
  O  O411  1  0.61845850  0.13771036  0.88220823  1
  O  O412  1  0.63540459  0.63435180  0.36469394  1
  O  O413  1  0.63350458  0.63609509  0.86100889  1
