# generated using pymatgen
data_V79Zn79O256
_symmetry_space_group_name_H-M   'P 1'
_cell_length_a   16.88937651
_cell_length_b   16.88191220
_cell_length_c   16.89334872
_cell_angle_alpha   90.05041148
_cell_angle_beta   90.00375371
_cell_angle_gamma   90.01457712
_symmetry_Int_Tables_number   1
_chemical_formula_structural   V79Zn79O256
_chemical_formula_sum   'V79 Zn79 O256'
_cell_volume   4816.71353785
_cell_formula_units_Z   1
loop_
 _symmetry_equiv_pos_site_id
 _symmetry_equiv_pos_as_xyz
  1  'x, y, z'
loop_
 _atom_site_type_symbol
 _atom_site_label
 _atom_site_symmetry_multiplicity
 _atom_site_fract_x
 _atom_site_fract_y
 _atom_site_fract_z
 _atom_site_occupancy
  V  V0  1  0.75495282  0.75799902  0.01184590  1
  V  V1  1  0.11361234  0.60498933  -0.00066999  1
  V  V2  1  0.11848806  0.62062649  0.51149858  1
  V  V3  1  0.49466918  0.37975780  0.37646596  1
  V  V4  1  0.36519601  0.85702367  0.01486195  1
  V  V5  1  0.13218148  0.13911759  0.49874544  1
  V  V6  1  0.86976376  0.37983182  0.00010680  1
  V  V7  1  0.25247210  0.62069020  0.87714661  1
  V  V8  1  0.75643710  0.24212613  0.50168423  1
  V  V9  1  0.37049763  0.50134326  0.37356658  1
  V  V10  1  0.63259169  -0.00563744  0.12931115  1
  V  V11  1  0.12488654  0.87269634  0.74996638  1
  V  V12  1  0.87421588  0.01027807  0.88838847  1
  V  V13  1  -0.00320696  0.49975290  0.50930964  1
  V  V14  1  0.25279206  0.50242451  0.23531375  1
  V  V15  1  0.36711796  0.37470535  -0.00004261  1
  V  V16  1  0.37947531  0.50138812  0.87126307  1
  V  V17  1  -0.00499625  0.36652898  0.37492189  1
  V  V18  1  0.37588947  0.00617558  0.37317478  1
  V  V19  1  0.00545162  0.74933004  0.22809498  1
  V  V20  1  0.61968206  0.62184339  0.00164958  1
  V  V21  1  0.12793064  0.74438291  0.88226527  1
  V  V22  1  0.13107340  0.00860482  0.09136678  1
  V  V23  1  0.11882988  0.36886608  0.25117637  1
  V  V24  1  0.12583721  0.00166964  0.62862539  1
  V  V25  1  0.00047286  0.13411569  0.12094527  1
  V  V26  1  0.50443852  0.37997797  0.88156318  1
  V  V27  1  0.50477245  0.01385361  0.50143472  1
  V  V28  1  -0.01895212  0.24375197  0.74839423  1
  V  V29  1  0.87244994  0.51102302  0.36944438  1
  V  V30  1  0.62315490  0.37502701  0.25386215  1
  V  V31  1  0.49497644  0.12721995  0.13350832  1
  V  V32  1  0.24529407  0.49930670  0.74845249  1
  V  V33  1  0.75063744  0.62404823  0.87515845  1
  V  V34  1  -0.01677235  0.12591825  0.62591229  1
  V  V35  1  -0.00042780  0.37255992  0.87942548  1
  V  V36  1  0.62895875  0.24326494  0.87293971  1
  V  V37  1  0.24661415  0.37189435  0.61242131  1
  V  V38  1  0.49201363  0.50017916  0.50004648  1
  V  V39  1  0.09566108  0.50283005  0.12835883  1
  V  V40  1  0.25690443  0.74803110  0.50495651  1
  V  V41  1  0.48310851  0.62578133  0.62681999  1
  V  V42  1  0.62172190  0.01040094  0.62237809  1
  V  V43  1  0.11775445  0.75768991  0.37524118  1
  V  V44  1  0.76035758  0.01320624  0.74922774  1
  V  V45  1  0.63087491  0.87343844  0.74843199  1
  V  V46  1  0.61920044  0.23790934  0.38535144  1
  V  V47  1  0.76412454  0.37329103  0.61678976  1
  V  V48  1  0.48404536  0.75517693  0.25212662  1
  V  V49  1  0.61753728  0.50094072  0.12368448  1
  V  V50  1  0.37437417  0.25327373  0.61670101  1
  V  V51  1  0.24449163  0.14086957  0.87642418  1
  V  V52  1  0.62491167  0.37443493  0.74748308  1
  V  V53  1  0.48926352  0.74569676  0.74518063  1
  V  V54  1  0.36057339  0.25234410  0.12138482  1
  V  V55  1  0.74832490  0.24501079  -0.00137714  1
  V  V56  1  0.12640392  0.36160705  0.75036837  1
  V  V57  1  0.48676122  0.63044517  0.12810547  1
  V  V58  1  0.00287671  -0.01184892  0.49376558  1
  V  V59  1  0.63152220  0.87569629  0.25492023  1
  V  V60  1  0.62301387  0.74502875  0.37199865  1
  V  V61  1  0.75057954  0.74414046  0.48877377  1
  V  V62  1  0.25813169  0.87043366  0.62687043  1
  V  V63  1  0.24973483  0.62485903  0.37309897  1
  V  V64  1  0.50082689  0.24666659  0.74613489  1
  V  V65  1  0.62559154  0.75139578  0.87380803  1
  V  V66  1  0.37726322  -0.00036116  0.87956956  1
  V  V67  1  0.87851711  0.62420550  0.74658030  1
  V  V68  1  0.12880959  0.89832359  0.25586480  1
  V  V69  1  0.62266244  0.50163485  0.62226769  1
  V  V70  1  0.62533897  0.12380894  0.00032372  1
  V  V71  1  0.88015865  0.87306368  0.48316862  1
  V  V72  1  0.38461659  0.87198363  0.49901129  1
  V  V73  1  0.00109709  0.74372012  0.74663894  1
  V  V74  1  0.37764909  0.12519401  0.74564171  1
  V  V75  1  -0.00050926  0.87781183  0.88545813  1
  V  V76  1  0.75108447  0.49961474  0.74844151  1
  V  V77  1  0.87413511  0.75158263  0.62719064  1
  V  V78  1  0.74685139  0.37554201  0.12902422  1
  Zn  Zn79  1  0.88349064  0.86962534  0.01003076  1
  Zn  Zn80  1  0.88113287  0.50404219  0.88108373  1
  Zn  Zn81  1  0.49854977  0.87398110  0.87625660  1
  Zn  Zn82  1  0.26713822  0.00551088  0.23307459  1
  Zn  Zn83  1  0.25306491  0.00198671  0.74831744  1
  Zn  Zn84  1  0.83880004  0.04494957  0.32861722  1
  Zn  Zn85  1  0.87136335  0.64676562  0.23709216  1
  Zn  Zn86  1  0.62828128  0.62169362  0.49316923  1
  Zn  Zn87  1  0.86544442  0.23668096  0.14075135  1
  Zn  Zn88  1  0.75191693  0.87734709  0.62171694  1
  Zn  Zn89  1  0.74314866  0.52025208  0.26467052  1
  Zn  Zn90  1  0.23774402  0.13902199  0.36457737  1
  Zn  Zn91  1  0.12737446  0.17297842  -0.01500749  1
  Zn  Zn92  1  0.49228692  0.24801555  0.25322990  1
  Zn  Zn93  1  0.50068841  -0.00561630  0.00246904  1
  Zn  Zn94  1  0.16720209  0.16848773  0.19505087  1
  Zn  Zn95  1  0.18942342  0.18801479  0.68654456  1
  Zn  Zn96  1  0.19118975  0.68258882  0.18727205  1
  Zn  Zn97  1  0.19133194  0.68589619  0.69014706  1
  Zn  Zn98  1  0.68521232  0.18635208  0.19396256  1
  Zn  Zn99  1  0.69234522  0.18775965  0.68223667  1
  Zn  Zn100  1  0.68460021  0.69040954  0.18914926  1
  Zn  Zn101  1  0.68870636  0.68750433  0.68325206  1
  Zn  Zn102  1  0.30092787  0.31447737  0.29990875  1
  Zn  Zn103  1  0.31712227  0.31687882  0.80934733  1
  Zn  Zn104  1  0.30542144  0.82197504  0.31633011  1
  Zn  Zn105  1  0.31025027  0.81146642  0.81830588  1
  Zn  Zn106  1  0.80749597  0.31189092  0.32337366  1
  Zn  Zn107  1  0.81077591  0.31201393  0.81127650  1
  Zn  Zn108  1  0.84184279  0.86287214  0.22305831  1
  Zn  Zn109  1  0.81417045  0.81704158  0.81719986  1
  Zn  Zn110  1  0.18073376  0.43708407  0.43355098  1
  Zn  Zn111  1  0.16002355  0.38538608  0.96974147  1
  Zn  Zn112  1  0.19468817  0.94181182  0.43953102  1
  Zn  Zn113  1  0.19926113  0.93501850  0.92710824  1
  Zn  Zn114  1  0.68645340  0.43510379  0.43940479  1
  Zn  Zn115  1  0.68657227  0.43761645  0.93857794  1
  Zn  Zn116  1  0.69343336  0.93851494  0.42992564  1
  Zn  Zn117  1  0.69263756  0.94233369  0.93686943  1
  Zn  Zn118  1  0.30852884  0.07014107  0.05837707  1
  Zn  Zn119  1  0.31419564  0.06268297  0.56074903  1
  Zn  Zn120  1  0.31228308  0.55955052  0.04970191  1
  Zn  Zn121  1  0.30650456  0.55695540  0.56167492  1
  Zn  Zn122  1  0.84619032  0.01042360  0.12601764  1
  Zn  Zn123  1  0.79607917  0.04862802  0.52446701  1
  Zn  Zn124  1  0.80844246  0.56541531  0.07016413  1
  Zn  Zn125  1  0.81560755  0.56207091  0.56083153  1
  Zn  Zn126  1  0.43481542  0.43796722  0.18617224  1
  Zn  Zn127  1  0.43448456  0.43397718  0.68819054  1
  Zn  Zn128  1  0.44328311  0.93492457  0.18649798  1
  Zn  Zn129  1  0.44248151  0.93560971  0.68905685  1
  Zn  Zn130  1  0.92921801  0.43238970  0.19371465  1
  Zn  Zn131  1  0.93995336  0.43660072  0.69149659  1
  Zn  Zn132  1  0.97400790  0.94004425  0.18721348  1
  Zn  Zn133  1  0.93962543  0.93600067  0.68848648  1
  Zn  Zn134  1  0.03501130  0.08776355  0.31898333  1
  Zn  Zn135  1  0.05863822  0.06435273  0.81674879  1
  Zn  Zn136  1  0.05820224  0.56678993  0.31650729  1
  Zn  Zn137  1  0.06479475  0.55459415  0.81014986  1
  Zn  Zn138  1  0.55230418  0.05504936  0.31636242  1
  Zn  Zn139  1  0.56359309  0.06147034  0.80911792  1
  Zn  Zn140  1  0.55837410  0.56718867  0.30698832  1
  Zn  Zn141  1  0.56289506  0.56458508  0.80843133  1
  Zn  Zn142  1  0.39589199  0.21533252  0.40990156  1
  Zn  Zn143  1  0.43891899  0.18812801  0.93784474  1
  Zn  Zn144  1  0.43891948  0.68529203  0.43523441  1
  Zn  Zn145  1  0.43759429  0.68581604  0.93643711  1
  Zn  Zn146  1  0.93727700  0.18135282  0.43748719  1
  Zn  Zn147  1  0.93614897  0.19099913  0.94223542  1
  Zn  Zn148  1  0.93673542  0.68502291  0.43449680  1
  Zn  Zn149  1  0.93885037  0.69001241  0.94093376  1
  Zn  Zn150  1  0.04962385  0.31058403  0.07681356  1
  Zn  Zn151  1  0.05633882  0.31562022  0.56553791  1
  Zn  Zn152  1  0.13127150  0.80402257  0.08400583  1
  Zn  Zn153  1  0.06614745  0.80728790  0.56468846  1
  Zn  Zn154  1  0.55989620  0.31082876  0.06221597  1
  Zn  Zn155  1  0.55808039  0.31418436  0.56110193  1
  Zn  Zn156  1  0.55444452  0.81246179  0.06102352  1
  Zn  Zn157  1  0.56681170  0.81150570  0.56684014  1
  O  O158  1  0.13265125  0.11883570  0.09445507  1
  O  O159  1  0.12314631  0.11443328  0.62040897  1
  O  O160  1  0.12415251  0.61146646  0.10815434  1
  O  O161  1  0.12897107  0.62833182  0.61062496  1
  O  O162  1  0.61536310  0.11707977  0.12353646  1
  O  O163  1  0.62353232  0.10925238  0.63106139  1
  O  O164  1  0.61874056  0.61830243  0.11857607  1
  O  O165  1  0.61973007  0.61098857  0.62468341  1
  O  O166  1  0.38545599  0.38941667  0.36528903  1
  O  O167  1  0.38590155  0.37788591  0.88223245  1
  O  O168  1  0.36771962  0.88564301  0.39361916  1
  O  O169  1  0.37471625  0.89028958  0.87393792  1
  O  O170  1  0.88842909  0.38245932  0.36843917  1
  O  O171  1  0.87811514  0.37637885  0.88066364  1
  O  O172  1  0.88238704  0.86919125  0.38779589  1
  O  O173  1  0.88581797  0.87954320  0.87920248  1
  O  O174  1  0.27039378  0.01105425  0.38811186  1
  O  O175  1  0.26515595  0.01034425  0.86687657  1
  O  O176  1  0.25477151  0.50705227  0.37335181  1
  O  O177  1  0.25958703  0.50438906  0.86156653  1
  O  O178  1  0.76730283  0.01987318  0.41294835  1
  O  O179  1  0.76183188  -0.00278346  0.86063086  1
  O  O180  1  0.76701332  0.49311112  0.38209986  1
  O  O181  1  0.74721312  0.51090823  0.86863457  1
  O  O182  1  0.25148301  0.50589994  0.13514541  1
  O  O183  1  0.25974925  0.48480013  0.63891738  1
  O  O184  1  0.23650626  1.00680341  0.11900129  1
  O  O185  1  0.24161998  0.98959834  0.62667367  1
  O  O186  1  0.73507982  0.48752041  0.12590434  1
  O  O187  1  0.74318669  0.49100859  0.62505665  1
  O  O188  1  0.73010791  1.00771584  0.12964653  1
  O  O189  1  0.73948419  0.99724059  0.63139471  1
  O  O190  1  0.00706073  0.37539068  0.26078294  1
  O  O191  1  0.00338992  0.36056780  0.75065916  1
  O  O192  1  0.02483171  0.86033687  0.25672428  1
  O  O193  1  0.01092699  0.86505273  0.75464283  1
  O  O194  1  0.50893338  0.38035605  0.25827048  1
  O  O195  1  0.50557880  0.36646706  0.75834131  1
  O  O196  1  0.51094127  0.85902625  0.24297980  1
  O  O197  1  0.51117664  0.86129956  0.75101450  1
  O  O198  1  0.49859439  0.12455348  0.23702344  1
  O  O199  1  0.49283142  0.13706105  0.75402117  1
  O  O200  1  0.49672200  0.63707668  0.23782979  1
  O  O201  1  0.50288836  0.63674892  0.74233420  1
  O  O202  1  1.04676080  0.13800129  0.21688309  1
  O  O203  1  1.00046018  0.13466531  0.73990614  1
  O  O204  1  1.00342141  0.64680137  0.25399833  1
  O  O205  1  0.99014153  0.63127182  0.75966648  1
  O  O206  1  0.38322009  0.26437193  0.00572920  1
  O  O207  1  0.38882101  0.24513522  0.52035678  1
  O  O208  1  0.37679484  0.75763927  -0.00140022  1
  O  O209  1  0.36396843  0.75434956  0.49429492  1
  O  O210  1  0.85935592  0.26017434  -0.00047315  1
  O  O211  1  0.85603976  0.24331088  0.48892306  1
  O  O212  1  0.85975068  0.74938753  -0.00331250  1
  O  O213  1  0.87062023  0.75445720  0.50473703  1
  O  O214  1  0.11985724  0.23724394  0.50986850  1
  O  O215  1  0.13109174  0.28299182  1.00752103  1
  O  O216  1  0.13436977  0.74201110  0.49433991  1
  O  O217  1  0.12234717  0.73458084  0.98449512  1
  O  O218  1  0.61866569  0.25148562  0.48893237  1
  O  O219  1  0.62838663  0.24588427  0.99112662  1
  O  O220  1  0.63652816  0.75346021  0.49325255  1
  O  O221  1  0.63129263  0.74450943  0.99061506  1
  O  O222  1  0.50383513  0.23650221  0.12814989  1
  O  O223  1  0.48895413  0.26179314  0.63761741  1
  O  O224  1  0.50231953  0.73909295  0.13646175  1
  O  O225  1  0.50606256  0.74039844  0.63745582  1
  O  O226  1  0.98016896  0.24409814  0.13173532  1
  O  O227  1  0.99724444  0.23667862  0.63242063  1
  O  O228  1  1.03029626  0.75619737  0.13200337  1
  O  O229  1  0.99323348  0.75109001  0.63861346  1
  O  O230  1  -0.00044282  0.26891347  0.38916633  1
  O  O231  1  -0.00983317  0.25862706  0.85832126  1
  O  O232  1  0.01753265  0.75082281  0.38404880  1
  O  O233  1  0.00727575  0.75608915  0.86452273  1
  O  O234  1  0.50144496  0.26289418  0.37379145  1
  O  O235  1  0.50998992  0.25835523  0.86658780  1
  O  O236  1  0.50673507  0.74456490  0.36142075  1
  O  O237  1  0.51158556  0.74477088  0.86255867  1
  O  O238  1  0.23434459  0.12239691  0.50404840  1
  O  O239  1  0.25407110  0.13111477  0.97823617  1
  O  O240  1  0.24102895  0.62863404  0.49551965  1
  O  O241  1  0.23353557  0.61111472  0.98381094  1
  O  O242  1  0.73741200  0.14590839  0.51895981  1
  O  O243  1  0.73354322  0.13871186  1.00761838  1
  O  O244  1  0.74947344  0.63995094  0.50509106  1
  O  O245  1  0.74032421  0.63389662  0.99247065  1
  O  O246  1  0.26921007  0.38005042  -0.00443925  1
  O  O247  1  0.24311724  0.38329667  0.51374357  1
  O  O248  1  0.26657869  0.87292277  -0.00832750  1
  O  O249  1  0.25653138  0.86635466  0.51030437  1
  O  O250  1  0.74859724  0.36640410  0.00824940  1
  O  O251  1  0.74612277  0.36915042  0.51314524  1
  O  O252  1  0.74937560  0.85937463  -0.00810187  1
  O  O253  1  0.76640627  0.86480148  0.50067668  1
  O  O254  1  0.12728857  0.50510070  0.23694750  1
  O  O255  1  0.13797078  0.48461598  0.75247964  1
  O  O256  1  0.11311439  0.99406501  0.27502373  1
  O  O257  1  0.12467760  0.98917215  0.74489513  1
  O  O258  1  0.62707234  0.49349901  0.24483741  1
  O  O259  1  0.63117296  0.49575723  0.74143817  1
  O  O260  1  0.61478080  0.98658162  0.24281438  1
  O  O261  1  0.63246212  0.99347127  0.74309665  1
  O  O262  1  0.38065784  -0.01432116  0.26947646  1
  O  O263  1  0.37955829  0.00935839  0.75582182  1
  O  O264  1  0.35899369  0.49707687  0.25509235  1
  O  O265  1  0.36275653  0.48759679  0.76130512  1
  O  O266  1  0.87243871  -0.02203421  0.24289207  1
  O  O267  1  0.86238917  -0.00407950  0.74957209  1
  O  O268  1  0.86944232  0.50032289  0.26342259  1
  O  O269  1  0.86902668  0.50958027  0.74940429  1
  O  O270  1  0.11141444  0.38562202  0.35996548  1
  O  O271  1  0.10571380  0.37332948  0.86642710  1
  O  O272  1  0.13562102  0.86278660  0.37527167  1
  O  O273  1  0.12360708  0.86530070  0.86545190  1
  O  O274  1  0.61325379  0.37506291  0.36936881  1
  O  O275  1  0.62181014  0.36857960  0.86782642  1
  O  O276  1  0.62919976  0.86766161  0.36250653  1
  O  O277  1  0.62377570  0.86716805  0.86804181  1
  O  O278  1  0.38743283  0.13942012  0.11295190  1
  O  O279  1  0.36586622  0.13814940  0.63641482  1
  O  O280  1  0.38927512  0.61876666  0.11304770  1
  O  O281  1  0.38368272  0.62034964  0.62254212  1
  O  O282  1  0.89777137  0.11453375  0.12572677  1
  O  O283  1  0.88770306  0.11467114  0.61432398  1
  O  O284  1  0.88374245  0.62027195  0.12694785  1
  O  O285  1  0.86941878  0.63557157  0.63759374  1
  O  O286  1  0.26406342  0.24513435  0.12131099  1
  O  O287  1  0.26141976  0.26112115  0.62763546  1
  O  O288  1  0.22703573  0.75712843  0.11739886  1
  O  O289  1  0.24501682  0.75797938  0.61708867  1
  O  O290  1  0.74378473  0.25978818  0.11686177  1
  O  O291  1  0.74226504  0.26617260  0.61651202  1
  O  O292  1  0.74166802  0.75322761  0.11028741  1
  O  O293  1  0.75800292  0.75324802  0.61643498  1
  O  O294  1  0.28864666  0.23990467  0.38023293  1
  O  O295  1  0.25399766  0.24042869  0.86567575  1
  O  O296  1  0.24415755  0.74211957  0.38476273  1
  O  O297  1  0.23958227  0.73250903  0.86122904  1
  O  O298  1  0.72869253  0.25925095  0.39223551  1
  O  O299  1  0.73716207  0.25619526  0.88191904  1
  O  O300  1  0.74309537  0.75043555  0.38842946  1
  O  O301  1  0.74145368  0.73993771  0.87605000  1
  O  O302  1  0.01357905  0.14629693  0.01129015  1
  O  O303  1  0.01008334  0.11058992  0.51434999  1
  O  O304  1  0.01483238  0.61557745  -0.01644787  1
  O  O305  1  0.01130293  0.61903510  0.49895549  1
  O  O306  1  0.51248208  0.12548037  0.00807127  1
  O  O307  1  0.50392599  0.10938001  0.50477364  1
  O  O308  1  0.51219415  0.63502558  0.01196729  1
  O  O309  1  0.50320053  0.61767878  0.50857670  1
  O  O310  1  0.50239387  0.38942533  0.48901855  1
  O  O311  1  0.50196095  0.37481314  0.98534788  1
  O  O312  1  0.48667802  0.86940933  0.51072734  1
  O  O313  1  0.48435666  0.87619136  0.99400641  1
  O  O314  1  1.01180539  0.39174060  0.48857942  1
  O  O315  1  0.98548499  0.36769040  0.98537944  1
  O  O316  1  0.99294721  0.87800395  0.50963426  1
  O  O317  1  1.00708308  0.86716151  0.98391810  1
  O  O318  1  0.49145641  0.50135707  0.37963802  1
  O  O319  1  0.49357650  0.49096504  0.86224016  1
  O  O320  1  0.49696525  0.99113688  0.39437803  1
  O  O321  1  0.48874964  1.00071335  0.87439175  1
  O  O322  1  0.98897678  0.49614044  0.38101148  1
  O  O323  1  0.99411581  0.47850770  0.86228529  1
  O  O324  1  1.01033417  0.98891156  0.39746209  1
  O  O325  1  0.98516500  0.98959790  0.86504557  1
  O  O326  1  0.02429772  0.01879837  0.11984470  1
  O  O327  1  0.00959919  0.00864647  0.62894346  1
  O  O328  1  -0.00244480  0.50587812  0.13127679  1
  O  O329  1  -0.00438166  0.49425181  0.60920152  1
  O  O330  1  0.50410609  0.01465811  0.12237977  1
  O  O331  1  0.51319189  -0.00557556  0.61932711  1
  O  O332  1  0.50948073  0.51392279  0.13403023  1
  O  O333  1  0.50222683  0.50435143  0.62008066  1
  O  O334  1  0.23189327  0.39668821  0.25579354  1
  O  O335  1  0.24168795  0.37920231  0.74791045  1
  O  O336  1  0.23557018  0.89086735  0.25806426  1
  O  O337  1  0.24028554  0.87207040  0.74396897  1
  O  O338  1  0.73779963  0.37354989  0.24360293  1
  O  O339  1  0.74489556  0.37845438  0.73708363  1
  O  O340  1  0.72883134  0.86762566  0.23937250  1
  O  O341  1  0.74126677  0.88081243  0.75038172  1
  O  O342  1  0.24400882  0.11415443  0.25419804  1
  O  O343  1  0.26005336  0.12404524  0.75676220  1
  O  O344  1  0.24100089  0.61119653  0.26110709  1
  O  O345  1  0.24284064  0.60643172  0.75416421  1
  O  O346  1  0.77713998  0.15353448  0.25881328  1
  O  O347  1  0.74990387  0.11260701  0.74712838  1
  O  O348  1  0.75853212  0.62940576  0.24364162  1
  O  O349  1  0.75649172  0.62154902  0.75669460  1
  O  O350  1  0.39393894  0.10524325  0.37645939  1
  O  O351  1  0.37091682  0.11975918  0.86616382  1
  O  O352  1  0.36239399  0.61514302  0.37815662  1
  O  O353  1  0.36681436  0.61381113  0.88153665  1
  O  O354  1  0.92766031  0.11162821  0.35272123  1
  O  O355  1  0.88277108  0.10993390  0.87993144  1
  O  O356  1  0.87892215  0.61514610  0.36579899  1
  O  O357  1  0.86558497  0.62475111  0.86753541  1
  O  O358  1  0.10957288  0.39403400  0.13962728  1
  O  O359  1  0.13932216  0.36842827  0.63336188  1
  O  O360  1  0.12305035  0.90536873  0.14331950  1
  O  O361  1  0.13193521  0.87903920  0.63363476  1
  O  O362  1  0.62476195  0.38067340  0.13262045  1
  O  O363  1  0.62395650  0.38780458  0.62859717  1
  O  O364  1  0.61548337  0.88988457  0.12744355  1
  O  O365  1  0.62902810  0.87964166  0.63686539  1
  O  O366  1  0.13756479  0.27283308  0.24151946  1
  O  O367  1  0.11576839  0.25723813  0.74611000  1
  O  O368  1  0.12501425  0.75021828  0.26752638  1
  O  O369  1  0.11835681  0.75247589  0.75536595  1
  O  O370  1  0.62007628  0.26075016  0.26346390  1
  O  O371  1  0.62078436  0.25203948  0.75434448  1
  O  O372  1  0.61713581  0.75873046  0.25599539  1
  O  O373  1  0.62427009  0.75477501  0.75707375  1
  O  O374  1  0.37958209  0.26913953  0.22517735  1
  O  O375  1  0.38430782  0.24419213  0.74529948  1
  O  O376  1  0.38484620  0.76040941  0.25839464  1
  O  O377  1  0.39110744  0.75541367  0.75536247  1
  O  O378  1  0.83371613  0.21873330  0.25480048  1
  O  O379  1  0.88154230  0.24977589  0.74441469  1
  O  O380  1  0.90145648  0.76508276  0.23956397  1
  O  O381  1  0.88054015  0.74370184  0.74700747  1
  O  O382  1  0.38304058  0.50287146  0.48998078  1
  O  O383  1  0.37869781  0.48752272  0.98471936  1
  O  O384  1  0.38935280  0.99382505  0.50183525  1
  O  O385  1  0.37649241  1.00319393  0.98535677  1
  O  O386  1  0.88985436  0.51044430  0.48987639  1
  O  O387  1  0.85962677  0.48414400  0.99857192  1
  O  O388  1  0.89178995  0.98155640  0.51088674  1
  O  O389  1  0.86398680  0.99472738  0.98682169  1
  O  O390  1  0.12592697  -0.00855141  -0.00633479  1
  O  O391  1  0.11657820  -0.00626557  0.51434774  1
  O  O392  1  0.12071944  0.49587320  0.01451024  1
  O  O393  1  0.11530574  0.51461569  0.49428875  1
  O  O394  1  0.62431104  0.00579377  0.00934343  1
  O  O395  1  0.61728165  -0.01158353  0.51392802  1
  O  O396  1  0.62762157  0.51037237  0.00860715  1
  O  O397  1  0.61409030  0.50164970  0.50591699  1
  O  O398  1  0.38545254  0.36983560  0.10717434  1
  O  O399  1  0.36293881  0.36316977  0.62927842  1
  O  O400  1  0.37514215  0.88061612  0.11267670  1
  O  O401  1  0.36345776  0.88077769  0.62099415  1
  O  O402  1  0.86096089  0.37187094  0.12086402  1
  O  O403  1  0.86273573  0.37804592  0.62498158  1
  O  O404  1  0.88565814  0.89811753  0.11808726  1
  O  O405  1  0.87473582  0.86027454  0.62620574  1
  O  O406  1  0.12020764  0.12277778  0.39618253  1
  O  O407  1  0.13911900  0.12441655  0.87253880  1
  O  O408  1  0.13387705  0.63453416  0.38565550  1
  O  O409  1  0.13076731  0.62325790  0.87916869  1
  O  O410  1  0.61414967  0.14022847  0.36789598  1
  O  O411  1  0.61844333  0.13475888  0.88325059  1
  O  O412  1  0.62311252  0.63797737  0.37405206  1
  O  O413  1  0.63062931  0.63024000  0.88036481  1
