# generated using pymatgen
data_V79Zn79O256
_symmetry_space_group_name_H-M   'P 1'
_cell_length_a   16.88877515
_cell_length_b   16.93196833
_cell_length_c   16.95021844
_cell_angle_alpha   90.38173217
_cell_angle_beta   90.08319835
_cell_angle_gamma   89.98661232
_symmetry_Int_Tables_number   1
_chemical_formula_structural   V79Zn79O256
_chemical_formula_sum   'V79 Zn79 O256'
_cell_volume   4846.97514509
_cell_formula_units_Z   1
loop_
 _symmetry_equiv_pos_site_id
 _symmetry_equiv_pos_as_xyz
  1  'x, y, z'
loop_
 _atom_site_type_symbol
 _atom_site_label
 _atom_site_symmetry_multiplicity
 _atom_site_fract_x
 _atom_site_fract_y
 _atom_site_fract_z
 _atom_site_occupancy
  V  V0  1  0.74580799  0.87113797  0.61634950  1
  V  V1  1  0.37751999  0.62555686  0.25231714  1
  V  V2  1  0.50172980  0.62488638  0.12123492  1
  V  V3  1  0.12908979  0.88473728  0.24029963  1
  V  V4  1  0.76713373  0.85676125  0.12172163  1
  V  V5  1  0.37340448  0.62777653  0.75434736  1
  V  V6  1  -0.00209817  0.26699761  0.74705784  1
  V  V7  1  0.74983653  0.37510632  0.12562020  1
  V  V8  1  0.50406298  0.00627726  0.49543132  1
  V  V9  1  0.62757964  0.37458614  0.74931905  1
  V  V10  1  0.12790975  0.48710431  0.63007341  1
  V  V11  1  0.24893221  0.75342358  0.00597601  1
  V  V12  1  0.00128503  0.50039359  0.50124687  1
  V  V13  1  0.12513017  0.00200502  0.59715066  1
  V  V14  1  0.37161404  0.75538744  0.12762795  1
  V  V15  1  0.86731626  0.74812282  0.62556734  1
  V  V16  1  0.86958100  0.50317814  0.87603703  1
  V  V17  1  0.35760286  0.24308214  0.62380630  1
  V  V18  1  0.12655152  0.36572627  0.24872915  1
  V  V19  1  0.62207752  0.37616124  0.25898869  1
  V  V20  1  0.89138063  0.87068139  0.49932555  1
  V  V21  1  0.90030234  0.74271492  0.11455976  1
  V  V22  1  0.87002360  0.50690314  0.37359715  1
  V  V23  1  0.11358738  0.25718349  0.86736931  1
  V  V24  1  0.62395971  0.87492026  0.76412840  1
  V  V25  1  0.86957226  0.25273425  0.62518213  1
  V  V26  1  0.61754389  0.25642623  0.87719002  1
  V  V27  1  0.12889936  0.02081165  0.09467783  1
  V  V28  1  0.50217981  0.87600090  0.37491857  1
  V  V29  1  0.63711177  0.63584235  -0.00798805  1
  V  V30  1  0.36196228  0.25537311  0.12935137  1
  V  V31  1  0.12313843  0.50487656  0.12732594  1
  V  V32  1  0.62242406  0.50237249  0.12293398  1
  V  V33  1  0.37626619  0.87479563  -0.00299938  1
  V  V34  1  0.25296563  0.62499669  0.37783083  1
  V  V35  1  -0.01144192  0.88788066  0.87864648  1
  V  V36  1  0.37485726  0.37616853  0.00612207  1
  V  V37  1  0.00356980  0.49914260  -0.00469694  1
  V  V38  1  0.49922564  0.62240071  0.61559497  1
  V  V39  1  0.49853296  0.12622576  0.12622017  1
  V  V40  1  0.12963258  0.74901778  0.87589909  1
  V  V41  1  0.24671724  0.48021274  0.74654964  1
  V  V42  1  0.89629149  0.25764005  0.13544301  1
  V  V43  1  0.62685343  0.49358874  0.61864705  1
  V  V44  1  0.00155493  0.62223661  0.62783787  1
  V  V45  1  0.36588867  0.11388071  0.25997912  1
  V  V46  1  0.37796344  0.48527306  0.87395588  1
  V  V47  1  0.88038009  0.12031771  0.75318805  1
  V  V48  1  0.37264867  0.88285411  0.50210879  1
  V  V49  1  0.86033704  0.38019830  0.50207097  1
  V  V50  1  0.38730618  0.48795116  0.37856550  1
  V  V51  1  0.50735274  0.75080821  0.76352214  1
  V  V52  1  0.50944396  0.75583606  0.25261049  1
  V  V53  1  0.49634964  0.25178026  0.75063902  1
  V  V54  1  0.50176237  0.12805766  0.62682558  1
  V  V55  1  0.63733320  0.62976995  0.49310257  1
  V  V56  1  0.22587485  0.12080708  0.38419078  1
  V  V57  1  0.86558387  0.62332391  0.75555204  1
  V  V58  1  0.63247004  -0.00297168  0.13266166  1
  V  V59  1  0.89680143  0.63099494  0.24652982  1
  V  V60  1  0.62668767  0.00209905  0.62351127  1
  V  V61  1  0.49969080  -0.00683256  -0.00420210  1
  V  V62  1  0.49776324  0.25512003  0.25829943  1
  V  V63  1  0.74730631  0.25176369  -0.00108753  1
  V  V64  1  0.10923289  0.75486033  0.37510395  1
  V  V65  1  0.25000656  0.49734480  0.24712745  1
  V  V66  1  0.74432993  0.23062373  0.50110714  1
  V  V67  1  0.13432612  0.87931046  0.74175151  1
  V  V68  1  0.88214089  0.37674674  -0.00583652  1
  V  V69  1  0.12145089  0.62762044  0.00498238  1
  V  V70  1  0.89049509  0.03420183  0.41121473  1
  V  V71  1  0.00419504  0.37130201  0.36900549  1
  V  V72  1  0.00155362  0.74860267  0.75201971  1
  V  V73  1  0.37884466  0.37268197  0.50887175  1
  V  V74  1  0.25770112  0.74988819  0.50433388  1
  V  V75  1  0.75139009  0.50880762  0.25081213  1
  V  V76  1  0.87713225  0.10850332  0.23969663  1
  V  V77  1  0.63043416  0.23540879  0.37530914  1
  V  V78  1  0.24570939  0.24680482  -0.01259356  1
  Zn  Zn79  1  0.37453380  1.01440246  0.86354399  1
  Zn  Zn80  1  0.62434691  0.12360080  -0.00114745  1
  Zn  Zn81  1  0.74975336  0.11961310  0.87442913  1
  Zn  Zn82  1  0.64862075  0.88590085  0.26395426  1
  Zn  Zn83  1  0.74721386  0.49746193  0.75176897  1
  Zn  Zn84  1  0.37588624  0.75318273  0.62702525  1
  Zn  Zn85  1  0.67707319  0.78241353  0.41591980  1
  Zn  Zn86  1  0.25885584  0.01192616  0.74233859  1
  Zn  Zn87  1  0.06904660  0.13303636  0.49244472  1
  Zn  Zn88  1  0.20249903  0.08714714  0.91772249  1
  Zn  Zn89  1  0.22035981  0.25674954  0.48833158  1
  Zn  Zn90  1  0.24974559  0.62127392  0.87524383  1
  Zn  Zn91  1  0.76189838  -0.00549992  0.76009566  1
  Zn  Zn92  1  0.13191561  0.62198257  0.50302671  1
  Zn  Zn93  1  0.50621947  0.49573156  -0.01361404  1
  Zn  Zn94  1  0.18387892  0.17708314  0.18666088  1
  Zn  Zn95  1  0.16838378  0.17583071  0.67699943  1
  Zn  Zn96  1  0.18304430  0.69136347  0.19175667  1
  Zn  Zn97  1  0.18905512  0.68547897  0.68644354  1
  Zn  Zn98  1  0.68775440  0.18604157  0.18995487  1
  Zn  Zn99  1  0.69023450  0.18744814  0.68817257  1
  Zn  Zn100  1  0.71782825  0.71728170  0.23511194  1
  Zn  Zn101  1  0.68340942  0.68634085  0.68872363  1
  Zn  Zn102  1  0.30580344  0.30589311  0.31871334  1
  Zn  Zn103  1  0.31282517  0.18752913  0.80144375  1
  Zn  Zn104  1  0.31315977  0.81667056  0.31526253  1
  Zn  Zn105  1  0.33941495  0.84707688  0.79060759  1
  Zn  Zn106  1  0.80900915  0.31547379  0.31659690  1
  Zn  Zn107  1  0.80899937  0.31310888  0.81367610  1
  Zn  Zn108  1  0.82865611  0.82847330  0.30415382  1
  Zn  Zn109  1  0.80620504  0.81039608  0.81796104  1
  Zn  Zn110  1  0.19344397  0.43490695  0.43899463  1
  Zn  Zn111  1  0.19336106  0.43233222  0.93513584  1
  Zn  Zn112  1  0.19681118  0.93229366  0.40780047  1
  Zn  Zn113  1  0.18952995  0.92650403  0.93006251  1
  Zn  Zn114  1  0.68093566  0.44552258  0.43541819  1
  Zn  Zn115  1  0.68779855  0.43724305  0.93597055  1
  Zn  Zn116  1  0.69963697  0.95791035  0.43671886  1
  Zn  Zn117  1  0.69692693  0.93689598  0.94469744  1
  Zn  Zn118  1  0.31188126  0.06156346  0.07150499  1
  Zn  Zn119  1  0.30229090  0.06164411  0.55905484  1
  Zn  Zn120  1  0.31005844  0.56573665  0.06272910  1
  Zn  Zn121  1  0.31495971  0.55711404  0.56425460  1
  Zn  Zn122  1  0.81430228  0.07633656  0.07543885  1
  Zn  Zn123  1  0.82187315  0.05791427  0.57633586  1
  Zn  Zn124  1  0.81488758  0.56842579  0.06476159  1
  Zn  Zn125  1  0.80909778  0.56193158  0.56651905  1
  Zn  Zn126  1  0.43613826  0.43635563  0.18865708  1
  Zn  Zn127  1  0.43943770  0.43493355  0.68675871  1
  Zn  Zn128  1  0.43924271  0.93767217  0.18597163  1
  Zn  Zn129  1  0.44400111  0.93850565  0.68253546  1
  Zn  Zn130  1  0.94165979  0.44158728  0.18449794  1
  Zn  Zn131  1  0.93351436  0.43744703  0.68720324  1
  Zn  Zn132  1  0.95865162  0.93300645  0.18270053  1
  Zn  Zn133  1  0.94607081  0.93538624  0.68229350  1
  Zn  Zn134  1  0.05080467  0.05754367  0.30205395  1
  Zn  Zn135  1  0.06083952  0.06832769  0.80841026  1
  Zn  Zn136  1  0.06683005  0.56165123  0.31909751  1
  Zn  Zn137  1  0.06226705  0.55836470  0.81536615  1
  Zn  Zn138  1  0.55613262  0.06399296  0.31081398  1
  Zn  Zn139  1  0.56416191  0.06661565  0.81317095  1
  Zn  Zn140  1  0.56331154  0.56584526  0.31101239  1
  Zn  Zn141  1  0.56134141  0.56186621  0.80915651  1
  Zn  Zn142  1  0.43716762  0.19022386  0.44033028  1
  Zn  Zn143  1  0.43669774  0.18880536  0.94098695  1
  Zn  Zn144  1  0.44094633  0.69065795  0.43351569  1
  Zn  Zn145  1  0.43858914  0.68452499  0.93907640  1
  Zn  Zn146  1  0.92233538  0.19917184  0.42187217  1
  Zn  Zn147  1  0.93369967  0.19137935  0.93423348  1
  Zn  Zn148  1  0.92527130  0.68631659  0.44000838  1
  Zn  Zn149  1  0.93975030  0.68778264  0.93579736  1
  Zn  Zn150  1  0.07361896  0.32013847  0.06138626  1
  Zn  Zn151  1  0.05403863  0.31244870  0.56285081  1
  Zn  Zn152  1  0.06290248  0.84249790  0.06938247  1
  Zn  Zn153  1  0.07320425  0.80693080  0.56220067  1
  Zn  Zn154  1  0.55707242  0.31515458  0.06683671  1
  Zn  Zn155  1  0.56015093  0.31169549  0.55633949  1
  Zn  Zn156  1  0.56880471  0.81344504  0.06595932  1
  Zn  Zn157  1  0.55815038  0.81111660  0.56697457  1
  O  O158  1  0.11288176  0.11822956  0.12125234  1
  O  O159  1  0.11718755  0.10894830  0.59877050  1
  O  O160  1  0.13123494  0.61701139  0.11654934  1
  O  O161  1  0.11315940  0.61644459  0.62489416  1
  O  O162  1  0.61348195  0.12045189  0.12513822  1
  O  O163  1  0.61743186  0.11254360  0.63208505  1
  O  O164  1  0.61585849  0.61407403  0.11477744  1
  O  O165  1  0.61566508  0.61781734  0.61885630  1
  O  O166  1  0.37509156  0.38538062  0.37342525  1
  O  O167  1  0.37373390  0.38616944  0.88274632  1
  O  O168  1  0.39196196  0.87099687  0.38805209  1
  O  O169  1  0.37867954  0.86927646  0.89720380  1
  O  O170  1  0.88374270  0.38865011  0.37985809  1
  O  O171  1  0.87075942  0.38247705  0.88818678  1
  O  O172  1  0.88000364  0.85505618  0.40126226  1
  O  O173  1  0.88939188  0.87333212  0.85762208  1
  O  O174  1  0.25832357  0.02493836  0.37864280  1
  O  O175  1  0.25689163  -0.00194156  0.87036855  1
  O  O176  1  0.25867627  0.50829322  0.36788148  1
  O  O177  1  0.25707344  0.50021935  0.86127593  1
  O  O178  1  0.79356488  -0.00435759  0.38970676  1
  O  O179  1  0.74092155  0.00628454  0.87110581  1
  O  O180  1  0.76049289  0.49475726  0.36387401  1
  O  O181  1  0.76470119  0.49730231  0.87428270  1
  O  O182  1  0.24420670  0.50512104  0.13913888  1
  O  O183  1  0.24267110  0.50483284  0.63759028  1
  O  O184  1  0.22804543  1.00135688  0.11761110  1
  O  O185  1  0.23300608  1.00017204  0.62670361  1
  O  O186  1  0.74413637  0.49104833  0.13010349  1
  O  O187  1  0.73140676  0.50460168  0.63058836  1
  O  O188  1  0.73126884  1.01153921  0.11687489  1
  O  O189  1  0.74103551  0.99027315  0.63085530  1
  O  O190  1  0.01150844  0.38784818  0.26139994  1
  O  O191  1  -0.00698743  0.36631564  0.75479571  1
  O  O192  1  0.02611382  0.86840870  0.24933943  1
  O  O193  1  0.01083595  0.86092346  0.75280248  1
  O  O194  1  0.51066119  0.36526267  0.24230809  1
  O  O195  1  0.51074861  0.36131122  0.74181733  1
  O  O196  1  0.49710655  0.87138801  0.26162439  1
  O  O197  1  0.51103492  0.85932696  0.74400403  1
  O  O198  1  0.49174967  0.13569543  0.24278199  1
  O  O199  1  0.50201339  0.13500515  0.73743217  1
  O  O200  1  0.49838245  0.63585642  0.24313554  1
  O  O201  1  0.49492674  0.63526276  0.74469591  1
  O  O202  1  0.97832187  0.13114273  0.25237551  1
  O  O203  1  0.98502339  0.14026073  0.75194050  1
  O  O204  1  0.99487411  0.61651724  0.24866210  1
  O  O205  1  0.99352138  0.62734067  0.74316120  1
  O  O206  1  0.36900004  0.25814726  0.00943571  1
  O  O207  1  0.37544681  0.25673956  0.51311601  1
  O  O208  1  0.36983226  0.75248696  0.00827811  1
  O  O209  1  0.37353742  0.75759445  0.50069355  1
  O  O210  1  0.86969149  0.26059716  0.00904789  1
  O  O211  1  0.85975465  0.26042850  0.50346708  1
  O  O212  1  0.87634655  0.73153141  0.01730951  1
  O  O213  1  0.87570368  0.75180475  0.51915144  1
  O  O214  1  0.10831512  0.24125423  0.49998309  1
  O  O215  1  0.13898038  0.25553466  0.99337325  1
  O  O216  1  0.13856678  0.74139660  0.49283778  1
  O  O217  1  0.13075531  0.74434267  0.99646388  1
  O  O218  1  0.63690808  0.25247461  0.49185657  1
  O  O219  1  0.62910529  0.25673524  0.99479584  1
  O  O220  1  0.62240390  0.73643005  0.50330826  1
  O  O221  1  0.61715638  0.73433758  1.00280314  1
  O  O222  1  0.49267604  0.24300072  0.13449341  1
  O  O223  1  0.50168590  0.24090299  0.62980173  1
  O  O224  1  0.49091285  0.74227511  0.13035488  1
  O  O225  1  0.50035718  0.73397081  0.63404299  1
  O  O226  1  0.99448953  0.26656400  0.12415840  1
  O  O227  1  0.98718797  0.25625284  0.63963731  1
  O  O228  1  0.99879922  0.75171628  0.11575767  1
  O  O229  1  0.99560122  0.73845252  0.63414108  1
  O  O230  1  -0.00832784  0.27354342  0.37305106  1
  O  O231  1  0.00513571  0.25473615  0.86833386  1
  O  O232  1  0.01314899  0.72792087  0.38296927  1
  O  O233  1  0.00820465  0.74780391  0.86390984  1
  O  O234  1  0.51066052  0.24688695  0.36424988  1
  O  O235  1  0.50684865  0.24755470  0.86403562  1
  O  O236  1  0.50430627  0.75926065  0.36490788  1
  O  O237  1  0.49930570  0.74544785  0.86224178  1
  O  O238  1  0.24903780  0.13347267  0.48711640  1
  O  O239  1  0.26157365  0.14388841  1.00212770  1
  O  O240  1  0.25697486  0.62842912  0.49295129  1
  O  O241  1  0.24087586  0.63345409  0.99720931  1
  O  O242  1  0.75645448  0.13261624  0.50308398  1
  O  O243  1  0.74790097  0.14347330  1.00326513  1
  O  O244  1  0.73751528  0.62457475  0.50310525  1
  O  O245  1  0.73593443  0.62027150  1.00484679  1
  O  O246  1  0.26296657  0.36151564  -0.00138079  1
  O  O247  1  0.26649015  0.36424882  0.48845472  1
  O  O248  1  0.25673427  0.85934934  0.00112035  1
  O  O249  1  0.26874230  0.86662308  0.48768458  1
  O  O250  1  0.75841442  0.37152942  0.00803969  1
  O  O251  1  0.75950980  0.38337670  0.49507321  1
  O  O252  1  0.75376786  0.88173349  0.02414665  1
  O  O253  1  0.75203162  0.87076449  0.51266236  1
  O  O254  1  0.13317313  0.50114453  0.24408294  1
  O  O255  1  0.13854896  0.50545029  0.74575323  1
  O  O256  1  0.12125321  0.99027676  0.24023747  1
  O  O257  1  0.12896062  0.98236172  0.75292186  1
  O  O258  1  0.63115202  0.49597000  0.24351719  1
  O  O259  1  0.62391498  0.49200544  0.74200736  1
  O  O260  1  0.61873787  1.00111869  0.23668451  1
  O  O261  1  0.61224963  0.98483400  0.74044245  1
  O  O262  1  0.37927416  0.01575510  0.24356327  1
  O  O263  1  0.36538120  -0.04060068  0.75875771  1
  O  O264  1  0.36868108  0.50255845  0.25908529  1
  O  O265  1  0.36610921  0.50223360  0.75662204  1
  O  O266  1  0.87941787  0.01185688  0.20701684  1
  O  O267  1  0.87945783  0.01711045  0.73411453  1
  O  O268  1  0.87151257  0.50711814  0.25387808  1
  O  O269  1  0.87346997  0.50550439  0.75818876  1
  O  O270  1  0.11219465  0.38410401  0.36673335  1
  O  O271  1  0.12841798  0.35731697  0.87690148  1
  O  O272  1  0.10864084  0.85433891  0.39079511  1
  O  O273  1  0.11421922  0.86162613  0.86473160  1
  O  O274  1  0.62953475  0.37198649  0.36191698  1
  O  O275  1  0.62467356  0.36681984  0.86640306  1
  O  O276  1  0.62294040  0.88183533  0.37826707  1
  O  O277  1  0.62734585  0.87933490  0.86189512  1
  O  O278  1  0.38035475  0.13476886  0.13757719  1
  O  O279  1  0.38242379  0.13773305  0.61792331  1
  O  O280  1  0.38427359  0.62924040  0.13151415  1
  O  O281  1  0.38819651  0.61925611  0.63444094  1
  O  O282  1  0.88222123  0.15314194  0.12848678  1
  O  O283  1  0.87069304  0.14500806  0.63567706  1
  O  O284  1  0.88040576  0.62972210  0.13773554  1
  O  O285  1  0.88236279  0.62747090  0.63377101  1
  O  O286  1  0.25915162  0.24488888  0.12097143  1
  O  O287  1  0.25782638  0.24179429  0.62376027  1
  O  O288  1  0.26389078  0.73595159  0.11866142  1
  O  O289  1  0.25509452  0.74034717  0.60917415  1
  O  O290  1  0.74742541  0.26603589  0.11736443  1
  O  O291  1  0.75131339  0.25204964  0.60862213  1
  O  O292  1  0.75475341  0.75582020  0.12939447  1
  O  O293  1  0.75870365  0.75677981  0.63515756  1
  O  O294  1  0.24583212  0.23027245  0.37341193  1
  O  O295  1  0.24216878  0.24739835  0.88400710  1
  O  O296  1  0.25372089  0.73710465  0.38645471  1
  O  O297  1  0.23730387  0.74698589  0.88752402  1
  O  O298  1  0.74529213  0.25530055  0.39087272  1
  O  O299  1  0.74055543  0.25329551  0.88710882  1
  O  O300  1  0.74826605  0.75360889  0.33875904  1
  O  O301  1  0.73361748  0.74225062  0.86168466  1
  O  O302  1  -0.03685857  0.08907903  -0.00337321  1
  O  O303  1  -0.04361552  0.10477794  0.47527929  1
  O  O304  1  0.01439595  0.61546103  -0.00357064  1
  O  O305  1  -0.00596589  0.61266933  0.51226115  1
  O  O306  1  0.49715845  0.11764112  0.01397468  1
  O  O307  1  0.49656735  0.11536363  0.50929525  1
  O  O308  1  0.50026462  0.61688776  0.01170095  1
  O  O309  1  0.50259272  0.62706260  0.51321880  1
  O  O310  1  0.48008916  0.36818359  0.49596036  1
  O  O311  1  0.48337819  0.38114270  1.00716257  1
  O  O312  1  0.49676111  0.88262175  0.49330710  1
  O  O313  1  0.49575262  0.88767839  1.00890849  1
  O  O314  1  0.98982156  0.38733533  0.49033204  1
  O  O315  1  0.99214938  0.38555489  1.00445466  1
  O  O316  1  0.98940725  0.86350204  0.51266487  1
  O  O317  1  1.00141466  0.86641554  0.97601044  1
  O  O318  1  0.48566040  0.50170461  0.36855922  1
  O  O319  1  0.48120800  0.50082454  0.87002690  1
  O  O320  1  0.50802530  0.99268544  0.38639671  1
  O  O321  1  0.49962422  1.00715887  0.89418393  1
  O  O322  1  0.99187360  0.49775568  0.38517813  1
  O  O323  1  0.99134539  0.50047207  0.88714579  1
  O  O324  1  0.96133830  0.99166418  0.35632547  1
  O  O325  1  1.00423935  0.98618142  0.86493434  1
  O  O326  1  0.04080006  -0.03947479  0.10418700  1
  O  O327  1  0.02693336  -0.01349466  0.62521690  1
  O  O328  1  0.01284744  0.49941012  0.11257116  1
  O  O329  1  0.00457470  0.50449264  0.62124712  1
  O  O330  1  0.50765416  0.00846927  0.11967491  1
  O  O331  1  0.50650416  0.00819175  0.61664075  1
  O  O332  1  0.50746664  0.50962711  0.13219419  1
  O  O333  1  0.50992144  0.51429176  0.63406479  1
  O  O334  1  0.23498067  0.38624335  0.26406684  1
  O  O335  1  0.25046959  0.38548325  0.74563531  1
  O  O336  1  0.22492759  0.88284040  0.29602809  1
  O  O337  1  0.23131944  0.85694503  0.75672786  1
  O  O338  1  0.74282166  0.38449401  0.24247977  1
  O  O339  1  0.73336084  0.37282629  0.74838770  1
  O  O340  1  0.75891951  0.88499914  0.22759145  1
  O  O341  1  0.73512621  0.87594553  0.74034147  1
  O  O342  1  0.26065131  0.12908562  0.25955559  1
  O  O343  1  0.23577470  0.12446578  0.75014294  1
  O  O344  1  0.25767063  0.61794668  0.25906507  1
  O  O345  1  0.26544676  0.62744874  0.75055876  1
  O  O346  1  0.77488630  0.13593714  0.23435873  1
  O  O347  1  0.76381748  0.12541112  0.74940296  1
  O  O348  1  0.75653970  0.60946131  0.24129275  1
  O  O349  1  0.76259521  0.62270911  0.74469519  1
  O  O350  1  0.38447743  0.12917178  0.35884396  1
  O  O351  1  0.37933043  0.12759549  0.86846300  1
  O  O352  1  0.37194094  0.61515845  0.37152593  1
  O  O353  1  0.37334890  0.61693177  0.86623520  1
  O  O354  1  0.86552271  0.12301868  0.35288195  1
  O  O355  1  0.86971486  0.13413247  0.85780231  1
  O  O356  1  0.87789470  0.61522118  0.36123909  1
  O  O357  1  0.88238165  0.61564488  0.86534359  1
  O  O358  1  0.12401521  0.38948587  0.14169394  1
  O  O359  1  0.11699431  0.38870739  0.62376450  1
  O  O360  1  0.15022679  0.85110713  0.14573704  1
  O  O361  1  0.12905180  0.87116230  0.63818116  1
  O  O362  1  0.63079211  0.38337421  0.13400758  1
  O  O363  1  0.61578134  0.38922033  0.62651515  1
  O  O364  1  0.63354209  0.88881774  0.12822432  1
  O  O365  1  0.62957459  0.88152666  0.62832609  1
  O  O366  1  0.12977454  0.26804305  0.24170603  1
  O  O367  1  0.10716031  0.25032977  0.75431458  1
  O  O368  1  0.13299107  0.75019400  0.27320195  1
  O  O369  1  0.11741245  0.74725936  0.75597969  1
  O  O370  1  0.62040092  0.25758576  0.25619363  1
  O  O371  1  0.61856092  0.25550005  0.75603458  1
  O  O372  1  0.61011006  0.76307700  0.23635768  1
  O  O373  1  0.61579589  0.75840712  0.74853799  1
  O  O374  1  0.38155740  0.25015775  0.24530305  1
  O  O375  1  0.38315285  0.25400900  0.73046727  1
  O  O376  1  0.38154383  0.74751178  0.24488279  1
  O  O377  1  0.38822687  0.74695649  0.74739103  1
  O  O378  1  0.87668363  0.27190480  0.23418041  1
  O  O379  1  0.87964601  0.25180489  0.74438053  1
  O  O380  1  0.88390041  0.73420198  0.24233248  1
  O  O381  1  0.88416111  0.74078777  0.74353070  1
  O  O382  1  0.37071265  0.48637820  0.48877884  1
  O  O383  1  0.36701743  0.49562992  0.98707118  1
  O  O384  1  0.38523136  0.98887905  0.50538208  1
  O  O385  1  0.38694220  0.99195982  1.00950668  1
  O  O386  1  0.87943612  0.49891098  0.49478609  1
  O  O387  1  0.88293925  0.49750419  0.99619487  1
  O  O388  1  0.87985234  0.97846959  0.51380997  1
  O  O389  1  0.90638509  1.03806504  1.00289762  1
  O  O390  1  0.13617678  0.01438168  -0.01057328  1
  O  O391  1  0.13195639  -0.01861745  0.49938956  1
  O  O392  1  0.12446171  0.50417952  0.00556735  1
  O  O393  1  0.11713756  0.50057738  0.50832035  1
  O  O394  1  0.61102383  0.00130840  0.01116828  1
  O  O395  1  0.61772137  -0.00303810  0.51212745  1
  O  O396  1  0.62268462  0.49622974  0.01295958  1
  O  O397  1  0.62343372  0.50936432  0.51267308  1
  O  O398  1  0.37441629  0.36672411  0.12138261  1
  O  O399  1  0.37486164  0.36637452  0.61531153  1
  O  O400  1  0.38067259  0.86137106  0.11837774  1
  O  O401  1  0.38696110  0.86925422  0.60539877  1
  O  O402  1  0.86872517  0.37515200  0.11554425  1
  O  O403  1  0.87704608  0.36732859  0.61327860  1
  O  O404  1  0.87689320  0.85289002  0.12981068  1
  O  O405  1  0.86674694  0.86474149  0.62471705  1
  O  O406  1  0.12121939  0.11064330  0.38169287  1
  O  O407  1  0.11684309  0.14662420  0.87430599  1
  O  O408  1  0.14029962  0.62639789  0.38050574  1
  O  O409  1  0.12586026  0.63218336  0.88408242  1
  O  O410  1  0.62812665  0.13622528  0.36720563  1
  O  O411  1  0.62617180  0.14212241  0.87918953  1
  O  O412  1  0.62117140  0.61688168  0.39393964  1
  O  O413  1  0.61621863  0.60904378  0.89583814  1
