# generated using pymatgen
data_V79Zn79O256
_symmetry_space_group_name_H-M   'P 1'
_cell_length_a   16.88812993
_cell_length_b   16.95044403
_cell_length_c   16.96539778
_cell_angle_alpha   89.98427494
_cell_angle_beta   90.04351207
_cell_angle_gamma   89.82440711
_symmetry_Int_Tables_number   1
_chemical_formula_structural   V79Zn79O256
_chemical_formula_sum   'V79 Zn79 O256'
_cell_volume   4856.51245000
_cell_formula_units_Z   1
loop_
 _symmetry_equiv_pos_site_id
 _symmetry_equiv_pos_as_xyz
  1  'x, y, z'
loop_
 _atom_site_type_symbol
 _atom_site_label
 _atom_site_symmetry_multiplicity
 _atom_site_fract_x
 _atom_site_fract_y
 _atom_site_fract_z
 _atom_site_occupancy
  V  V0  1  0.62644339  0.63985440  0.49778543  1
  V  V1  1  0.00193154  0.38799193  0.37414888  1
  V  V2  1  0.74504456  0.64392055  0.37946954  1
  V  V3  1  0.86207237  0.49846630  0.37118615  1
  V  V4  1  0.61482453  0.86218190  0.25343993  1
  V  V5  1  0.37102184  0.37537867  0.50580625  1
  V  V6  1  0.24914347  0.25726879  -0.00137169  1
  V  V7  1  0.37702373  0.88295222  -0.01084242  1
  V  V8  1  0.24560967  0.12698198  0.38111148  1
  V  V9  1  0.87427385  0.75224320  0.62595757  1
  V  V10  1  0.01477154  -0.00274485  0.49758225  1
  V  V11  1  0.50337122  0.48864997  -0.00123049  1
  V  V12  1  0.36984120  0.26055676  0.12201477  1
  V  V13  1  0.12380232  0.74409735  0.87933492  1
  V  V14  1  0.25016575  0.51900081  0.75462851  1
  V  V15  1  0.87931455  0.74856701  0.11626332  1
  V  V16  1  0.63473916  0.49885099  0.13074794  1
  V  V17  1  0.12686390  0.49790824  0.62046804  1
  V  V18  1  0.74497546  0.87252174  0.63592722  1
  V  V19  1  0.38036748  0.00251158  0.37814700  1
  V  V20  1  0.24823272  0.25216334  0.50597414  1
  V  V21  1  0.63892354  0.12542337  -0.00213848  1
  V  V22  1  0.00333403  0.75253149  0.27376652  1
  V  V23  1  0.61511978  0.11952539  0.50004399  1
  V  V24  1  0.49615026  0.25085536  0.24626395  1
  V  V25  1  0.37456692  0.74682758  0.63208833  1
  V  V26  1  0.49839981  0.62651326  0.62902152  1
  V  V27  1  0.63056367  0.24735354  0.88308555  1
  V  V28  1  0.37264822  0.10817588  0.75894301  1
  V  V29  1  0.37914633  0.88108666  0.50175689  1
  V  V30  1  0.87431157  0.24085294  0.62460905  1
  V  V31  1  0.62812776  0.50040706  0.62448722  1
  V  V32  1  0.24416372  0.88777205  0.63075273  1
  V  V33  1  0.62252282  0.00005025  0.62776142  1
  V  V34  1  0.88003081  0.37822175  0.49795840  1
  V  V35  1  0.63014986  0.73403868  0.87380013  1
  V  V36  1  -0.00580091  0.62150106  0.62902683  1
  V  V37  1  0.37865030  0.63467400  0.25270664  1
  V  V38  1  0.76072860  0.51299230  0.76042119  1
  V  V39  1  0.12633731  0.25042751  0.87355452  1
  V  V40  1  0.75055851  0.11937369  0.37613472  1
  V  V41  1  0.50442585  0.75660399  0.75339629  1
  V  V42  1  0.25076888  0.49630753  0.23872258  1
  V  V43  1  0.24870353  0.73675179  -0.00429278  1
  V  V44  1  0.87127816  0.62510615  0.25068562  1
  V  V45  1  0.62179282  0.24940928  0.37486067  1
  V  V46  1  0.00532227  0.76487430  0.75053123  1
  V  V47  1  0.11710003  0.62279050  0.49588402  1
  V  V48  1  0.37673106  0.25351014  0.63600009  1
  V  V49  1  0.74473399  -0.00309212  0.25066212  1
  V  V50  1  0.74923555  0.25119726  0.49974534  1
  V  V51  1  0.49425363  0.12593547  0.12101347  1
  V  V52  1  0.61595302  -0.00052955  0.11854566  1
  V  V53  1  0.49835501  0.37462809  0.37451105  1
  V  V54  1  -0.00641132  0.24748472  0.74898863  1
  V  V55  1  0.63765506  0.37631970  0.24867224  1
  V  V56  1  0.24240354  0.62566176  0.37753398  1
  V  V57  1  0.74291214  0.87203648  0.11274304  1
  V  V58  1  0.24501328  0.74877202  0.50064062  1
  V  V59  1  0.86395867  0.37579807  0.00706841  1
  V  V60  1  0.01873384  0.12217942  0.61817628  1
  V  V61  1  -0.00857144  0.38424073  0.88112782  1
  V  V62  1  0.62011991  0.36977087  0.75326453  1
  V  V63  1  0.50096477  0.62645286  0.12032178  1
  V  V64  1  0.37745535  0.75521001  0.12953564  1
  V  V65  1  0.88313783  0.12948220  0.24217392  1
  V  V66  1  0.11918947  0.25377713  0.37886052  1
  V  V67  1  0.76218280  0.02065457  0.75292290  1
  V  V68  1  0.23876618  0.88451534  0.12138727  1
  V  V69  1  0.49725486  0.12581707  0.63062487  1
  V  V70  1  0.86642693  0.87811376  0.49244230  1
  V  V71  1  0.73537811  0.71701328  0.00770022  1
  V  V72  1  0.06712897  0.55919521  0.07201292  1
  V  V73  1  0.24272605  0.00210025  0.24664528  1
  V  V74  1  0.37597916  0.50074811  0.37741008  1
  V  V75  1  0.12869321  0.37690583  0.74517686  1
  V  V76  1  0.49543911  0.85922543  0.37067181  1
  V  V77  1  0.00465125  0.00549705  0.03482495  1
  V  V78  1  0.12574096  0.37546772  0.24089135  1
  Zn  Zn79  1  0.13132263  0.88788389  0.75476607  1
  Zn  Zn80  1  0.88570092  -0.00428909  0.37007816  1
  Zn  Zn81  1  0.36665486  0.38207228  -0.00237448  1
  Zn  Zn82  1  0.48039417  0.01908213  -0.02980158  1
  Zn  Zn83  1  0.49097752  0.36954232  0.86901921  1
  Zn  Zn84  1  0.11159086  0.87630057  0.26677267  1
  Zn  Zn85  1  0.36829732  0.51189277  0.87537681  1
  Zn  Zn86  1  0.53122352  0.88496656  0.86936609  1
  Zn  Zn87  1  0.12296128  0.12508773  0.01036381  1
  Zn  Zn88  1  0.90517646  0.89311432  -0.04910193  1
  Zn  Zn89  1  0.85692050  0.24551342  0.12018620  1
  Zn  Zn90  1  0.24842683  0.11498554  0.87236734  1
  Zn  Zn91  1  0.37154379  0.12625090  0.24919042  1
  Zn  Zn92  1  0.75457317  0.37681533  0.62995895  1
  Zn  Zn93  1  0.50130252  0.50157413  0.50092004  1
  Zn  Zn94  1  0.18969256  0.19533559  0.19245983  1
  Zn  Zn95  1  0.19196205  0.18902673  0.69063785  1
  Zn  Zn96  1  0.18760315  0.69112658  0.18745266  1
  Zn  Zn97  1  0.18191333  0.69040998  0.68185222  1
  Zn  Zn98  1  0.68457754  0.18376533  0.19093367  1
  Zn  Zn99  1  0.68560344  0.19017176  0.68659394  1
  Zn  Zn100  1  0.68608655  0.68233003  0.19231813  1
  Zn  Zn101  1  0.68845380  0.68709400  0.68696809  1
  Zn  Zn102  1  0.31040763  0.31275109  0.31443980  1
  Zn  Zn103  1  0.31077079  0.32239030  0.81746495  1
  Zn  Zn104  1  0.28725710  0.82317855  0.32155355  1
  Zn  Zn105  1  0.30871053  0.80532295  0.81197929  1
  Zn  Zn106  1  0.81676653  0.30589349  0.31286415  1
  Zn  Zn107  1  0.80826316  0.31982146  0.81223621  1
  Zn  Zn108  1  0.81115294  0.81339581  0.30601842  1
  Zn  Zn109  1  0.86009764  0.73602694  0.86232554  1
  Zn  Zn110  1  0.18813927  0.43979778  0.43650519  1
  Zn  Zn111  1  0.18032464  0.44327622  0.93570565  1
  Zn  Zn112  1  0.19125233  0.93418116  0.43542313  1
  Zn  Zn113  1  0.16441479  0.93199872  0.94089212  1
  Zn  Zn114  1  0.68479154  0.43908564  0.43736759  1
  Zn  Zn115  1  0.68439990  0.45061947  0.93516092  1
  Zn  Zn116  1  0.68070441  0.93134742  0.43885852  1
  Zn  Zn117  1  0.74149464  0.88813154  0.88007644  1
  Zn  Zn118  1  0.30688248  0.06839285  0.05863600  1
  Zn  Zn119  1  0.31049321  0.06689712  0.56483375  1
  Zn  Zn120  1  0.31894573  0.56312079  0.06333402  1
  Zn  Zn121  1  0.30919249  0.56132622  0.56680395  1
  Zn  Zn122  1  0.81634085  0.05173314  0.06247885  1
  Zn  Zn123  1  0.81337352  0.05737537  0.56279032  1
  Zn  Zn124  1  0.82194807  0.55317509  0.07211312  1
  Zn  Zn125  1  0.81053334  0.56226995  0.56036884  1
  Zn  Zn126  1  0.44157237  0.43946215  0.18646073  1
  Zn  Zn127  1  0.43510852  0.44261701  0.68814141  1
  Zn  Zn128  1  0.43010935  0.93737058  0.18950480  1
  Zn  Zn129  1  0.43936533  0.93760290  0.68810344  1
  Zn  Zn130  1  0.93550793  0.43548793  0.18530282  1
  Zn  Zn131  1  0.93913827  0.43355604  0.68599381  1
  Zn  Zn132  1  0.92980992  0.92912059  0.18955307  1
  Zn  Zn133  1  0.93558838  0.94021055  0.68108069  1
  Zn  Zn134  1  0.06542272  0.06501915  0.31543250  1
  Zn  Zn135  1  0.05387152  0.07083205  0.81408457  1
  Zn  Zn136  1  0.04578786  0.54930966  0.26123638  1
  Zn  Zn137  1  0.06024050  0.56600841  0.80788236  1
  Zn  Zn138  1  0.56084335  0.06022345  0.31023760  1
  Zn  Zn139  1  0.56808014  0.06477721  0.80869290  1
  Zn  Zn140  1  0.56457244  0.56585987  0.31042831  1
  Zn  Zn141  1  0.56219448  0.56166757  0.81056922  1
  Zn  Zn142  1  0.43347740  0.18842764  0.43911393  1
  Zn  Zn143  1  0.44121960  0.19717148  0.93355473  1
  Zn  Zn144  1  0.43337100  0.68722630  0.44447336  1
  Zn  Zn145  1  0.44029195  0.68651903  0.93466077  1
  Zn  Zn146  1  0.93997564  0.18454138  0.43612643  1
  Zn  Zn147  1  0.94417243  0.19159453  0.94935160  1
  Zn  Zn148  1  0.93183330  0.68812511  0.44227875  1
  Zn  Zn149  1  0.93073743  0.56514720  0.93449989  1
  Zn  Zn150  1  0.06557898  0.31716717  0.05836494  1
  Zn  Zn151  1  0.06035749  0.31300900  0.56067967  1
  Zn  Zn152  1  0.06059384  0.81534936  0.05599156  1
  Zn  Zn153  1  0.06136614  0.81550973  0.56046671  1
  Zn  Zn154  1  0.68415515  0.31764742  0.06496037  1
  Zn  Zn155  1  0.55829165  0.31284800  0.56470075  1
  Zn  Zn156  1  0.55966685  0.81306756  0.05780671  1
  Zn  Zn157  1  0.55915608  0.81657642  0.56222338  1
  O  O158  1  0.09500308  0.16731979  0.12811483  1
  O  O159  1  0.11783457  0.13094266  0.62181758  1
  O  O160  1  0.12791600  0.62382922  0.12096601  1
  O  O161  1  0.11396894  0.61843329  0.61509651  1
  O  O162  1  0.61573606  0.12036314  0.11606077  1
  O  O163  1  0.61616373  0.12313296  0.61765334  1
  O  O164  1  0.61102724  0.61037682  0.14407323  1
  O  O165  1  0.61980585  0.61970558  0.61579786  1
  O  O166  1  0.37858860  0.38297625  0.38205153  1
  O  O167  1  0.37749517  0.39102729  0.87786111  1
  O  O168  1  0.37607508  0.88305143  0.38156016  1
  O  O169  1  0.36350073  0.86899707  0.89105567  1
  O  O170  1  0.88130422  0.37935312  0.37624744  1
  O  O171  1  0.88564712  0.36976215  0.88440351  1
  O  O172  1  0.86715523  0.87581038  0.38838423  1
  O  O173  1  0.84823568  0.84680116  0.87212854  1
  O  O174  1  0.25737556  0.01233614  0.37025694  1
  O  O175  1  0.20346411  0.00377121  0.85244077  1
  O  O176  1  0.26202791  0.50780208  0.37263492  1
  O  O177  1  0.24185091  0.50057268  0.85783948  1
  O  O178  1  0.74289474  0.00711830  0.36715998  1
  O  O179  1  0.74556238  -0.00137842  0.85045570  1
  O  O180  1  0.75924715  0.50131509  0.37332733  1
  O  O181  1  0.74546174  0.50562102  0.86006095  1
  O  O182  1  0.25929427  0.50146333  0.14092288  1
  O  O183  1  0.23461490  0.50501934  0.63505368  1
  O  O184  1  0.24972494  0.99383756  0.12990628  1
  O  O185  1  0.25358885  0.98683997  0.62226864  1
  O  O186  1  0.73339853  0.50607268  0.13192534  1
  O  O187  1  0.74011512  0.49737267  0.62642854  1
  O  O188  1  0.73799953  0.99140862  0.13278434  1
  O  O189  1  0.74329840  0.99391141  0.62911230  1
  O  O190  1  0.01731670  0.38015658  0.25895018  1
  O  O191  1  0.00543323  0.36635941  0.75689600  1
  O  O192  1  -0.00344201  0.85852591  0.25157904  1
  O  O193  1  0.01080452  0.86864356  0.73222355  1
  O  O194  1  0.50273537  0.36501532  0.25579891  1
  O  O195  1  0.51637027  0.39084326  0.75208052  1
  O  O196  1  0.50317532  0.87980223  0.25807382  1
  O  O197  1  0.50303691  0.86052923  0.74700587  1
  O  O198  1  0.49984543  0.13643263  0.24293066  1
  O  O199  1  0.48792039  0.12591447  0.73922977  1
  O  O200  1  0.48402291  0.62086683  0.24475183  1
  O  O201  1  0.50679851  0.63500903  0.73438096  1
  O  O202  1  0.98032398  0.11443844  0.25828391  1
  O  O203  1  1.00400488  0.13847553  0.73205002  1
  O  O204  1  0.98241597  0.64149426  0.26063568  1
  O  O205  1  1.00451077  0.63854633  0.73120546  1
  O  O206  1  0.36682147  0.25383416  0.00496947  1
  O  O207  1  0.36813142  0.25825179  0.50645607  1
  O  O208  1  0.36239494  0.75909463  0.00713603  1
  O  O209  1  0.36744517  0.75895598  0.51150547  1
  O  O210  1  0.88091973  0.26650005  0.00508064  1
  O  O211  1  0.86713558  0.25560787  0.50170549  1
  O  O212  1  0.84989167  0.74283137  0.01604966  1
  O  O213  1  0.88359524  0.76872639  0.51227644  1
  O  O214  1  0.13750127  0.26167998  0.49187935  1
  O  O215  1  0.13161575  0.25203024  0.98831567  1
  O  O216  1  0.13711893  0.74026656  0.50632752  1
  O  O217  1  0.13560891  0.75298036  0.99009816  1
  O  O218  1  0.63115402  0.24267253  0.49598921  1
  O  O219  1  0.63127682  0.23888267  0.99216029  1
  O  O220  1  0.62292314  0.73886980  0.50476969  1
  O  O221  1  0.63088615  0.74070932  1.00111872  1
  O  O222  1  0.48927027  0.24005815  0.13514473  1
  O  O223  1  0.48920720  0.23791584  0.61903969  1
  O  O224  1  0.48534943  0.74451754  0.12029593  1
  O  O225  1  0.49516282  0.74600564  0.63106378  1
  O  O226  1  1.03639888  0.22490011  0.12869691  1
  O  O227  1  0.99467519  0.24154190  0.62659882  1
  O  O228  1  0.97942039  0.75554406  0.11304849  1
  O  O229  1  0.99771294  0.74243478  0.62747034  1
  O  O230  1  0.01269323  0.25734513  0.37985809  1
  O  O231  1  0.00390425  0.25811072  0.86556807  1
  O  O232  1  -0.00186330  0.75318195  0.37287540  1
  O  O233  1  0.00827923  0.75819219  0.85387505  1
  O  O234  1  0.50105123  0.25303950  0.36627779  1
  O  O235  1  0.51964679  0.25740820  0.87730510  1
  O  O236  1  0.48746552  0.76015934  0.37289769  1
  O  O237  1  0.51041239  0.75580004  0.86882395  1
  O  O238  1  0.25494166  0.13680455  0.49064334  1
  O  O239  1  0.24297932  0.13557075  0.99064372  1
  O  O240  1  0.24202253  0.62956865  0.49704765  1
  O  O241  1  0.25393062  0.63935364  1.00724627  1
  O  O242  1  0.74305810  0.13280632  0.49329551  1
  O  O243  1  0.73635849  0.11273003  1.00288006  1
  O  O244  1  0.74283292  0.62318221  0.48717575  1
  O  O245  1  0.74145726  0.61967567  1.01570792  1
  O  O246  1  0.24653037  0.36195848  -0.00641459  1
  O  O247  1  0.26227742  0.36779406  0.49375663  1
  O  O248  1  0.25460493  0.87423943  0.01105868  1
  O  O249  1  0.25903157  0.86605516  0.51158640  1
  O  O250  1  0.75901817  0.37836327  -0.00421304  1
  O  O251  1  0.75613681  0.36173752  0.49567806  1
  O  O252  1  0.74409412  0.87783180  0.01456006  1
  O  O253  1  0.76139939  0.88273981  0.50763584  1
  O  O254  1  0.14238924  0.49010227  0.25734812  1
  O  O255  1  0.12986827  0.49662092  0.74124051  1
  O  O256  1  0.13863069  0.99602133  0.25845052  1
  O  O257  1  0.14354322  1.00233411  0.78933049  1
  O  O258  1  0.61345747  0.48708388  0.24129819  1
  O  O259  1  0.63325967  0.49706578  0.73982167  1
  O  O260  1  0.62982195  0.99769949  0.23958228  1
  O  O261  1  0.63624717  1.01053023  0.73139521  1
  O  O262  1  0.36174822  0.00396460  0.25950901  1
  O  O263  1  0.37353066  0.00947582  0.74988567  1
  O  O264  1  0.36666376  0.50601222  0.25848300  1
  O  O265  1  0.35156055  0.49653364  0.74282316  1
  O  O266  1  0.85903280  0.00374335  0.25231188  1
  O  O267  1  0.86119007  0.00361476  0.73606454  1
  O  O268  1  0.87956916  0.51278179  0.25860873  1
  O  O269  1  0.85795003  0.48717446  0.74298311  1
  O  O270  1  0.11733814  0.37333365  0.37443286  1
  O  O271  1  0.11157106  0.36849770  0.86564958  1
  O  O272  1  0.17806804  0.85847282  0.35608064  1
  O  O273  1  0.13168224  0.85296254  0.86671315  1
  O  O274  1  0.61715956  0.36944175  0.37028443  1
  O  O275  1  0.62459979  0.36983809  0.86497941  1
  O  O276  1  0.60767849  0.88266238  0.36654429  1
  O  O277  1  0.63676741  0.84501770  0.88363673  1
  O  O278  1  0.38103359  0.13274333  0.12549723  1
  O  O279  1  0.37947781  0.13211081  0.63468910  1
  O  O280  1  0.37964633  0.63496128  0.13488034  1
  O  O281  1  0.38617316  0.63550114  0.61423560  1
  O  O282  1  0.86802950  0.12275185  0.13967161  1
  O  O283  1  0.87959297  0.13898062  0.61506033  1
  O  O284  1  0.86251812  0.63881675  0.13979543  1
  O  O285  1  0.88821087  0.63453949  0.60943322  1
  O  O286  1  0.26004381  0.24289386  0.11350824  1
  O  O287  1  0.25971871  0.24610229  0.61320857  1
  O  O288  1  0.25590243  0.76084143  0.11558697  1
  O  O289  1  0.25909562  0.75089492  0.61713106  1
  O  O290  1  0.74424709  0.24695845  0.12523749  1
  O  O291  1  0.75549062  0.25226198  0.61411505  1
  O  O292  1  0.74233585  0.75291183  0.11786631  1
  O  O293  1  0.75646310  0.76364646  0.63105408  1
  O  O294  1  0.24656488  0.24509974  0.38506949  1
  O  O295  1  0.24081414  0.25091863  0.87928784  1
  O  O296  1  0.26657149  0.73194698  0.39132087  1
  O  O297  1  0.24228943  0.74514833  0.88791700  1
  O  O298  1  0.74363405  0.23894007  0.38186454  1
  O  O299  1  0.73043641  0.25391005  0.86578316  1
  O  O300  1  0.75238710  0.74235888  0.37942095  1
  O  O301  1  0.73886119  0.72949626  0.89835796  1
  O  O302  1  0.00174466  0.11019166  0.00532922  1
  O  O303  1  -0.00042033  0.11596093  0.50971214  1
  O  O304  1  0.00136719  0.60895041  0.01340448  1
  O  O305  1  0.01088724  0.63204465  0.50763959  1
  O  O306  1  0.50243254  0.12721928  0.00985236  1
  O  O307  1  0.50878574  0.12921466  0.50646149  1
  O  O308  1  0.49567527  0.62028896  0.01690970  1
  O  O309  1  0.50845633  0.62405390  0.50766102  1
  O  O310  1  0.49049491  0.37596782  0.49124011  1
  O  O311  1  0.49816945  0.38882713  1.00178345  1
  O  O312  1  0.48612316  0.87132971  0.49046063  1
  O  O313  1  0.48337397  0.87503194  0.99497500  1
  O  O314  1  0.98806936  0.37023157  0.48869836  1
  O  O315  1  0.99713197  0.37448259  0.98489679  1
  O  O316  1  0.98798879  0.89224952  0.51281358  1
  O  O317  1  1.00978488  0.89838589  0.99624318  1
  O  O318  1  0.48829074  0.49636358  0.37443139  1
  O  O319  1  0.51135906  0.49948726  0.89389003  1
  O  O320  1  0.48361131  0.99921984  0.37032727  1
  O  O321  1  0.50599686  0.99280943  0.86623059  1
  O  O322  1  0.98950096  0.49054900  0.36889961  1
  O  O323  1  0.99910800  0.48627134  0.86633361  1
  O  O324  1  1.00053343  1.00625281  0.39231363  1
  O  O325  1  0.94655129  1.04480307  0.86205443  1
  O  O326  1  0.00396748  -0.00319999  0.13442531  1
  O  O327  1  0.00105483  0.01686073  0.61823755  1
  O  O328  1  0.01292303  0.51119421  0.14975218  1
  O  O329  1  0.00496784  0.51546388  0.63073377  1
  O  O330  1  0.50276890  0.01335340  0.13344149  1
  O  O331  1  0.50830313  0.01136659  0.62697580  1
  O  O332  1  0.50239543  0.50772647  0.11747785  1
  O  O333  1  0.50819440  0.51093172  0.62489430  1
  O  O334  1  0.24457906  0.38964681  0.25719018  1
  O  O335  1  0.23054939  0.37754696  0.74982801  1
  O  O336  1  0.26102983  0.88610517  0.22712196  1
  O  O337  1  0.25279400  0.86761739  0.73299089  1
  O  O338  1  0.73667964  0.36887502  0.25911868  1
  O  O339  1  0.73473319  0.38604032  0.74708733  1
  O  O340  1  0.73629923  0.88238076  0.24631130  1
  O  O341  1  0.74480844  0.88607765  0.73285426  1
  O  O342  1  0.24945504  0.11976353  0.25774393  1
  O  O343  1  0.26854272  0.13122453  0.75212428  1
  O  O344  1  0.25628149  0.61532394  0.25837336  1
  O  O345  1  0.24338124  0.61818427  0.74720551  1
  O  O346  1  0.75052028  0.11498879  0.25960980  1
  O  O347  1  0.75163898  0.12146121  0.74525972  1
  O  O348  1  0.75804641  0.63200912  0.26839042  1
  O  O349  1  0.75352770  0.61207591  0.73960802  1
  O  O350  1  0.36532728  0.12063288  0.37393696  1
  O  O351  1  0.37825205  0.12808505  0.86185328  1
  O  O352  1  0.37045744  0.61685619  0.37161963  1
  O  O353  1  0.38599892  0.62133735  0.86536782  1
  O  O354  1  0.86210982  0.12288710  0.36837305  1
  O  O355  1  0.90030189  0.10635435  0.86989563  1
  O  O356  1  0.86195662  0.61923029  0.37634310  1
  O  O357  1  0.88702591  0.63100132  0.86021503  1
  O  O358  1  0.12498259  0.36972477  0.14271551  1
  O  O359  1  0.10875354  0.38866581  0.63237897  1
  O  O360  1  0.13902277  0.86818428  0.12914815  1
  O  O361  1  0.14168329  0.87219616  0.62475215  1
  O  O362  1  0.62395096  0.38775257  0.13500195  1
  O  O363  1  0.62336716  0.38297369  0.63275390  1
  O  O364  1  0.62223295  0.88240300  0.13202865  1
  O  O365  1  0.63652542  0.88559977  0.61207258  1
  O  O366  1  0.14144578  0.27074614  0.26729198  1
  O  O367  1  0.11632874  0.25850589  0.75228236  1
  O  O368  1  0.10400507  0.74519493  0.24714384  1
  O  O369  1  0.11700971  0.75257848  0.75301653  1
  O  O370  1  0.61409323  0.25637127  0.25551042  1
  O  O371  1  0.62376014  0.26539622  0.75091270  1
  O  O372  1  0.62478867  0.76385030  0.24739471  1
  O  O373  1  0.62074423  0.74083546  0.76412826  1
  O  O374  1  0.37914842  0.25066201  0.24272630  1
  O  O375  1  0.37053048  0.26018413  0.73657395  1
  O  O376  1  0.35772820  0.74213145  0.24116301  1
  O  O377  1  0.38440436  0.75266484  0.73834527  1
  O  O378  1  0.87343152  0.23394950  0.24633516  1
  O  O379  1  0.88359093  0.26127397  0.73764722  1
  O  O380  1  0.88310028  0.74511067  0.24405828  1
  O  O381  1  0.89384265  0.75490198  0.73203310  1
  O  O382  1  0.37431502  0.49351114  0.49410545  1
  O  O383  1  0.38850767  0.50040811  1.00066505  1
  O  O384  1  0.36532279  0.99025851  0.49160116  1
  O  O385  1  0.37127380  0.98859657  1.00157088  1
  O  O386  1  0.86738015  0.48501130  0.49029769  1
  O  O387  1  0.87769160  0.48403798  1.00185519  1
  O  O388  1  0.88055334  0.99026437  0.49673356  1
  O  O389  1  0.89621117  0.99305326  1.01043621  1
  O  O390  1  0.11231280  0.00731385  0.00785801  1
  O  O391  1  0.11469272  -0.00904980  0.49804663  1
  O  O392  1  0.12084689  0.49388259  0.01497330  1
  O  O393  1  0.12991587  0.50970615  0.50851726  1
  O  O394  1  0.61405211  0.01315811  0.01342393  1
  O  O395  1  0.63276880  0.01374598  0.50967417  1
  O  O396  1  0.61618678  0.49565258  0.01973718  1
  O  O397  1  0.62301769  0.50558509  0.50962046  1
  O  O398  1  0.37951976  0.36356042  0.12258271  1
  O  O399  1  0.38523342  0.36892340  0.61238497  1
  O  O400  1  0.36924285  0.86936783  0.11445412  1
  O  O401  1  0.37039591  0.86838520  0.61842782  1
  O  O402  1  0.88021911  0.37053093  0.11262025  1
  O  O403  1  0.87673759  0.36380137  0.61174440  1
  O  O404  1  0.85580445  0.85598300  0.13474346  1
  O  O405  1  0.86095834  0.87189660  0.61740792  1
  O  O406  1  0.13615088  0.13962213  0.36972522  1
  O  O407  1  0.11935361  0.14564159  0.87306239  1
  O  O408  1  0.13829884  0.61733362  0.38337426  1
  O  O409  1  0.11510713  0.64368097  0.86972898  1
  O  O410  1  0.62936601  0.12810442  0.38144782  1
  O  O411  1  0.62029958  0.13531826  0.88845674  1
  O  O412  1  0.63729782  0.62157049  0.38036857  1
  O  O413  1  0.61208635  0.63502359  0.88250597  1
