# generated using pymatgen
data_V79Zn79O256
_symmetry_space_group_name_H-M   'P 1'
_cell_length_a   16.88396316
_cell_length_b   16.88333376
_cell_length_c   16.86970448
_cell_angle_alpha   89.94939187
_cell_angle_beta   90.08841678
_cell_angle_gamma   89.95783614
_symmetry_Int_Tables_number   1
_chemical_formula_structural   V79Zn79O256
_chemical_formula_sum   'V79 Zn79 O256'
_cell_volume   4808.82831353
_cell_formula_units_Z   1
loop_
 _symmetry_equiv_pos_site_id
 _symmetry_equiv_pos_as_xyz
  1  'x, y, z'
loop_
 _atom_site_type_symbol
 _atom_site_label
 _atom_site_symmetry_multiplicity
 _atom_site_fract_x
 _atom_site_fract_y
 _atom_site_fract_z
 _atom_site_occupancy
  V  V0  1  0.00709982  0.13721130  0.12363347  1
  V  V1  1  0.24881035  0.63365781  0.87303927  1
  V  V2  1  0.37188378  0.51529627  0.37612681  1
  V  V3  1  0.12129262  0.50550781  0.12245300  1
  V  V4  1  0.25056247  -0.00157937  0.75243108  1
  V  V5  1  0.77102269  0.50641831  0.74644951  1
  V  V6  1  0.50751325  0.75203618  0.74697197  1
  V  V7  1  0.24579384  0.12558709  0.88955255  1
  V  V8  1  -0.00312367  0.37130051  0.36804175  1
  V  V9  1  0.12369860  0.37621355  0.24529093  1
  V  V10  1  0.74890538  0.74372606  0.48874591  1
  V  V11  1  -0.01230609  0.50503108  -0.00502755  1
  V  V12  1  0.87694506  0.14033633  0.24430590  1
  V  V13  1  0.87738945  0.11554216  0.74994075  1
  V  V14  1  0.87877367  0.24156230  0.62402012  1
  V  V15  1  0.36573180  0.77455844  0.62371266  1
  V  V16  1  0.50049988  0.50387892  0.50054174  1
  V  V17  1  0.87898935  0.87221515  0.49450425  1
  V  V18  1  0.87641816  0.74262328  0.62709307  1
  V  V19  1  0.87431727  -0.00852850  0.88653747  1
  V  V20  1  -0.00032836  -0.00199367  0.50127297  1
  V  V21  1  0.51454809  0.62865194  0.11946942  1
  V  V22  1  0.74757422  0.49530902  0.24191084  1
  V  V23  1  0.38043013  -0.00816555  0.39384850  1
  V  V24  1  0.00531444  0.50081313  0.49780878  1
  V  V25  1  0.37443886  0.37611656  0.49221252  1
  V  V26  1  0.00234085  0.74497462  0.75085499  1
  V  V27  1  0.50007399  0.75047198  0.24977453  1
  V  V28  1  0.25035393  0.75104257  0.49250099  1
  V  V29  1  0.62879088  0.62510017  0.48131098  1
  V  V30  1  0.76082419  0.87269334  0.12590766  1
  V  V31  1  0.62020783  0.87485678  0.24921996  1
  V  V32  1  0.00314873  0.86601927  0.88666276  1
  V  V33  1  0.00457481  0.62290329  0.62292637  1
  V  V34  1  0.62406156  0.50570042  0.62343607  1
  V  V35  1  0.13265169  0.37375359  0.74814093  1
  V  V36  1  0.62121306  0.25905729  0.38421532  1
  V  V37  1  0.12201935  0.24891749  0.36775742  1
  V  V38  1  0.11925914  0.12395600  0.50622140  1
  V  V39  1  0.74135716  0.13685361  0.88382778  1
  V  V40  1  0.24989689  0.25191114  0.50035859  1
  V  V41  1  0.11474108  0.87912010  0.26066068  1
  V  V42  1  0.86559916  0.36645467  0.01392421  1
  V  V43  1  0.12425622  -0.00387404  0.62685622  1
  V  V44  1  0.37623230  0.62151926  0.73763184  1
  V  V45  1  0.62664893  0.37328951  0.75117182  1
  V  V46  1  0.87591952  -0.00072822  0.37259092  1
  V  V47  1  0.50276772  0.37864687  0.87591206  1
  V  V48  1  -0.01077054  0.63670217  0.12701321  1
  V  V49  1  0.86544346  0.63285367  0.25729658  1
  V  V50  1  0.25033234  0.12138245  0.37604120  1
  V  V51  1  0.51172234  0.86788065  0.87717760  1
  V  V52  1  0.36997273  0.49894555  0.87218920  1
  V  V53  1  0.50390206  0.24911867  0.75488060  1
  V  V54  1  0.12850947  0.86848075  0.74956277  1
  V  V55  1  0.25320569  -0.00530295  0.25036702  1
  V  V56  1  0.50354028  0.87171072  0.39123106  1
  V  V57  1  0.74348308  0.76119783  -0.00662728  1
  V  V58  1  0.62383116  0.11934197  0.50454381  1
  V  V59  1  -0.01016878  0.37871730  0.87284338  1
  V  V60  1  0.51472268  0.50963356  -0.00189636  1
  V  V61  1  0.00272309  0.24140304  0.74922174  1
  V  V62  1  0.49919598  0.12031674  0.62213020  1
  V  V63  1  0.37126310  0.86241531  0.00110827  1
  V  V64  1  0.61599721  0.01065583  0.11990126  1
  V  V65  1  0.74704266  0.87466811  0.63178093  1
  V  V66  1  0.37219365  0.12428500  0.75619995  1
  V  V67  1  0.74748529  0.62314909  0.87946693  1
  V  V68  1  0.13107974  0.49748929  0.62480412  1
  V  V69  1  0.11824711  0.73636196  0.37901619  1
  V  V70  1  0.62295510  0.37765082  0.23096248  1
  V  V71  1  0.75038077  0.36606739  0.62059169  1
  V  V72  1  0.24662782  0.50450088  0.25221491  1
  V  V73  1  0.39111066  0.12926091  0.24977379  1
  V  V74  1  0.12609443  0.24991986  0.89183546  1
  V  V75  1  0.87276864  0.36760566  0.49829546  1
  V  V76  1  0.49506176  0.01165083  -0.00764911  1
  V  V77  1  0.36733769  0.63081380  0.23353804  1
  V  V78  1  0.75053732  0.13168924  0.38264793  1
  Zn  Zn79  1  0.73856778  -0.00665866  0.75589125  1
  Zn  Zn80  1  0.26796280  0.31049638  0.03596538  1
  Zn  Zn81  1  -0.01035633  0.76109537  0.25522813  1
  Zn  Zn82  1  0.86816233  0.50465564  0.37930182  1
  Zn  Zn83  1  0.37556169  0.25276647  0.62479318  1
  Zn  Zn84  1  0.10914762  0.63965520  -0.01995160  1
  Zn  Zn85  1  0.61337284  -0.01330962  0.62636478  1
  Zn  Zn86  1  0.25995341  0.72027622  0.03057263  1
  Zn  Zn87  1  0.12760561  -0.00195436  0.11627977  1
  Zn  Zn88  1  0.49240603  0.36946224  0.36621050  1
  Zn  Zn89  1  0.25659828  0.86234086  0.13120652  1
  Zn  Zn90  1  0.39728395  0.24104810  0.10756663  1
  Zn  Zn91  1  0.00869019  0.00990752  0.00151167  1
  Zn  Zn92  1  0.25476973  0.37976249  0.62884553  1
  Zn  Zn93  1  0.74614722  0.00452631  0.24766975  1
  Zn  Zn94  1  0.19049532  0.18465755  0.18104048  1
  Zn  Zn95  1  0.18678962  0.18670294  0.68878743  1
  Zn  Zn96  1  0.17906901  0.69118582  0.19051681  1
  Zn  Zn97  1  0.19168556  0.68365154  0.68548725  1
  Zn  Zn98  1  0.67612317  0.18726923  0.20040433  1
  Zn  Zn99  1  0.68907746  0.18092118  0.69446746  1
  Zn  Zn100  1  0.68732963  0.69164457  0.18982270  1
  Zn  Zn101  1  0.68912317  0.68570722  0.68543997  1
  Zn  Zn102  1  0.31312549  0.31388126  0.22289888  1
  Zn  Zn103  1  0.31522292  0.30789225  0.82153734  1
  Zn  Zn104  1  0.31414421  0.80963058  0.31683820  1
  Zn  Zn105  1  0.32078530  0.81491774  0.81705509  1
  Zn  Zn106  1  0.80356811  0.31565546  0.31009599  1
  Zn  Zn107  1  0.81062056  0.31019999  0.80993051  1
  Zn  Zn108  1  0.80789950  0.81591354  0.30973089  1
  Zn  Zn109  1  0.81660616  0.80393905  0.81614935  1
  Zn  Zn110  1  0.18873510  0.43877265  0.43238908  1
  Zn  Zn111  1  0.17300323  0.44708831  0.92939468  1
  Zn  Zn112  1  0.19156427  0.92963442  0.44152052  1
  Zn  Zn113  1  0.18809672  0.93376738  0.93632904  1
  Zn  Zn114  1  0.69396645  0.44381361  0.43281894  1
  Zn  Zn115  1  0.69223980  0.44250095  0.93228306  1
  Zn  Zn116  1  0.68976762  0.93745711  0.44109897  1
  Zn  Zn117  1  0.68510718  0.94202866  0.94089351  1
  Zn  Zn118  1  0.32049029  0.05667365  0.06817332  1
  Zn  Zn119  1  0.31093552  0.06116237  0.57077689  1
  Zn  Zn120  1  0.29566092  0.51217985  0.04059031  1
  Zn  Zn121  1  0.30746865  0.56930680  0.55659045  1
  Zn  Zn122  1  0.80988456  0.06126191  0.06531641  1
  Zn  Zn123  1  0.80992743  0.06057727  0.56182484  1
  Zn  Zn124  1  0.80794380  0.56776229  0.06173251  1
  Zn  Zn125  1  0.81305693  0.55906265  0.56172495  1
  Zn  Zn126  1  0.44152759  0.44342169  0.18403120  1
  Zn  Zn127  1  0.43794459  0.43678243  0.68384193  1
  Zn  Zn128  1  0.43547960  0.94062256  0.18530748  1
  Zn  Zn129  1  0.43857527  0.93972639  0.69647223  1
  Zn  Zn130  1  0.93264277  0.44512790  0.18524870  1
  Zn  Zn131  1  0.94523873  0.42918843  0.68263172  1
  Zn  Zn132  1  0.94032548  0.95001279  0.18636857  1
  Zn  Zn133  1  0.93944368  0.93195173  0.68654435  1
  Zn  Zn134  1  0.05828596  0.06321618  0.31149945  1
  Zn  Zn135  1  0.06540081  0.05861872  0.82116830  1
  Zn  Zn136  1  0.05419038  0.56245589  0.31079054  1
  Zn  Zn137  1  0.06156007  0.55985745  0.80652053  1
  Zn  Zn138  1  0.56481961  0.05649407  0.32036809  1
  Zn  Zn139  1  0.56450761  0.05623751  0.81146811  1
  Zn  Zn140  1  0.55921504  0.55708459  0.30801025  1
  Zn  Zn141  1  0.56599754  0.56768867  0.80779778  1
  Zn  Zn142  1  0.43848606  0.18686010  0.43296828  1
  Zn  Zn143  1  0.43228814  0.19642443  0.94023821  1
  Zn  Zn144  1  0.44010520  0.69225420  0.44425400  1
  Zn  Zn145  1  0.43690410  0.68683427  0.93242721  1
  Zn  Zn146  1  0.93915387  0.18585891  0.43584110  1
  Zn  Zn147  1  0.93124278  0.18784842  0.93850854  1
  Zn  Zn148  1  0.93980019  0.68705165  0.43831563  1
  Zn  Zn149  1  0.91746930  0.69042523  0.93891664  1
  Zn  Zn150  1  0.05032958  0.31831796  0.06461166  1
  Zn  Zn151  1  0.06091341  0.31196187  0.56136183  1
  Zn  Zn152  1  0.08033857  0.81012042  0.06805187  1
  Zn  Zn153  1  0.06699271  0.81260077  0.56072386  1
  Zn  Zn154  1  0.54223807  0.32032132  0.06604491  1
  Zn  Zn155  1  0.56012842  0.31069486  0.56234544  1
  Zn  Zn156  1  0.56617488  0.81214382  0.06254981  1
  Zn  Zn157  1  0.56373714  0.79839814  0.56987274  1
  O  O158  1  0.11067740  0.11892365  0.13789661  1
  O  O159  1  0.12767916  0.11561059  0.61404093  1
  O  O160  1  0.10575756  0.61595123  0.13612167  1
  O  O161  1  0.11395749  0.61325106  0.63050391  1
  O  O162  1  0.62994794  0.10868579  0.13315532  1
  O  O163  1  0.61742412  0.13000987  0.61827965  1
  O  O164  1  0.61230327  0.62192725  0.13380642  1
  O  O165  1  0.62919572  0.60805274  0.61851427  1
  O  O166  1  0.37495409  0.39201408  0.38611214  1
  O  O167  1  0.38880364  0.39070765  0.85918343  1
  O  O168  1  0.38666235  0.88417188  0.37530742  1
  O  O169  1  0.38771763  0.87360031  0.89064379  1
  O  O170  1  0.88182831  0.36776120  0.38255081  1
  O  O171  1  0.88788238  0.37194048  0.87223877  1
  O  O172  1  0.86679181  0.88533839  0.38464406  1
  O  O173  1  0.88832570  0.88375395  0.86846452  1
  O  O174  1  0.26036222  0.00267382  0.37462596  1
  O  O175  1  0.23845912  0.01658832  0.86273949  1
  O  O176  1  0.25725054  0.50307028  0.36479925  1
  O  O177  1  0.26752184  0.50203695  0.86710373  1
  O  O178  1  0.75886476  0.01099110  0.37681199  1
  O  O179  1  0.76588762  -0.00721078  0.87289029  1
  O  O180  1  0.75564865  0.49811924  0.35789832  1
  O  O181  1  0.75077611  0.51032281  0.85391814  1
  O  O182  1  0.23434575  0.51206682  0.14031697  1
  O  O183  1  0.23515506  0.49893166  0.61571336  1
  O  O184  1  0.24903610  1.00000291  0.14242266  1
  O  O185  1  0.23639506  1.00345492  0.63853617  1
  O  O186  1  0.75095540  0.50958832  0.14158886  1
  O  O187  1  0.74587183  0.48616807  0.63029632  1
  O  O188  1  0.73603854  0.98958641  0.12382794  1
  O  O189  1  0.75701103  0.98048295  0.62621731  1
  O  O190  1  0.00622392  0.38484833  0.26129893  1
  O  O191  1  0.00765109  0.36289827  0.75539716  1
  O  O192  1  0.01066118  0.87945046  0.24994474  1
  O  O193  1  0.00897196  0.86396579  0.75348600  1
  O  O194  1  0.52064866  0.39395580  0.25630166  1
  O  O195  1  0.50801242  0.36921862  0.75235511  1
  O  O196  1  0.50260430  0.86728616  0.25212712  1
  O  O197  1  0.49267601  0.86537034  0.76515572  1
  O  O198  1  0.49020858  0.11842376  0.25899154  1
  O  O199  1  0.49253853  0.13208097  0.74913316  1
  O  O200  1  0.49272201  0.62796083  0.24000799  1
  O  O201  1  0.48725848  0.64199507  0.75646238  1
  O  O202  1  0.98441679  0.12365630  0.24561625  1
  O  O203  1  0.99349782  0.13278111  0.75941495  1
  O  O204  1  0.98611032  0.62531883  0.23948611  1
  O  O205  1  1.00284832  0.63479684  0.73994126  1
  O  O206  1  0.36338314  0.26008930  -0.00251380  1
  O  O207  1  0.36702965  0.25845140  0.49464479  1
  O  O208  1  0.37184290  0.75667911  -0.00076920  1
  O  O209  1  0.36824710  0.75011345  0.51451498  1
  O  O210  1  0.87542973  0.26716669  -0.00303488  1
  O  O211  1  0.88343543  0.25659105  0.51014329  1
  O  O212  1  0.84201939  0.73421702  0.01308032  1
  O  O213  1  0.87042073  0.75397056  0.50518899  1
  O  O214  1  0.12854525  0.24257086  0.49367726  1
  O  O215  1  0.12764459  0.26643257  0.99158842  1
  O  O216  1  0.13026497  0.75169838  0.48719256  1
  O  O217  1  0.14610134  0.74049397  1.00987770  1
  O  O218  1  0.62509530  0.24138058  0.49067822  1
  O  O219  1  0.67002888  0.25114147  1.03639924  1
  O  O220  1  0.63189807  0.73053595  0.50554414  1
  O  O221  1  0.64466127  0.74207606  1.01736620  1
  O  O222  1  0.50921087  0.22483585  0.10204664  1
  O  O223  1  0.49797673  0.24273301  0.63718966  1
  O  O224  1  0.50191621  0.73683340  0.13347798  1
  O  O225  1  0.48089857  0.75898667  0.63706843  1
  O  O226  1  1.00556279  0.23806309  0.13127029  1
  O  O227  1  0.99090120  0.25320575  0.63600096  1
  O  O228  1  1.00321939  0.73835077  0.12905628  1
  O  O229  1  0.99706077  0.74144088  0.62670766  1
  O  O230  1  0.01158008  0.25804411  0.37974264  1
  O  O231  1  0.00764658  0.25633022  0.86904466  1
  O  O232  1  0.01287113  0.75039006  0.37602641  1
  O  O233  1  -0.01151704  0.75797038  0.86550356  1
  O  O234  1  0.51621274  0.25077939  0.37463147  1
  O  O235  1  0.49608889  0.26349592  0.86436575  1
  O  O236  1  0.49504133  0.76478090  0.36807411  1
  O  O237  1  0.49860051  0.75709586  0.86225181  1
  O  O238  1  0.24206306  0.12755781  0.49355181  1
  O  O239  1  0.25810309  0.11521028  0.98714787  1
  O  O240  1  0.24571174  0.64770668  0.50781653  1
  O  O241  1  0.25898607  0.61277587  0.97983037  1
  O  O242  1  0.74262491  0.12465825  0.49264613  1
  O  O243  1  0.75878593  0.11878029  0.98246925  1
  O  O244  1  0.73947849  0.62664847  0.50120527  1
  O  O245  1  0.74137649  0.61692355  0.98187340  1
  O  O246  1  0.24451734  0.41379083  0.00776712  1
  O  O247  1  0.25563909  0.36652949  0.49711763  1
  O  O248  1  0.26720960  0.87842960  -0.00177282  1
  O  O249  1  0.24520185  0.85539305  0.50663936  1
  O  O250  1  0.76830199  0.38810354  -0.00777817  1
  O  O251  1  0.76174511  0.37977991  0.50878383  1
  O  O252  1  0.74659201  0.87032033  0.01300984  1
  O  O253  1  0.75977806  0.86569677  0.50695447  1
  O  O254  1  0.12743227  0.49622477  0.24675989  1
  O  O255  1  0.11706031  0.48455839  0.73725067  1
  O  O256  1  0.13415316  0.98948182  0.26092640  1
  O  O257  1  0.12712016  0.99332239  0.74389729  1
  O  O258  1  0.63754569  0.49121910  0.25451742  1
  O  O259  1  0.62605692  0.48889934  0.73759571  1
  O  O260  1  0.62105592  0.99206273  0.24038986  1
  O  O261  1  0.62761466  0.99963380  0.73826608  1
  O  O262  1  0.36827572  0.00725959  0.26079621  1
  O  O263  1  0.36259566  0.01187995  0.74729617  1
  O  O264  1  0.36893729  0.51314014  0.25534248  1
  O  O265  1  0.39055375  0.51422674  0.75616094  1
  O  O266  1  0.87150751  0.00775056  0.26329755  1
  O  O267  1  0.87924105  0.00588109  0.75471853  1
  O  O268  1  0.86500947  0.51027219  0.25250884  1
  O  O269  1  0.86936786  0.49222230  0.74074327  1
  O  O270  1  0.11636458  0.36873856  0.36802793  1
  O  O271  1  0.11554582  0.36893441  0.86525946  1
  O  O272  1  0.12748485  0.86866056  0.36516677  1
  O  O273  1  0.10949235  0.87691618  0.86348963  1
  O  O274  1  0.62642998  0.36292073  0.38420336  1
  O  O275  1  0.61724696  0.38362044  0.86084812  1
  O  O276  1  0.61063423  0.88854152  0.36567045  1
  O  O277  1  0.61185071  0.87197152  0.88246565  1
  O  O278  1  0.37227679  0.12576305  0.14652558  1
  O  O279  1  0.38098306  0.12993805  0.63448782  1
  O  O280  1  0.38298864  0.62238473  0.13561598  1
  O  O281  1  0.37532509  0.62195197  0.63660804  1
  O  O282  1  0.87554373  0.12238938  0.14043588  1
  O  O283  1  0.86781103  0.13243422  0.63363348  1
  O  O284  1  0.88364177  0.62350926  0.13593157  1
  O  O285  1  0.88732671  0.63362256  0.61685572  1
  O  O286  1  0.26226984  0.25351946  0.13465600  1
  O  O287  1  0.24949092  0.24863752  0.60949372  1
  O  O288  1  0.26007016  0.74848145  0.14013118  1
  O  O289  1  0.26211085  0.75167499  0.62412833  1
  O  O290  1  0.72063186  0.24664663  0.09058770  1
  O  O291  1  0.76090379  0.25947968  0.63517567  1
  O  O292  1  0.74671060  0.77016995  0.13066601  1
  O  O293  1  0.75943163  0.75397080  0.61627336  1
  O  O294  1  0.23779549  0.23726721  0.38718882  1
  O  O295  1  0.23985657  0.23822513  0.87484046  1
  O  O296  1  0.24264137  0.75006316  0.38502717  1
  O  O297  1  0.25666981  0.73360177  0.87328417  1
  O  O298  1  0.73749300  0.24026179  0.37262084  1
  O  O299  1  0.75129509  0.23745135  0.87196343  1
  O  O300  1  0.75058561  0.75462425  0.38961754  1
  O  O301  1  0.74257347  0.75382637  0.88766401  1
  O  O302  1  -0.00845082  0.12930417  0.01809050  1
  O  O303  1  0.01071050  0.11549766  0.49626881  1
  O  O304  1  -0.00898586  0.62535213  0.00810051  1
  O  O305  1  -0.00295254  0.61109681  0.50778300  1
  O  O306  1  0.49593659  0.11006096  -0.01856201  1
  O  O307  1  0.50736464  0.13246359  0.51165893  1
  O  O308  1  0.50071715  0.62257706  0.00818619  1
  O  O309  1  0.51515177  0.61647572  0.49676207  1
  O  O310  1  0.49097532  0.38234547  0.49643238  1
  O  O311  1  0.50831207  0.39278007  0.98562874  1
  O  O312  1  0.51010529  0.86635614  0.48959877  1
  O  O313  1  0.49417336  0.87061070  0.99138483  1
  O  O314  1  0.99198503  0.37930153  0.49165290  1
  O  O315  1  0.98859379  0.38545095  0.99168731  1
  O  O316  1  0.98854756  0.88190363  0.50405512  1
  O  O317  1  1.00592518  0.86061915  0.98649580  1
  O  O318  1  0.49200190  0.49779610  0.38601495  1
  O  O319  1  0.49882784  0.50022437  0.87820169  1
  O  O320  1  0.48805118  0.98918644  0.38024263  1
  O  O321  1  0.50514693  0.98498006  0.88538459  1
  O  O322  1  0.99688308  0.48940336  0.38281772  1
  O  O323  1  1.00705155  0.49163674  0.88274009  1
  O  O324  1  0.98790940  1.00444878  0.38754545  1
  O  O325  1  0.99188415  0.98661841  0.87811800  1
  O  O326  1  0.00343454  0.01401947  0.12156317  1
  O  O327  1  0.00864401  -0.00266551  0.61331353  1
  O  O328  1  0.00246773  0.51186882  0.11591352  1
  O  O329  1  0.00689760  0.50354910  0.61741899  1
  O  O330  1  0.50874270  -0.00074676  0.11316962  1
  O  O331  1  0.49635162  0.01545690  0.63121421  1
  O  O332  1  0.49605862  0.51282398  0.10676515  1
  O  O333  1  0.51114884  0.49138736  0.61039370  1
  O  O334  1  0.23324687  0.39066952  0.25435471  1
  O  O335  1  0.23686844  0.36279986  0.74906962  1
  O  O336  1  0.24871869  0.88505133  0.25719988  1
  O  O337  1  0.23922813  0.88539017  0.76608868  1
  O  O338  1  0.74131092  0.38559653  0.24371960  1
  O  O339  1  0.74485323  0.38325916  0.74238941  1
  O  O340  1  0.73798613  0.88016555  0.24412574  1
  O  O341  1  0.75815959  0.86652410  0.73420088  1
  O  O342  1  0.24917301  0.11384176  0.26641552  1
  O  O343  1  0.25523577  0.11985919  0.75378124  1
  O  O344  1  0.26238394  0.62079918  0.24924041  1
  O  O345  1  0.26635743  0.62578180  0.75698635  1
  O  O346  1  0.75851156  0.12421652  0.26024059  1
  O  O347  1  0.76337704  0.11909136  0.76114606  1
  O  O348  1  0.76063502  0.62257845  0.24824874  1
  O  O349  1  0.75956689  0.60643530  0.72985188  1
  O  O350  1  0.36959376  0.10916609  0.37507052  1
  O  O351  1  0.35927750  0.13320034  0.86385374  1
  O  O352  1  0.38379101  0.61784591  0.37070314  1
  O  O353  1  0.36990321  0.61682685  0.86317428  1
  O  O354  1  0.86881882  0.12131953  0.37010114  1
  O  O355  1  0.87281384  0.10970210  0.86840818  1
  O  O356  1  0.88320211  0.62249803  0.36142951  1
  O  O357  1  0.84739801  0.64459255  0.85896165  1
  O  O358  1  0.10912685  0.39104079  0.13641334  1
  O  O359  1  0.12576752  0.37886616  0.63112509  1
  O  O360  1  0.13414104  0.87667663  0.14756874  1
  O  O361  1  0.12099414  0.88460278  0.63606723  1
  O  O362  1  0.61862702  0.37784100  0.13207236  1
  O  O363  1  0.63385648  0.37933136  0.62743991  1
  O  O364  1  0.62685396  0.88427700  0.13580527  1
  O  O365  1  0.64353589  0.86998571  0.61431125  1
  O  O366  1  0.13325907  0.26035269  0.26115265  1
  O  O367  1  0.11650511  0.25374484  0.75392288  1
  O  O368  1  0.12166232  0.76227367  0.26386777  1
  O  O369  1  0.11665697  0.75738996  0.74116246  1
  O  O370  1  0.63074425  0.27118112  0.26072005  1
  O  O371  1  0.61696701  0.26166106  0.74400219  1
  O  O372  1  0.61225851  0.76050772  0.25028901  1
  O  O373  1  0.60598550  0.74949287  0.73111106  1
  O  O374  1  0.37241731  0.22699182  0.27330059  1
  O  O375  1  0.38364386  0.24350391  0.74847807  1
  O  O376  1  0.38525000  0.73655129  0.25755866  1
  O  O377  1  0.37704577  0.74406894  0.73772210  1
  O  O378  1  0.86969771  0.23940761  0.25361574  1
  O  O379  1  0.88401286  0.23983545  0.74453944  1
  O  O380  1  0.87396155  0.73931721  0.25544137  1
  O  O381  1  0.88811492  0.75700683  0.73461445  1
  O  O382  1  0.38017389  0.49961991  0.49559356  1
  O  O383  1  0.39239416  0.50516294  0.97659563  1
  O  O384  1  0.36879858  0.99859039  0.49255940  1
  O  O385  1  0.39217687  0.99113996  1.00387464  1
  O  O386  1  0.88497910  0.48646499  0.50120072  1
  O  O387  1  0.88461193  0.49775898  1.00294086  1
  O  O388  1  0.88118998  0.99373738  0.49560512  1
  O  O389  1  0.88035983  0.99845474  0.98774070  1
  O  O390  1  0.12107260  -0.00747151  0.00232195  1
  O  O391  1  0.12000580  0.00311814  0.50521066  1
  O  O392  1  0.10847899  0.51434044  0.00772934  1
  O  O393  1  0.11255165  0.48760892  0.50708491  1
  O  O394  1  0.61288645  -0.00231111  0.01176389  1
  O  O395  1  0.62837359  0.01326242  0.50738043  1
  O  O396  1  0.61375840  0.50703999  -0.01030158  1
  O  O397  1  0.62159400  0.50750641  0.50156690  1
  O  O398  1  0.38573030  0.35693256  0.14400574  1
  O  O399  1  0.37178614  0.37490351  0.61080066  1
  O  O400  1  0.37664178  0.87773274  0.10921161  1
  O  O401  1  0.36833445  0.87353845  0.63118131  1
  O  O402  1  0.87816371  0.37555398  0.11418983  1
  O  O403  1  0.87064441  0.36346247  0.61812438  1
  O  O404  1  0.85915571  0.88525606  0.13603116  1
  O  O405  1  0.86981693  0.86391044  0.61389611  1
  O  O406  1  0.12974191  0.12881835  0.38255776  1
  O  O407  1  0.13450549  0.13577663  0.87596319  1
  O  O408  1  0.12385651  0.63698970  0.36537290  1
  O  O409  1  0.14374052  0.61384642  0.86789370  1
  O  O410  1  0.63097691  0.13061528  0.38283231  1
  O  O411  1  0.64314989  0.11728836  0.87025130  1
  O  O412  1  0.62474025  0.62205924  0.38229792  1
  O  O413  1  0.65072029  0.63390024  0.84238759  1
