# generated using pymatgen
data_V79Zn79O256
_symmetry_space_group_name_H-M   'P 1'
_cell_length_a   16.93036834
_cell_length_b   16.89648208
_cell_length_c   16.90090114
_cell_angle_alpha   90.09899406
_cell_angle_beta   89.91081114
_cell_angle_gamma   89.84504493
_symmetry_Int_Tables_number   1
_chemical_formula_structural   V79Zn79O256
_chemical_formula_sum   'V79 Zn79 O256'
_cell_volume   4834.70293685
_cell_formula_units_Z   1
loop_
 _symmetry_equiv_pos_site_id
 _symmetry_equiv_pos_as_xyz
  1  'x, y, z'
loop_
 _atom_site_type_symbol
 _atom_site_label
 _atom_site_symmetry_multiplicity
 _atom_site_fract_x
 _atom_site_fract_y
 _atom_site_fract_z
 _atom_site_occupancy
  V  V0  1  0.87972089  -0.01177275  0.37552110  1
  V  V1  1  0.24574430  0.00116904  0.23610507  1
  V  V2  1  0.86675559  0.11452716  0.74873649  1
  V  V3  1  0.24032164  0.37692372  0.15282932  1
  V  V4  1  -0.00183052  0.11933927  0.62607657  1
  V  V5  1  0.50234824  0.26530729  0.25506383  1
  V  V6  1  0.37156442  0.49312592  0.36558614  1
  V  V7  1  0.50141213  0.87280693  0.37226800  1
  V  V8  1  -0.00069844  0.62856420  0.12541782  1
  V  V9  1  0.85703577  0.26581027  0.14169013  1
  V  V10  1  0.49634385  0.88328239  0.88288829  1
  V  V11  1  0.86488101  0.74495147  0.62794218  1
  V  V12  1  0.62505914  0.37533433  0.75049707  1
  V  V13  1  -0.00041495  0.75834112  0.25487087  1
  V  V14  1  0.50931917  0.12655147  0.11353578  1
  V  V15  1  0.60456811  0.12192694  0.50300024  1
  V  V16  1  -0.00459482  0.24918179  0.75343669  1
  V  V17  1  0.61970087  0.52202788  0.62333382  1
  V  V18  1  0.87354130  0.37435843  0.00526328  1
  V  V19  1  0.13702673  0.62847131  -0.00461987  1
  V  V20  1  0.00491020  0.50018388  0.00320942  1
  V  V21  1  0.36411055  0.50155210  0.87102346  1
  V  V22  1  0.74467822  0.11290286  0.87481495  1
  V  V23  1  0.87253922  0.51142049  0.87184578  1
  V  V24  1  0.85432878  0.87026083  0.50692126  1
  V  V25  1  0.01337863  0.62105208  0.61609560  1
  V  V26  1  0.86980148  0.75137339  0.11920244  1
  V  V27  1  0.75333077  0.51920688  0.75661707  1
  V  V28  1  0.63499855  0.48636329  0.13240750  1
  V  V29  1  0.24758825  0.74675095  0.49640697  1
  V  V30  1  0.00077626  0.37376416  0.87131682  1
  V  V31  1  0.62529332  0.00444262  0.10851072  1
  V  V32  1  0.00197640  0.24933807  0.25200777  1
  V  V33  1  0.12842753  -0.00697735  0.63236217  1
  V  V34  1  0.87242583  0.38225075  0.50106939  1
  V  V35  1  0.37275335  0.62404862  0.74714006  1
  V  V36  1  0.24342285  0.63346311  0.36739358  1
  V  V37  1  0.62283413  0.24740315  0.87944591  1
  V  V38  1  0.74855485  0.25227189  -0.00134206  1
  V  V39  1  0.87690323  0.12053836  0.25071299  1
  V  V40  1  -0.00356424  0.37468537  0.38090503  1
  V  V41  1  0.14064288  0.75119340  0.87300061  1
  V  V42  1  0.62053213  0.26647940  0.37420099  1
  V  V43  1  0.25221149  0.87667731  0.62810706  1
  V  V44  1  0.74361175  0.62022555  0.38462282  1
  V  V45  1  0.49342025  0.37578363  0.87624585  1
  V  V46  1  0.37612382  0.88091978  0.49765491  1
  V  V47  1  0.24415201  0.86091064  0.11994802  1
  V  V48  1  -0.00101977  0.74871505  0.75207453  1
  V  V49  1  0.13814408  0.12949875  0.00084874  1
  V  V50  1  0.38707735  0.62983797  0.24926855  1
  V  V51  1  0.62672402  0.87081738  0.24937594  1
  V  V52  1  0.38820162  0.74416946  0.11025725  1
  V  V53  1  0.36235119  0.37461103  -0.00337205  1
  V  V54  1  0.00016227  0.00584922  0.00537288  1
  V  V55  1  0.49868604  0.24125861  0.73561252  1
  V  V56  1  0.00271265  -0.01507314  0.49760296  1
  V  V57  1  0.38162373  0.12734244  0.24769231  1
  V  V58  1  0.62925575  0.74861784  0.40210570  1
  V  V59  1  0.63951520  0.87832713  0.75124899  1
  V  V60  1  0.25253341  0.12666507  0.37855216  1
  V  V61  1  0.87560278  0.87675998  -0.00419654  1
  V  V62  1  0.38125755  -0.00041527  0.37222855  1
  V  V63  1  0.12894725  0.12160923  0.50046908  1
  V  V64  1  0.87296947  0.24822760  0.62423970  1
  V  V65  1  0.37282679  0.25463680  0.12228849  1
  V  V66  1  0.87182598  0.50048354  0.36559668  1
  V  V67  1  0.38165441  0.74404303  0.62239640  1
  V  V68  1  0.50864677  0.74818464  0.75298397  1
  V  V69  1  0.25374888  -0.00085849  0.76640205  1
  V  V70  1  0.49671539  0.50446340  0.48333895  1
  V  V71  1  0.74653924  0.87248786  0.11794056  1
  V  V72  1  0.74902891  0.37645416  0.62922547  1
  V  V73  1  0.23570053  0.50428911  0.73137477  1
  V  V74  1  0.74741881  0.00087423  0.25147410  1
  V  V75  1  0.13779611  0.24664652  0.87467552  1
  V  V76  1  0.37815109  0.11892777  0.75454607  1
  V  V77  1  0.12178314  0.24678043  0.37452693  1
  V  V78  1  0.74586001  0.24628294  0.49913283  1
  Zn  Zn79  1  0.87029585  0.62385250  0.24875179  1
  Zn  Zn80  1  0.00152729  0.12997599  0.12432627  1
  Zn  Zn81  1  0.37156031  0.89392674  -0.01204406  1
  Zn  Zn82  1  0.62554274  0.00631420  0.62724282  1
  Zn  Zn83  1  0.15433334  0.52433738  0.16403277  1
  Zn  Zn84  1  0.11115150  0.76043493  0.38322372  1
  Zn  Zn85  1  0.15691679  0.34153802  0.69729415  1
  Zn  Zn86  1  0.50989588  0.74985065  0.23689137  1
  Zn  Zn87  1  0.31210378  0.30475271  0.57438078  1
  Zn  Zn88  1  0.16916588  0.45342843  0.33911964  1
  Zn  Zn89  1  0.11641129  0.88440566  0.25155599  1
  Zn  Zn90  1  0.50382306  0.50645771  0.00590808  1
  Zn  Zn91  1  0.74470092  0.12479974  0.37542393  1
  Zn  Zn92  1  0.00769846  0.88088766  0.86293953  1
  Zn  Zn93  1  0.87152019  -0.00767400  0.86832153  1
  Zn  Zn94  1  0.18917899  0.18798824  0.18647925  1
  Zn  Zn95  1  0.19153415  0.17130725  0.69194270  1
  Zn  Zn96  1  0.18535741  0.69159099  0.18828120  1
  Zn  Zn97  1  0.18794557  0.68841904  0.68778315  1
  Zn  Zn98  1  0.68477042  0.19334103  0.19051318  1
  Zn  Zn99  1  0.68479581  0.18508594  0.68649668  1
  Zn  Zn100  1  0.69200269  0.67406206  0.19362805  1
  Zn  Zn101  1  0.65199509  0.73441297  0.62004406  1
  Zn  Zn102  1  0.30139052  0.31974263  0.41521492  1
  Zn  Zn103  1  0.31709560  0.31951485  0.74087452  1
  Zn  Zn104  1  0.31515320  0.81244449  0.30344184  1
  Zn  Zn105  1  0.31768726  0.81404896  0.81065170  1
  Zn  Zn106  1  0.81078438  0.31202948  0.31460760  1
  Zn  Zn107  1  0.81259949  0.31345662  0.81652131  1
  Zn  Zn108  1  0.80892859  0.80631864  0.31242521  1
  Zn  Zn109  1  0.81162221  0.79298527  0.82029139  1
  Zn  Zn110  1  0.17169519  0.44074589  0.54459398  1
  Zn  Zn111  1  0.18497758  0.43699020  0.92835547  1
  Zn  Zn112  1  0.19048666  0.93570635  0.43225454  1
  Zn  Zn113  1  0.17930839  0.93458040  0.94658660  1
  Zn  Zn114  1  0.68699248  0.44345684  0.44421263  1
  Zn  Zn115  1  0.68782624  0.44309990  0.94206779  1
  Zn  Zn116  1  0.68641307  0.94117315  0.43869809  1
  Zn  Zn117  1  0.67911692  0.92182203  0.93273707  1
  Zn  Zn118  1  0.31825627  0.06613080  0.05207701  1
  Zn  Zn119  1  0.32195627  0.06733865  0.56677360  1
  Zn  Zn120  1  0.31783076  0.55654886  0.06549687  1
  Zn  Zn121  1  0.31497404  0.56136016  0.55434625  1
  Zn  Zn122  1  0.81163568  0.06765635  0.06164690  1
  Zn  Zn123  1  0.80647533  0.05772850  0.56584108  1
  Zn  Zn124  1  0.82365909  0.54355733  0.07996314  1
  Zn  Zn125  1  0.81059052  0.56895488  0.56810597  1
  Zn  Zn126  1  0.44204075  0.44583028  0.17892740  1
  Zn  Zn127  1  0.43970640  0.44110251  0.67973084  1
  Zn  Zn128  1  0.42318964  0.95195436  0.14869518  1
  Zn  Zn129  1  0.44373986  0.94349653  0.69565656  1
  Zn  Zn130  1  0.99628916  0.46852299  0.22537413  1
  Zn  Zn131  1  0.94222484  0.43997595  0.68464527  1
  Zn  Zn132  1  0.93587553  0.93728698  0.18165344  1
  Zn  Zn133  1  0.93644757  0.92978237  0.68441194  1
  Zn  Zn134  1  0.06164164  0.05950071  0.31321538  1
  Zn  Zn135  1  0.06073477  0.06280282  0.81777433  1
  Zn  Zn136  1  0.06354249  0.56429632  0.44062035  1
  Zn  Zn137  1  0.05625905  0.57143502  0.81220220  1
  Zn  Zn138  1  0.56363055  0.06976868  0.31589269  1
  Zn  Zn139  1  0.56348944  0.05734895  0.81335813  1
  Zn  Zn140  1  0.56692057  0.56160229  0.30563691  1
  Zn  Zn141  1  0.55710146  0.56526156  0.80944333  1
  Zn  Zn142  1  0.43714915  0.19717447  0.43954711  1
  Zn  Zn143  1  0.43102723  0.18859687  0.93314601  1
  Zn  Zn144  1  0.44262605  0.68498566  0.43910996  1
  Zn  Zn145  1  0.43219983  0.69046410  0.92464996  1
  Zn  Zn146  1  0.93495297  0.17936185  0.43975571  1
  Zn  Zn147  1  0.92853110  0.18673820  0.93752410  1
  Zn  Zn148  1  0.92880014  0.68826209  0.44119540  1
  Zn  Zn149  1  0.94193531  0.68905520  0.94006771  1
  Zn  Zn150  1  0.06089507  0.30974424  0.06440734  1
  Zn  Zn151  1  0.05931514  0.30575356  0.55894383  1
  Zn  Zn152  1  0.06222895  0.81335997  0.05949865  1
  Zn  Zn153  1  0.06396567  0.80738614  0.56858467  1
  Zn  Zn154  1  0.56191945  0.31999070  0.06188822  1
  Zn  Zn155  1  0.55859367  0.32332361  0.55894543  1
  Zn  Zn156  1  0.57882633  0.68178541  0.05352221  1
  Zn  Zn157  1  0.53901610  0.86408581  0.58531663  1
  O  O158  1  0.11993413  0.13988431  0.10581827  1
  O  O159  1  0.12108168  0.11311861  0.61846864  1
  O  O160  1  0.11835243  0.62622113  0.11415307  1
  O  O161  1  0.11400683  0.63155855  0.62089797  1
  O  O162  1  0.61618781  0.12202599  0.12644558  1
  O  O163  1  0.62559668  0.12822380  0.60698241  1
  O  O164  1  0.63897994  0.61557050  0.11802166  1
  O  O165  1  0.63407717  0.61995199  0.62696704  1
  O  O166  1  0.36449948  0.39493795  0.35580628  1
  O  O167  1  0.37995541  0.38112199  0.87831685  1
  O  O168  1  0.38082891  0.88030996  0.37616036  1
  O  O169  1  0.38569993  0.87233949  0.87688239  1
  O  O170  1  0.87309733  0.38082416  0.38232809  1
  O  O171  1  0.88489171  0.38105827  0.88293633  1
  O  O172  1  0.86716991  0.88073756  0.38740333  1
  O  O173  1  0.87218557  0.87088559  0.88665630  1
  O  O174  1  0.26250324  0.00737277  0.36201687  1
  O  O175  1  0.24237266  -0.01477473  0.86347315  1
  O  O176  1  0.26752481  0.52235137  0.36457987  1
  O  O177  1  0.26071919  0.50113622  0.86762117  1
  O  O178  1  0.75997284  -0.00015797  0.36590489  1
  O  O179  1  0.74651423  0.01088215  0.87915536  1
  O  O180  1  0.75336342  0.51122139  0.37757959  1
  O  O181  1  0.75717260  0.49639859  0.86470081  1
  O  O182  1  0.25173052  0.48258692  0.12550385  1
  O  O183  1  0.24358725  0.50390802  0.62638629  1
  O  O184  1  0.25285441  1.00043214  0.13500640  1
  O  O185  1  0.24433705  0.99335661  0.62819474  1
  O  O186  1  0.73873719  0.48998314  0.11677105  1
  O  O187  1  0.74286494  0.49831195  0.63800724  1
  O  O188  1  0.74488901  0.99726763  0.13323887  1
  O  O189  1  0.73634385  0.99215875  0.61631435  1
  O  O190  1  -0.01011226  0.35843723  0.26915703  1
  O  O191  1  -0.00906616  0.36222290  0.75819965  1
  O  O192  1  -0.00170028  0.86389632  0.24192115  1
  O  O193  1  0.00143683  0.85822551  0.74647264  1
  O  O194  1  0.49153703  0.36227600  0.24496983  1
  O  O195  1  0.50883805  0.36236720  0.75693597  1
  O  O196  1  0.51177122  0.87275234  0.26102716  1
  O  O197  1  0.50594722  0.86298830  0.75519996  1
  O  O198  1  0.49315462  0.13199199  0.24512465  1
  O  O199  1  0.49762090  0.13241509  0.74984811  1
  O  O200  1  0.49076139  0.63351790  0.25393967  1
  O  O201  1  0.48690389  0.63803580  0.74838396  1
  O  O202  1  0.99183441  0.12463283  0.24668024  1
  O  O203  1  0.98961034  0.13049180  0.74707685  1
  O  O204  1  0.99111775  0.63783952  0.23134370  1
  O  O205  1  1.00134657  0.64020376  0.73664554  1
  O  O206  1  0.37932303  0.25793915  0.01372863  1
  O  O207  1  0.35084479  0.24369192  0.48623362  1
  O  O208  1  0.37318313  0.73504916  0.01052559  1
  O  O209  1  0.37059853  0.75929686  0.50444957  1
  O  O210  1  0.86772473  0.25665699  0.01115613  1
  O  O211  1  0.86434012  0.25428133  0.50356209  1
  O  O212  1  0.88317124  0.76208648  0.00977393  1
  O  O213  1  0.87674170  0.76553655  0.50815853  1
  O  O214  1  0.11529809  0.22857431  0.49119492  1
  O  O215  1  0.11830410  0.24004702  0.98614298  1
  O  O216  1  0.14307254  0.75800229  0.49959036  1
  O  O217  1  0.12073661  0.73675855  0.99136016  1
  O  O218  1  0.62742109  0.24723022  0.49526083  1
  O  O219  1  0.63144130  0.25825833  0.98631537  1
  O  O220  1  0.62228154  0.75255247  0.50059380  1
  O  O221  1  0.65502919  0.75368997  0.98428658  1
  O  O222  1  0.49839036  0.24232447  0.13502739  1
  O  O223  1  0.50835197  0.25275674  0.63794836  1
  O  O224  1  0.49210453  0.73997066  0.11561569  1
  O  O225  1  0.48649687  0.76289588  0.63391957  1
  O  O226  1  0.98361650  0.25441460  0.13884054  1
  O  O227  1  0.99319008  0.23960400  0.63409217  1
  O  O228  1  0.99034537  0.74701520  0.12742976  1
  O  O229  1  0.99584270  0.74377583  0.63348911  1
  O  O230  1  0.00298194  0.24657159  0.37127684  1
  O  O231  1  -0.00697311  0.25599440  0.86768676  1
  O  O232  1  -0.00773703  0.74368924  0.35754942  1
  O  O233  1  -0.00169768  0.74958076  0.86039153  1
  O  O234  1  0.50404363  0.25240861  0.36231816  1
  O  O235  1  0.50875482  0.25592337  0.87015623  1
  O  O236  1  0.51705897  0.75521649  0.37423360  1
  O  O237  1  0.49251983  0.75872137  0.85611865  1
  O  O238  1  0.24028750  0.11079397  0.48959646  1
  O  O239  1  0.23738186  0.12203768  0.99953778  1
  O  O240  1  0.26247743  0.63789129  0.48294319  1
  O  O241  1  0.23450718  0.61630953  1.00646201  1
  O  O242  1  0.74889975  0.13956732  0.49785520  1
  O  O243  1  0.75784362  0.13338883  0.98039315  1
  O  O244  1  0.75442919  0.62794241  0.48545305  1
  O  O245  1  0.72083891  0.71553149  0.96024566  1
  O  O246  1  0.26163997  0.37786876  -0.00643085  1
  O  O247  1  0.24568879  0.36618816  0.50214026  1
  O  O248  1  0.25382527  0.88417653  0.01788763  1
  O  O249  1  0.26098597  0.86971408  0.50506215  1
  O  O250  1  0.76241545  0.36266640  -0.01268693  1
  O  O251  1  0.75377031  0.36599532  0.50806298  1
  O  O252  1  0.75883568  0.88368067  0.01005010  1
  O  O253  1  0.75565775  0.87474352  0.50286711  1
  O  O254  1  0.10203484  0.49726124  0.25638228  1
  O  O255  1  0.13905933  0.52013631  0.75163113  1
  O  O256  1  0.14201816  1.00413374  0.25081572  1
  O  O257  1  0.13780333  1.00849150  0.74119976  1
  O  O258  1  0.62840610  0.50417289  0.23495979  1
  O  O259  1  0.63699408  0.49739346  0.74854808  1
  O  O260  1  0.63682483  0.99323048  0.25707528  1
  O  O261  1  0.62686426  0.98216264  0.74736969  1
  O  O262  1  0.36884362  0.00966362  0.24965171  1
  O  O263  1  0.36486546  0.00503873  0.75200513  1
  O  O264  1  0.38536717  0.51814479  0.25544234  1
  O  O265  1  0.36562993  0.50763789  0.75079665  1
  O  O266  1  0.86838255  0.00131361  0.25450012  1
  O  O267  1  0.88005968  0.01007125  0.74789338  1
  O  O268  1  0.88560523  0.50077069  0.26249925  1
  O  O269  1  0.86081527  0.49287770  0.75676548  1
  O  O270  1  0.11087116  0.35196849  0.37802393  1
  O  O271  1  0.11000249  0.36087199  0.87956828  1
  O  O272  1  0.13542767  0.86934573  0.36278064  1
  O  O273  1  0.11929084  0.85457095  0.88964712  1
  O  O274  1  0.62787568  0.36623433  0.38283934  1
  O  O275  1  0.61746931  0.36885980  0.86597499  1
  O  O276  1  0.62165864  0.86544360  0.37334869  1
  O  O277  1  0.61163375  0.86839742  0.85993974  1
  O  O278  1  0.38556595  0.13491922  0.13068207  1
  O  O279  1  0.37021564  0.12507567  0.64867492  1
  O  O280  1  0.36591788  0.63448173  0.13813560  1
  O  O281  1  0.37178438  0.63619042  0.62759581  1
  O  O282  1  0.87050362  0.13763582  0.14007145  1
  O  O283  1  0.87772517  0.12759096  0.62968480  1
  O  O284  1  0.87885912  0.63465370  0.11982731  1
  O  O285  1  0.88807936  0.64200641  0.61235549  1
  O  O286  1  0.26487852  0.26290412  0.14081877  1
  O  O287  1  0.24050562  0.26583726  0.66128566  1
  O  O288  1  0.25729731  0.75826698  0.12651692  1
  O  O289  1  0.25846412  0.75861246  0.61807450  1
  O  O290  1  0.74862446  0.22949299  0.10195878  1
  O  O291  1  0.75287339  0.25566300  0.61838718  1
  O  O292  1  0.76001717  0.76223621  0.13192287  1
  O  O293  1  0.76722954  0.74033426  0.62920579  1
  O  O294  1  0.23549583  0.23266530  0.36351880  1
  O  O295  1  0.23278584  0.25496924  0.86383085  1
  O  O296  1  0.25875723  0.74540886  0.38056815  1
  O  O297  1  0.23948302  0.75196922  0.86915397  1
  O  O298  1  0.74057323  0.25121081  0.38313744  1
  O  O299  1  0.74179735  0.24304553  0.87961694  1
  O  O300  1  0.73395996  0.74923338  0.38181522  1
  O  O301  1  0.73567304  0.72043984  0.88200383  1
  O  O302  1  -0.00626839  0.11510758  0.00084279  1
  O  O303  1  0.00578075  0.10983445  0.50632290  1
  O  O304  1  0.00648058  0.61904557  0.00795195  1
  O  O305  1  0.00568715  0.63465432  0.50623259  1
  O  O306  1  0.49803173  0.13400531  0.01572272  1
  O  O307  1  0.50543533  0.12865251  0.49824413  1
  O  O308  1  0.52542878  0.62467472  -0.03676135  1
  O  O309  1  0.49608251  0.60639433  0.50411373  1
  O  O310  1  0.49464774  0.40508991  0.51673144  1
  O  O311  1  0.48669292  0.37125792  0.98732042  1
  O  O312  1  0.48729014  0.86977314  0.48232255  1
  O  O313  1  0.50317633  0.86547637  0.98046055  1
  O  O314  1  0.98135623  0.35860907  0.48876419  1
  O  O315  1  0.99627139  0.38205354  0.99166636  1
  O  O316  1  0.99993318  0.88332487  0.50464588  1
  O  O317  1  0.99224333  0.88882045  1.00186522  1
  O  O318  1  0.49507369  0.50149632  0.37764666  1
  O  O319  1  0.48837202  0.48487285  0.86453051  1
  O  O320  1  0.48805912  0.99186622  0.36493789  1
  O  O321  1  0.50123185  0.98492809  0.87171133  1
  O  O322  1  0.98507037  0.48426101  0.38409225  1
  O  O323  1  0.99415251  0.49274548  0.87768344  1
  O  O324  1  0.99004587  1.00022409  0.38332988  1
  O  O325  1  0.99376866  0.99600074  0.88459395  1
  O  O326  1  -0.00412942  0.00503124  0.11077269  1
  O  O327  1  0.01018765  -0.00043527  0.61980060  1
  O  O328  1  -0.00318616  0.51142271  0.11341076  1
  O  O329  1  -0.00723742  0.52267779  0.62788230  1
  O  O330  1  0.51598439  0.01865133  0.13806420  1
  O  O331  1  0.51619213  -0.02677995  0.61598434  1
  O  O332  1  0.51352150  0.50800310  0.12068630  1
  O  O333  1  0.52028817  0.51014700  0.64294059  1
  O  O334  1  0.23523341  0.38346047  0.25111216  1
  O  O335  1  0.23689632  0.40091408  0.75716902  1
  O  O336  1  0.25773001  0.88880076  0.23481895  1
  O  O337  1  0.25984250  0.88671250  0.73678224  1
  O  O338  1  0.79206583  0.31888763  0.20277143  1
  O  O339  1  0.73862021  0.37178080  0.74730143  1
  O  O340  1  0.74701077  0.88362812  0.24235226  1
  O  O341  1  0.73696790  0.86130155  0.76788055  1
  O  O342  1  0.25942897  0.11687192  0.25312136  1
  O  O343  1  0.26006560  0.10754215  0.75855196  1
  O  O344  1  0.26007015  0.63865153  0.26035956  1
  O  O345  1  0.26225663  0.61722124  0.74267518  1
  O  O346  1  0.75646279  0.11653502  0.25183748  1
  O  O347  1  0.75659773  0.13062434  0.76016766  1
  O  O348  1  0.76025432  0.63894831  0.27539670  1
  O  O349  1  0.75218905  0.61449890  0.75499308  1
  O  O350  1  0.37085802  0.11836847  0.36581735  1
  O  O351  1  0.38009739  0.12263755  0.85907691  1
  O  O352  1  0.37275804  0.62859942  0.36012883  1
  O  O353  1  0.37820547  0.61293989  0.86051149  1
  O  O354  1  0.87208389  0.10972947  0.36716410  1
  O  O355  1  0.86147516  0.12266912  0.86459097  1
  O  O356  1  0.86691296  0.61397682  0.37869506  1
  O  O357  1  0.88119380  0.61066256  0.88130355  1
  O  O358  1  0.14320006  0.36460650  0.12161066  1
  O  O359  1  0.09759687  0.39160186  0.61823815  1
  O  O360  1  0.13993784  0.86737271  0.12954180  1
  O  O361  1  0.13848402  0.88382673  0.62030943  1
  O  O362  1  0.62132149  0.38293840  0.13110943  1
  O  O363  1  0.63000534  0.38237720  0.63778148  1
  O  O364  1  0.63522530  0.88967868  0.13675772  1
  O  O365  1  0.63458667  0.84953585  0.64555683  1
  O  O366  1  0.10998416  0.23245301  0.26044442  1
  O  O367  1  0.10909181  0.24323180  0.76171338  1
  O  O368  1  0.10474253  0.74997025  0.24644741  1
  O  O369  1  0.11732138  0.74422585  0.76518478  1
  O  O370  1  0.61161003  0.24854555  0.25860423  1
  O  O371  1  0.61714458  0.25469962  0.75761695  1
  O  O372  1  0.62936629  0.76465098  0.24775213  1
  O  O373  1  0.60852154  0.74338930  0.74589324  1
  O  O374  1  0.38978994  0.24065903  0.24179590  1
  O  O375  1  0.39421889  0.23702505  0.75836418  1
  O  O376  1  0.38417833  0.74312469  0.23953526  1
  O  O377  1  0.37478550  0.74198308  0.73913127  1
  O  O378  1  0.88815476  0.23268527  0.26064624  1
  O  O379  1  0.87880502  0.24059156  0.74476415  1
  O  O380  1  0.88337466  0.75368325  0.23735352  1
  O  O381  1  0.88483534  0.75208102  0.73834602  1
  O  O382  1  0.38262767  0.50564471  0.47661821  1
  O  O383  1  0.38156302  0.49441379  0.98925114  1
  O  O384  1  0.36750060  0.99088792  0.48661145  1
  O  O385  1  0.39423068  0.98950722  1.04110018  1
  O  O386  1  0.86348668  0.48547724  0.49753608  1
  O  O387  1  0.88462677  0.49399194  0.99179783  1
  O  O388  1  0.88120386  0.98698989  0.49581326  1
  O  O389  1  0.88232931  0.99436986  0.99792648  1
  O  O390  1  0.11012790  0.01687048  -0.00710282  1
  O  O391  1  0.12035888  0.00342470  0.50605553  1
  O  O392  1  0.11291020  0.51077770  -0.01072801  1
  O  O393  1  0.14172361  0.48964892  0.44926224  1
  O  O394  1  0.63033232  -0.00311136  0.01031673  1
  O  O395  1  0.62320414  0.02111919  0.48786058  1
  O  O396  1  0.61799666  0.49024701  0.01203473  1
  O  O397  1  0.61646873  0.50128102  0.51644980  1
  O  O398  1  0.36476788  0.37249514  0.11948348  1
  O  O399  1  0.37252995  0.36289300  0.64919887  1
  O  O400  1  0.36956683  0.85224117  0.12365701  1
  O  O401  1  0.36821130  0.87108397  0.61459078  1
  O  O402  1  0.88690430  0.37559122  0.10601050  1
  O  O403  1  0.87036021  0.36939736  0.61888965  1
  O  O404  1  0.86513455  0.87140079  0.11593265  1
  O  O405  1  0.87356050  0.86495529  0.61347892  1
  O  O406  1  0.13190845  0.12351448  0.38256791  1
  O  O407  1  0.12050009  0.13727712  0.88459680  1
  O  O408  1  0.14189088  0.63944902  0.37251633  1
  O  O409  1  0.12078999  0.63590422  0.88757851  1
  O  O410  1  0.62526911  0.14054697  0.38616638  1
  O  O411  1  0.63679734  0.13277587  0.86632525  1
  O  O412  1  0.63289299  0.63788169  0.37574942  1
  O  O413  1  0.58890422  0.62256860  0.90563290  1
