# generated using pymatgen
data_V79Zn79O256
_symmetry_space_group_name_H-M   'P 1'
_cell_length_a   16.92907211
_cell_length_b   16.94389603
_cell_length_c   16.98751256
_cell_angle_alpha   90.00357099
_cell_angle_beta   89.98378367
_cell_angle_gamma   90.03679791
_symmetry_Int_Tables_number   1
_chemical_formula_structural   V79Zn79O256
_chemical_formula_sum   'V79 Zn79 O256'
_cell_volume   4872.77227914
_cell_formula_units_Z   1
loop_
 _symmetry_equiv_pos_site_id
 _symmetry_equiv_pos_as_xyz
  1  'x, y, z'
loop_
 _atom_site_type_symbol
 _atom_site_label
 _atom_site_symmetry_multiplicity
 _atom_site_fract_x
 _atom_site_fract_y
 _atom_site_fract_z
 _atom_site_occupancy
  V  V0  1  0.00072770  0.50323935  -0.00391884  1
  V  V1  1  0.03590436  0.82623804  0.30481344  1
  V  V2  1  0.76531689  0.61981139  0.37408137  1
  V  V3  1  0.49306321  0.37366186  0.88602148  1
  V  V4  1  0.62618824  0.25811460  0.36866224  1
  V  V5  1  0.25302789  0.12846711  0.37761334  1
  V  V6  1  0.25055210  0.00018426  0.24146803  1
  V  V7  1  0.74937618  0.87017558  0.12693032  1
  V  V8  1  0.88445328  0.00456097  0.38700958  1
  V  V9  1  0.75066903  0.13231773  0.37683668  1
  V  V10  1  0.62520234  0.49566919  0.13433995  1
  V  V11  1  0.61823517  0.00426553  0.62812011  1
  V  V12  1  0.88026523  0.88385530  0.50742604  1
  V  V13  1  0.87254004  0.86937273  -0.00138289  1
  V  V14  1  0.62892814  0.75424716  0.37473635  1
  V  V15  1  0.62880339  0.49280351  0.63398651  1
  V  V16  1  0.61277953  0.61883210  0.00184567  1
  V  V17  1  0.00395418  0.24124057  0.24126128  1
  V  V18  1  0.12841360  0.24294214  0.38190628  1
  V  V19  1  0.37761468  -0.00095682  0.37818954  1
  V  V20  1  0.87613085  -0.00600782  0.87398492  1
  V  V21  1  0.49712988  0.38220610  0.37494756  1
  V  V22  1  0.74919981  -0.00125416  0.25522525  1
  V  V23  1  0.37520987  0.25881922  0.11856016  1
  V  V24  1  0.74078879  -0.00803492  0.75134753  1
  V  V25  1  0.75355377  0.75162362  0.50455779  1
  V  V26  1  -0.02991409  0.62533718  0.13467969  1
  V  V27  1  0.12726637  0.51460994  0.12288265  1
  V  V28  1  0.36714671  0.62355105  0.25828665  1
  V  V29  1  0.38269352  0.75794241  0.62016922  1
  V  V30  1  0.74390366  0.74749680  0.00362384  1
  V  V31  1  0.49884808  0.25282310  0.73562925  1
  V  V32  1  0.36778944  0.87510713  0.00391117  1
  V  V33  1  0.25525283  0.88031521  0.60669047  1
  V  V34  1  0.26873048  0.49912862  0.73682313  1
  V  V35  1  0.75685390  0.25427701  0.51504664  1
  V  V36  1  0.49967956  0.00109323  0.00416556  1
  V  V37  1  0.12079655  0.10673552  0.00709394  1
  V  V38  1  0.50176587  0.75116151  0.25061015  1
  V  V39  1  0.87904859  0.12244376  0.24774817  1
  V  V40  1  0.87705749  0.38236618  0.50741132  1
  V  V41  1  0.50096885  0.87460363  0.86346299  1
  V  V42  1  0.62089341  0.12506189  0.00197890  1
  V  V43  1  0.37931932  0.12891018  0.73506952  1
  V  V44  1  0.08143267  0.42764085  0.70884924  1
  V  V45  1  0.11257159  -0.00549986  0.61907826  1
  V  V46  1  0.87597932  0.24248940  0.12159546  1
  V  V47  1  0.12514162  0.24707216  0.86737470  1
  V  V48  1  0.88251726  0.13096399  0.74841893  1
  V  V49  1  0.36524716  0.75060839  0.12650280  1
  V  V50  1  -0.00151607  0.37775738  0.37648883  1
  V  V51  1  0.12950597  0.36870033  0.23530672  1
  V  V52  1  0.61616884  0.61864122  0.49791077  1
  V  V53  1  0.49942525  0.61813963  0.12504136  1
  V  V54  1  0.50086701  0.24796660  0.24479316  1
  V  V55  1  0.25248589  0.73293534  0.48511972  1
  V  V56  1  0.24649089  0.49945458  0.25590613  1
  V  V57  1  0.00269409  0.85725223  0.86992729  1
  V  V58  1  -0.00219771  0.14386544  0.62374424  1
  V  V59  1  0.74830429  0.12392938  0.87408938  1
  V  V60  1  0.74507599  0.37122821  0.13187036  1
  V  V61  1  0.37272718  0.36344356  0.50755802  1
  V  V62  1  0.90107939  0.64089392  0.70769267  1
  V  V63  1  0.49747561  -0.00361716  0.50189997  1
  V  V64  1  0.25120278  0.12115759  0.87799227  1
  V  V65  1  0.24958169  0.35717162  0.62810826  1
  V  V66  1  0.61880626  0.12880580  0.50424581  1
  V  V67  1  0.62110269  0.25442952  0.87075113  1
  V  V68  1  0.49409411  0.62080144  0.63419236  1
  V  V69  1  0.75086608  0.61769142  0.87284217  1
  V  V70  1  0.61145333  0.75084896  0.86543966  1
  V  V71  1  0.24660243  -0.00452085  0.74638178  1
  V  V72  1  0.37478143  -0.00201087  0.87457516  1
  V  V73  1  0.25084839  0.26882182  0.00227813  1
  V  V74  1  0.37693280  0.49760553  0.89022122  1
  V  V75  1  0.01077731  0.36886034  0.87860105  1
  V  V76  1  0.62175828  0.00345355  0.12770512  1
  V  V77  1  0.87531980  0.37278463  -0.00449796  1
  V  V78  1  0.74252885  0.87196206  0.62830942  1
  Zn  Zn79  1  0.62544477  0.87672288  0.25157763  1
  Zn  Zn80  1  0.13834491  0.59656742  0.46524390  1
  Zn  Zn81  1  0.20751810  0.69871631  0.94578222  1
  Zn  Zn82  1  0.24826114  0.87461348  0.13193936  1
  Zn  Zn83  1  -0.00979729  0.00287746  0.01419556  1
  Zn  Zn84  1  0.37243520  0.50368812  0.38327828  1
  Zn  Zn85  1  0.09654261  0.84286853  0.72305182  1
  Zn  Zn86  1  0.08510106  -0.03788272  0.15798690  1
  Zn  Zn87  1  0.34330150  0.65129688  0.78765713  1
  Zn  Zn88  1  0.74830531  0.25059909  -0.00308960  1
  Zn  Zn89  1  0.11608343  0.12062107  0.49666930  1
  Zn  Zn90  1  0.77695511  0.51948353  0.23912025  1
  Zn  Zn91  1  0.49774260  0.87454160  0.37928022  1
  Zn  Zn92  1  0.38198661  0.12303373  0.23655773  1
  Zn  Zn93  1  0.75381774  0.50061243  0.75286447  1
  Zn  Zn94  1  0.19532593  0.18131988  0.18463079  1
  Zn  Zn95  1  0.18439478  0.17886058  0.68699080  1
  Zn  Zn96  1  0.17832142  0.69789027  0.30154771  1
  Zn  Zn97  1  0.19333722  0.68536854  0.66790690  1
  Zn  Zn98  1  0.69073803  0.18898818  0.18873847  1
  Zn  Zn99  1  0.68663205  0.18565773  0.69112500  1
  Zn  Zn100  1  0.68950738  0.68336166  0.19052843  1
  Zn  Zn101  1  0.68357761  0.68496530  0.68776082  1
  Zn  Zn102  1  0.31445183  0.31340418  0.30657528  1
  Zn  Zn103  1  0.31313870  0.31195796  0.81338718  1
  Zn  Zn104  1  0.31636520  0.81943621  0.31302329  1
  Zn  Zn105  1  0.26155451  0.79554492  0.79695805  1
  Zn  Zn106  1  0.83132077  0.34635501  0.29552804  1
  Zn  Zn107  1  0.81136401  0.31431480  0.81194476  1
  Zn  Zn108  1  0.82845134  0.81465731  0.31666856  1
  Zn  Zn109  1  0.80827358  0.80093336  0.81169628  1
  Zn  Zn110  1  0.19458204  0.41898900  0.43529021  1
  Zn  Zn111  1  0.18720090  0.53611895  0.92599863  1
  Zn  Zn112  1  0.18309000  0.94349175  0.42690192  1
  Zn  Zn113  1  0.14496321  0.88188481  0.98903755  1
  Zn  Zn114  1  0.69089967  0.43788661  0.43985704  1
  Zn  Zn115  1  0.68210048  0.43528166  0.94411793  1
  Zn  Zn116  1  0.68897192  0.94069098  0.44191448  1
  Zn  Zn117  1  0.68402112  0.93417844  0.93723874  1
  Zn  Zn118  1  0.31810996  0.07234683  0.06161039  1
  Zn  Zn119  1  0.30895764  0.06661278  0.55673424  1
  Zn  Zn120  1  0.31384497  0.56044533  0.07087732  1
  Zn  Zn121  1  0.31689117  0.55183250  0.55853549  1
  Zn  Zn122  1  0.80847317  0.05744300  0.06346951  1
  Zn  Zn123  1  0.80804952  0.06635877  0.56869539  1
  Zn  Zn124  1  0.80558122  0.55426058  0.05003026  1
  Zn  Zn125  1  0.81320898  0.56415930  0.56170053  1
  Zn  Zn126  1  0.43588363  0.43402686  0.19090357  1
  Zn  Zn127  1  0.44438811  0.43296847  0.68317957  1
  Zn  Zn128  1  0.43649246  0.93749308  0.19124747  1
  Zn  Zn129  1  0.43452147  0.93945781  0.68467039  1
  Zn  Zn130  1  0.94067983  0.43489709  0.18264522  1
  Zn  Zn131  1  0.90216607  0.43346022  0.70394731  1
  Zn  Zn132  1  0.92966379  0.91988222  0.19771029  1
  Zn  Zn133  1  0.92845576  0.93469357  0.69131516  1
  Zn  Zn134  1  0.06098861  0.04506328  0.30979623  1
  Zn  Zn135  1  0.06440212  0.05678712  0.81488870  1
  Zn  Zn136  1  0.05012479  0.56185901  0.30324015  1
  Zn  Zn137  1  0.07551148  0.67535647  0.80831921  1
  Zn  Zn138  1  0.56229779  0.06753647  0.31600231  1
  Zn  Zn139  1  0.55779955  0.06568953  0.81320085  1
  Zn  Zn140  1  0.56817322  0.56448141  0.30958825  1
  Zn  Zn141  1  0.55636671  0.56151122  0.81173030  1
  Zn  Zn142  1  0.43867906  0.18842370  0.43384026  1
  Zn  Zn143  1  0.43569583  0.18918747  0.93750308  1
  Zn  Zn144  1  0.43662783  0.69144409  0.43841712  1
  Zn  Zn145  1  0.40927967  0.69737910  0.92958748  1
  Zn  Zn146  1  0.93939129  0.19398775  0.43740969  1
  Zn  Zn147  1  0.94012940  0.18521930  0.93560451  1
  Zn  Zn148  1  0.93927130  0.69309253  0.44767969  1
  Zn  Zn149  1  0.93462585  0.68614027  0.94282039  1
  Zn  Zn150  1  0.06662858  0.30505156  0.05680458  1
  Zn  Zn151  1  0.04844451  0.45165919  0.54641905  1
  Zn  Zn152  1  0.10116181  0.76296991  0.11019821  1
  Zn  Zn153  1  0.06849370  0.81883344  0.47242271  1
  Zn  Zn154  1  0.56125393  0.31193349  0.06261828  1
  Zn  Zn155  1  0.56307298  0.31571294  0.55403978  1
  Zn  Zn156  1  0.55763271  0.81176609  0.06049660  1
  Zn  Zn157  1  0.56615910  0.81395042  0.56348901  1
  O  O158  1  0.13351561  0.12309434  0.10509218  1
  O  O159  1  0.11081295  0.11442848  0.62712106  1
  O  O160  1  0.11054071  0.61144437  0.13038482  1
  O  O161  1  0.11566877  0.62438808  0.60128644  1
  O  O162  1  0.63535747  0.11432736  0.11339156  1
  O  O163  1  0.63240353  0.11551860  0.61504513  1
  O  O164  1  0.61878024  0.61812393  0.12088672  1
  O  O165  1  0.61233541  0.62688010  0.61271508  1
  O  O166  1  0.38520984  0.37505257  0.37710884  1
  O  O167  1  0.38631972  0.37980804  0.87351701  1
  O  O168  1  0.37784301  0.89392079  0.37597178  1
  O  O169  1  0.38350810  0.88978694  0.88478958  1
  O  O170  1  0.89510098  0.34977336  0.38727042  1
  O  O171  1  0.88957992  0.35723540  0.89121881  1
  O  O172  1  0.86485552  0.89252914  0.39812829  1
  O  O173  1  0.87104908  0.87693054  0.87787252  1
  O  O174  1  0.25747420  0.00886930  0.36490484  1
  O  O175  1  0.26104680  0.00659851  0.86194820  1
  O  O176  1  0.24936054  0.49061547  0.35908436  1
  O  O177  1  0.27328348  0.49348369  0.85773906  1
  O  O178  1  0.75110524  0.01566667  0.37531292  1
  O  O179  1  0.75084473  0.00421038  0.86903014  1
  O  O180  1  0.74383109  0.51921339  0.37688096  1
  O  O181  1  0.73514014  0.51447234  0.87978725  1
  O  O182  1  0.23376312  0.50490611  0.13707353  1
  O  O183  1  0.25737210  0.48317213  0.63319939  1
  O  O184  1  0.26893307  1.00314636  0.14014207  1
  O  O185  1  0.24639442  0.99835257  0.62923607  1
  O  O186  1  0.74415399  0.48872780  0.12464896  1
  O  O187  1  0.73068759  0.51656603  0.62716373  1
  O  O188  1  0.74032976  0.99141894  0.13279311  1
  O  O189  1  0.73869222  0.99533383  0.63426324  1
  O  O190  1  0.00842181  0.35798490  0.25707251  1
  O  O191  1  0.00148672  0.38358771  0.77082151  1
  O  O192  1  0.03184355  0.92636613  0.26401210  1
  O  O193  1  -0.00762096  0.87010160  0.76210676  1
  O  O194  1  0.49606557  0.36143529  0.26379983  1
  O  O195  1  0.49437612  0.35532577  0.75659556  1
  O  O196  1  0.50342338  0.86279780  0.25327539  1
  O  O197  1  0.49416993  0.88295661  0.76478955  1
  O  O198  1  0.49771854  0.14171145  0.25798041  1
  O  O199  1  0.48565176  0.13151760  0.75246559  1
  O  O200  1  0.49605583  0.63402271  0.24368950  1
  O  O201  1  0.49965960  0.62947667  0.73321805  1
  O  O202  1  0.98722483  0.12835317  0.25466436  1
  O  O203  1  0.98707475  0.11555380  0.74713895  1
  O  O204  1  0.97639725  0.60974173  0.23392061  1
  O  O205  1  1.00026692  0.64973633  0.73010824  1
  O  O206  1  0.36330977  0.24867661  0.00545382  1
  O  O207  1  0.37602802  0.26300877  0.49094072  1
  O  O208  1  0.38615106  0.76423302  0.01713216  1
  O  O209  1  0.36387943  0.74938086  0.50427356  1
  O  O210  1  0.87444348  0.24850372  0.00851853  1
  O  O211  1  0.85909171  0.24725212  0.50267368  1
  O  O212  1  0.85455324  0.75824228  -0.00814579  1
  O  O213  1  0.85986652  0.76911186  0.49649785  1
  O  O214  1  0.12491073  0.24563903  0.47919054  1
  O  O215  1  0.13913732  0.23897050  0.99236565  1
  O  O216  1  0.15337737  0.75227150  0.50205500  1
  O  O217  1  0.13969839  0.76667966  1.00136781  1
  O  O218  1  0.63452794  0.24549186  0.49191203  1
  O  O219  1  0.62370793  0.23836036  0.99095800  1
  O  O220  1  0.63239178  0.74452178  0.49131644  1
  O  O221  1  0.62698722  0.74040284  0.99700308  1
  O  O222  1  0.49166893  0.25506435  0.13235850  1
  O  O223  1  0.50918656  0.25296335  0.63732324  1
  O  O224  1  0.49757497  0.74281768  0.13730806  1
  O  O225  1  0.48907215  0.74374454  0.61316833  1
  O  O226  1  0.98993773  0.25005732  0.13161133  1
  O  O227  1  1.00285988  0.23695222  0.63973245  1
  O  O228  1  0.99431532  0.72177867  0.11625454  1
  O  O229  1  1.04639357  0.66127180  0.58245713  1
  O  O230  1  0.01398814  0.24617613  0.36154139  1
  O  O231  1  0.01077896  0.25827827  0.88203758  1
  O  O232  1  0.00290312  0.76581158  0.38680191  1
  O  O233  1  -0.00247150  0.75426481  0.87474521  1
  O  O234  1  0.50952179  0.25789659  0.36825091  1
  O  O235  1  0.50335810  0.25620074  0.86968857  1
  O  O236  1  0.50989005  0.75211397  0.36823808  1
  O  O237  1  0.50480000  0.75887576  0.88172378  1
  O  O238  1  0.24140426  0.12016998  0.48219611  1
  O  O239  1  0.24069655  0.11764533  0.98660615  1
  O  O240  1  0.25285671  0.63035924  0.49684959  1
  O  O241  1  0.25311898  0.60576289  0.99214996  1
  O  O242  1  0.74318285  0.13558104  0.49587976  1
  O  O243  1  0.74118740  0.12172737  0.98701129  1
  O  O244  1  0.73982020  0.63622119  0.49216263  1
  O  O245  1  0.73380027  0.63045019  0.99355151  1
  O  O246  1  0.24558162  0.36334362  -0.00413573  1
  O  O247  1  0.25938611  0.36540769  0.51615681  1
  O  O248  1  0.26827041  0.88646809  0.00046625  1
  O  O249  1  0.25100717  0.88580524  0.50600392  1
  O  O250  1  0.75932343  0.37105738  0.00403802  1
  O  O251  1  0.76213239  0.36127731  0.49158495  1
  O  O252  1  0.74982819  0.86683780  0.00545519  1
  O  O253  1  0.74943918  0.86948306  0.51084339  1
  O  O254  1  0.12605227  0.48927056  0.23779686  1
  O  O255  1  0.14715792  0.48570775  0.75604399  1
  O  O256  1  0.14833941  1.01984095  0.23880710  1
  O  O257  1  0.13754522  1.00488731  0.73942133  1
  O  O258  1  0.63774359  0.50864913  0.23567704  1
  O  O259  1  0.62393915  0.50011589  0.73743394  1
  O  O260  1  0.62894697  1.00226846  0.24347334  1
  O  O261  1  0.63196499  1.01082584  0.74324300  1
  O  O262  1  0.37392940  0.00613816  0.26043145  1
  O  O263  1  0.37159882  0.01154993  0.75538889  1
  O  O264  1  0.36284347  0.50723824  0.24698277  1
  O  O265  1  0.37259845  0.49778120  0.74759160  1
  O  O266  1  0.86711921  0.00694996  0.26627281  1
  O  O267  1  0.86019673  0.00521277  0.75867420  1
  O  O268  1  0.86301093  0.45327630  0.25914013  1
  O  O269  1  0.87096219  0.54414291  0.73488348  1
  O  O270  1  0.11777651  0.35690834  0.36393909  1
  O  O271  1  0.11281537  0.36326860  0.88144378  1
  O  O272  1  0.10673562  0.87542979  0.37895940  1
  O  O273  1  0.10066226  0.87870912  0.87679407  1
  O  O274  1  0.61458672  0.36623627  0.38534549  1
  O  O275  1  0.61665313  0.36086631  0.87934286  1
  O  O276  1  0.62848139  0.86452905  0.37400611  1
  O  O277  1  0.61523096  0.86030424  0.88239063  1
  O  O278  1  0.37770973  0.14576797  0.12207075  1
  O  O279  1  0.37016488  0.12358380  0.63734675  1
  O  O280  1  0.38295243  0.63067500  0.13668450  1
  O  O281  1  0.39093139  0.62975330  0.61117273  1
  O  O282  1  0.86252122  0.13061745  0.13640941  1
  O  O283  1  0.88445562  0.11733430  0.63980278  1
  O  O284  1  0.86968444  0.61877647  0.11835295  1
  O  O285  1  0.88461628  0.64014411  0.60563722  1
  O  O286  1  0.25871500  0.25059968  0.11094651  1
  O  O287  1  0.24673357  0.25784147  0.63404919  1
  O  O288  1  0.26618645  0.75122696  0.13633538  1
  O  O289  1  0.26267862  0.75977424  0.60495669  1
  O  O290  1  0.75681675  0.25214203  0.11743603  1
  O  O291  1  0.74181203  0.24969187  0.61337963  1
  O  O292  1  0.73637886  0.75832532  0.11530231  1
  O  O293  1  0.73417893  0.75978510  0.61591156  1
  O  O294  1  0.23666576  0.24215955  0.36134284  1
  O  O295  1  0.24928668  0.24113335  0.88515968  1
  O  O296  1  0.25600046  0.74948181  0.38006416  1
  O  O297  1  0.29950370  0.72713215  0.87413569  1
  O  O298  1  0.74252677  0.24070323  0.37946391  1
  O  O299  1  0.74020208  0.24022707  0.87192898  1
  O  O300  1  0.74689006  0.74484200  0.38068840  1
  O  O301  1  0.72974549  0.74148558  0.88506149  1
  O  O302  1  0.01584579  0.12011963  -0.00856134  1
  O  O303  1  -0.00269649  0.13479234  0.51841245  1
  O  O304  1  -0.01266331  0.60520902  0.00480149  1
  O  O305  1  0.02275547  0.63330354  0.50765940  1
  O  O306  1  0.51061779  0.11346236  -0.00850431  1
  O  O307  1  0.51382888  0.12077517  0.49490266  1
  O  O308  1  0.50323383  0.63318961  0.01831619  1
  O  O309  1  0.51396592  0.62804878  0.49924917  1
  O  O310  1  0.48913355  0.37073403  0.48434218  1
  O  O311  1  0.49875398  0.36853536  0.98477954  1
  O  O312  1  0.50915245  0.89176083  0.49743881  1
  O  O313  1  0.49390412  0.88767456  0.99407069  1
  O  O314  1  0.99303314  0.37197136  0.48573111  1
  O  O315  1  0.99494943  0.37562724  0.99695303  1
  O  O316  1  0.97799438  0.87112845  0.52022839  1
  O  O317  1  0.97879558  0.87606847  0.98215790  1
  O  O318  1  0.50435304  0.48390604  0.36322459  1
  O  O319  1  0.49616412  0.47860750  0.86723594  1
  O  O320  1  0.49552247  1.00129319  0.38320687  1
  O  O321  1  0.49517233  0.99545861  0.88310589  1
  O  O322  1  1.00315554  0.47521161  0.36561123  1
  O  O323  1  1.00556144  0.48205100  0.89560499  1
  O  O324  1  0.98303926  1.01863046  0.39036643  1
  O  O325  1  0.98259128  0.99163756  0.87220761  1
  O  O326  1  -0.01781047  -0.00724689  0.12527396  1
  O  O327  1  0.01274323  -0.00640386  0.63463083  1
  O  O328  1  0.00493118  0.50288056  0.11709888  1
  O  O329  1  0.01477705  0.48074366  0.65071574  1
  O  O330  1  0.51042105  -0.00498765  0.11697670  1
  O  O331  1  0.50944418  -0.00193096  0.61849769  1
  O  O332  1  0.50745815  0.51000815  0.13722101  1
  O  O333  1  0.51003828  0.51407710  0.62576009  1
  O  O334  1  0.23728569  0.38091243  0.24996521  1
  O  O335  1  0.26493894  0.37914175  0.73479180  1
  O  O336  1  0.25416383  0.89509151  0.25211349  1
  O  O337  1  0.25723855  0.88893519  0.73391067  1
  O  O338  1  0.73813554  0.35672756  0.23087728  1
  O  O339  1  0.79901878  0.39810552  0.74417953  1
  O  O340  1  0.75132006  0.87797154  0.24325141  1
  O  O341  1  0.75210621  0.88418628  0.74461074  1
  O  O342  1  0.26025415  0.11866052  0.25908116  1
  O  O343  1  0.26213021  0.11956924  0.75806890  1
  O  O344  1  0.25984767  0.61958580  0.25444174  1
  O  O345  1  0.25458115  0.60426256  0.72823444  1
  O  O346  1  0.75792958  0.12118452  0.25943928  1
  O  O347  1  0.75689840  0.11537762  0.75868342  1
  O  O348  1  0.75661393  0.63130589  0.26718049  1
  O  O349  1  0.73158255  0.62278712  0.77072238  1
  O  O350  1  0.36766467  0.11770540  0.37489999  1
  O  O351  1  0.36884574  0.11435888  0.87476435  1
  O  O352  1  0.38943862  0.61877985  0.36135130  1
  O  O353  1  0.40509971  0.59962092  0.86942778  1
  O  O354  1  0.86649602  0.12537632  0.36933441  1
  O  O355  1  0.86734934  0.11479331  0.86915664  1
  O  O356  1  0.86349857  0.62786830  0.39146094  1
  O  O357  1  0.84926706  0.62836049  0.88569206  1
  O  O358  1  0.11488286  0.37850426  0.13322671  1
  O  O359  1  0.13769811  0.37366368  0.63928571  1
  O  O360  1  0.13701663  0.87638973  0.10841805  1
  O  O361  1  0.13661434  0.88857443  0.62567134  1
  O  O362  1  0.63257065  0.38573361  0.11152113  1
  O  O363  1  0.61968847  0.39550975  0.61260317  1
  O  O364  1  0.63187324  0.88567453  0.12498273  1
  O  O365  1  0.63277798  0.88930750  0.62280876  1
  O  O366  1  0.11886796  0.25000437  0.24318480  1
  O  O367  1  0.13305901  0.24188287  0.76846167  1
  O  O368  1  0.10206443  0.77011984  0.24654009  1
  O  O369  1  0.15454711  0.75197250  0.75357973  1
  O  O370  1  0.61871601  0.24350908  0.26061627  1
  O  O371  1  0.60884345  0.23485450  0.76116800  1
  O  O372  1  0.61841538  0.74811046  0.25906843  1
  O  O373  1  0.62135116  0.74620467  0.76760994  1
  O  O374  1  0.38037529  0.24939182  0.23611618  1
  O  O375  1  0.38421857  0.23612319  0.75393041  1
  O  O376  1  0.38378434  0.74419425  0.24764158  1
  O  O377  1  0.36379764  0.74326758  0.71919606  1
  O  O378  1  0.88331997  0.24207786  0.24067432  1
  O  O379  1  0.87117879  0.22827378  0.75837905  1
  O  O380  1  0.93113450  0.81858203  0.26318436  1
  O  O381  1  0.85441526  0.72502011  0.74477432  1
  O  O382  1  0.36955358  0.47640740  0.49309331  1
  O  O383  1  0.37462671  0.49696424  0.98825604  1
  O  O384  1  0.38901863  1.01199333  0.49364781  1
  O  O385  1  0.38420680  0.99847306  0.99460776  1
  O  O386  1  0.86654261  0.48173331  0.49922406  1
  O  O387  1  0.88719216  0.48183048  1.00638409  1
  O  O388  1  0.86460070  0.99328967  0.50084068  1
  O  O389  1  0.86555768  0.98952436  0.98787404  1
  O  O390  1  0.11909318  0.00412983  -0.00308858  1
  O  O391  1  0.12548948  0.00256383  0.51598871  1
  O  O392  1  0.11211672  0.49485251  0.01529529  1
  O  O393  1  0.13686310  0.49050211  0.49729471  1
  O  O394  1  0.61906155  0.00532644  0.00644142  1
  O  O395  1  0.61960742  0.01056674  0.50745419  1
  O  O396  1  0.62408658  0.51306250  0.01173199  1
  O  O397  1  0.62997812  0.51668233  0.50491713  1
  O  O398  1  0.37739117  0.36038747  0.12507045  1
  O  O399  1  0.37241869  0.36939413  0.61383818  1
  O  O400  1  0.37558370  0.86822572  0.12068967  1
  O  O401  1  0.37257198  0.86582654  0.62063683  1
  O  O402  1  0.86685001  0.35899275  0.11556778  1
  O  O403  1  0.89061793  0.37014533  0.60437924  1
  O  O404  1  0.85545507  0.87811830  0.11178708  1
  O  O405  1  0.85474315  0.88491189  0.61696017  1
  O  O406  1  0.12972096  0.13096897  0.37045410  1
  O  O407  1  0.13426348  0.12599780  0.88051357  1
  O  O408  1  0.11526057  0.62863622  0.36172766  1
  O  O409  1  0.13254836  0.62734974  0.88682087  1
  O  O410  1  0.63308097  0.13416522  0.38462181  1
  O  O411  1  0.63071610  0.12927925  0.88231870  1
  O  O412  1  0.62986725  0.63494874  0.38449607  1
  O  O413  1  0.61513336  0.63485131  0.88575623  1
