# generated using pymatgen
data_V79Zn79O256
_symmetry_space_group_name_H-M   'P 1'
_cell_length_a   16.90063072
_cell_length_b   16.90459253
_cell_length_c   16.89185178
_cell_angle_alpha   89.90602129
_cell_angle_beta   90.00311880
_cell_angle_gamma   89.81499027
_symmetry_Int_Tables_number   1
_chemical_formula_structural   V79Zn79O256
_chemical_formula_sum   'V79 Zn79 O256'
_cell_volume   4825.94127088
_cell_formula_units_Z   1
loop_
 _symmetry_equiv_pos_site_id
 _symmetry_equiv_pos_as_xyz
  1  'x, y, z'
loop_
 _atom_site_type_symbol
 _atom_site_label
 _atom_site_symmetry_multiplicity
 _atom_site_fract_x
 _atom_site_fract_y
 _atom_site_fract_z
 _atom_site_occupancy
  V  V0  1  0.49518756  0.25232552  0.73729028  1
  V  V1  1  0.86276774  0.12927356  0.25642657  1
  V  V2  1  0.25199527  0.49796821  0.24671332  1
  V  V3  1  0.10952157  0.63308028  0.02231696  1
  V  V4  1  0.37736981  0.37176109  0.50296145  1
  V  V5  1  0.62030957  0.61007155  -0.00251283  1
  V  V6  1  0.25074622  0.63644793  0.88693562  1
  V  V7  1  0.24838118  0.75031758  0.49884948  1
  V  V8  1  0.88092440  0.74052197  0.13649695  1
  V  V9  1  0.38147539  -0.00236085  0.86982269  1
  V  V10  1  0.85913942  -0.00328111  0.36978821  1
  V  V11  1  0.25357528  0.24656934  0.00425719  1
  V  V12  1  0.12723891  0.12490751  0.50128677  1
  V  V13  1  0.63111525  0.75181057  0.36712262  1
  V  V14  1  0.50064536  0.50017091  0.49958657  1
  V  V15  1  0.24985787  0.50333183  0.75290129  1
  V  V16  1  0.50128874  0.75538163  0.75416342  1
  V  V17  1  0.75722816  0.50868872  0.76445781  1
  V  V18  1  0.22641408  0.87695019  0.62713092  1
  V  V19  1  0.37481116  0.50183588  0.88099515  1
  V  V20  1  0.13041671  0.24607008  0.37451010  1
  V  V21  1  0.48985087  0.87448027  0.36344961  1
  V  V22  1  0.37910254  0.12987774  0.74004590  1
  V  V23  1  0.75193357  0.74904813  0.01380720  1
  V  V24  1  0.63957371  0.88286269  0.24072565  1
  V  V25  1  0.62497624  0.37487031  0.74910949  1
  V  V26  1  0.63060472  0.87772529  0.74090202  1
  V  V27  1  0.12426767  0.50233569  0.62707518  1
  V  V28  1  0.37423325  0.62761461  0.75144739  1
  V  V29  1  0.75280110  -0.00155057  0.74689219  1
  V  V30  1  0.24996976  0.12177676  0.87221828  1
  V  V31  1  0.00178751  0.25097272  0.75449666  1
  V  V32  1  0.87733284  0.24990093  0.62723396  1
  V  V33  1  0.63888367  0.00996621  0.12034669  1
  V  V34  1  0.25511844  0.24774555  0.49966127  1
  V  V35  1  0.75283978  0.37757764  0.62541998  1
  V  V36  1  0.87723450  0.37683182  -0.01270613  1
  V  V37  1  -0.00044149  0.37460492  0.37419689  1
  V  V38  1  0.00226954  0.50051183  0.50144726  1
  V  V39  1  0.24961788  0.37048954  0.12359820  1
  V  V40  1  0.62716718  0.00922143  0.61184699  1
  V  V41  1  0.25098385  0.62801996  0.37605114  1
  V  V42  1  0.64497013  0.74725184  0.86981571  1
  V  V43  1  0.25557949  0.37020999  0.62778912  1
  V  V44  1  0.12047194  0.75047756  0.86043291  1
  V  V45  1  0.12501637  0.62425211  0.50303125  1
  V  V46  1  0.87531012  0.12359588  0.75266319  1
  V  V47  1  0.88015714  0.87825990  0.00977036  1
  V  V48  1  0.87905428  0.37664156  0.49861762  1
  V  V49  1  0.50701188  0.01772261  0.00450329  1
  V  V50  1  0.00543095  0.11875605  0.62527897  1
  V  V51  1  0.74447185  0.12616298  0.87653116  1
  V  V52  1  0.00150167  -0.00511375  0.49138754  1
  V  V53  1  0.11787896  0.85709983  0.27367817  1
  V  V54  1  0.73647269  0.76144656  0.52299898  1
  V  V55  1  0.12123225  0.25162598  0.87805244  1
  V  V56  1  0.11980146  0.11275930  0.00113663  1
  V  V57  1  0.37556782  0.86800663  0.01024943  1
  V  V58  1  0.37907412  0.49868461  0.37709401  1
  V  V59  1  0.48815120  0.00754463  0.49084783  1
  V  V60  1  0.49865760  0.37826382  0.87789925  1
  V  V61  1  0.37503416  0.37297941  0.00413077  1
  V  V62  1  -0.00609987  0.12343627  0.12776931  1
  V  V63  1  0.89203578  0.62683302  0.75243940  1
  V  V64  1  0.23806865  -0.00317648  0.74399960  1
  V  V65  1  0.12649483  0.37507771  0.24681923  1
  V  V66  1  0.12240644  0.37444808  0.75615752  1
  V  V67  1  0.38645049  0.63430002  0.23634316  1
  V  V68  1  0.50323541  0.62888460  0.62345547  1
  V  V69  1  0.37611226  0.75978210  0.62427788  1
  V  V70  1  0.90033671  0.74963733  0.62530240  1
  V  V71  1  0.74808444  0.24522606  0.01073349  1
  V  V72  1  0.12445272  -0.00941762  0.14376083  1
  V  V73  1  0.74088925  0.51829787  0.25661418  1
  V  V74  1  0.74800178  0.38028174  0.13505950  1
  V  V75  1  0.00152643  0.87698353  0.86307977  1
  V  V76  1  0.49913827  0.24250597  0.23118574  1
  V  V77  1  0.63226291  0.50439973  0.62575050  1
  V  V78  1  0.74737807  0.23741566  0.49389100  1
  Zn  Zn79  1  0.59623144  0.48847945  0.13078187  1
  Zn  Zn80  1  -0.00590228  0.25309585  0.24569804  1
  Zn  Zn81  1  0.62046561  0.24331261  0.87764444  1
  Zn  Zn82  1  -0.00804165  0.49471676  0.00367404  1
  Zn  Zn83  1  -0.00829599  0.74195601  0.27723547  1
  Zn  Zn84  1  0.50739359  0.87689094  0.88011711  1
  Zn  Zn85  1  -0.00694730  0.60460349  0.15209228  1
  Zn  Zn86  1  0.88057958  -0.00001977  0.88236159  1
  Zn  Zn87  1  0.60263170  0.37240816  0.28698734  1
  Zn  Zn88  1  0.24884724  0.86731359  0.12923721  1
  Zn  Zn89  1  0.36970208  0.87841405  0.49052219  1
  Zn  Zn90  1  0.86570007  0.87878182  0.50673624  1
  Zn  Zn91  1  0.89761678  0.56870321  0.32669247  1
  Zn  Zn92  1  0.49913120  0.14292140  0.59857243  1
  Zn  Zn93  1  0.63150535  0.62180407  0.48242939  1
  Zn  Zn94  1  0.18757492  0.18220450  0.18510840  1
  Zn  Zn95  1  0.19059536  0.18598046  0.68694432  1
  Zn  Zn96  1  0.18957799  0.69404078  0.19267844  1
  Zn  Zn97  1  0.18623454  0.69071903  0.68713008  1
  Zn  Zn98  1  0.67820454  0.19070481  0.19368788  1
  Zn  Zn99  1  0.68398880  0.18818170  0.68203401  1
  Zn  Zn100  1  0.64928978  0.68744385  0.17470273  1
  Zn  Zn101  1  0.69358066  0.68366362  0.68925976  1
  Zn  Zn102  1  0.32381371  0.30856066  0.31418520  1
  Zn  Zn103  1  0.31037546  0.31073001  0.81633739  1
  Zn  Zn104  1  0.30766790  0.81286768  0.30295238  1
  Zn  Zn105  1  0.30987590  0.81758218  0.81264872  1
  Zn  Zn106  1  0.80916455  0.31133558  0.31332431  1
  Zn  Zn107  1  0.81107849  0.31236567  0.81452742  1
  Zn  Zn108  1  0.81137552  0.81561164  0.31730293  1
  Zn  Zn109  1  0.82445312  0.81435527  0.80260571  1
  Zn  Zn110  1  0.19063058  0.43588070  0.43517062  1
  Zn  Zn111  1  0.15934598  0.45983874  0.93212802  1
  Zn  Zn112  1  0.18699091  0.93919993  0.44364292  1
  Zn  Zn113  1  0.18943483  0.93019511  0.92995438  1
  Zn  Zn114  1  0.69604238  0.43898299  0.43524052  1
  Zn  Zn115  1  0.69275261  0.42803178  0.93788973  1
  Zn  Zn116  1  0.68284417  0.93628125  0.43238301  1
  Zn  Zn117  1  0.69258233  0.93358500  0.93616669  1
  Zn  Zn118  1  0.29080723  0.02894608  0.04107329  1
  Zn  Zn119  1  0.31092886  0.06133245  0.56625520  1
  Zn  Zn120  1  0.30890523  0.56097980  0.06377657  1
  Zn  Zn121  1  0.31352564  0.56343806  0.56711749  1
  Zn  Zn122  1  0.81368295  0.06298085  0.06448336  1
  Zn  Zn123  1  0.81690000  0.05994452  0.56375638  1
  Zn  Zn124  1  0.80560987  0.56196455  0.06031986  1
  Zn  Zn125  1  0.82536704  0.58290354  0.54030226  1
  Zn  Zn126  1  0.43954162  0.43013357  0.19040752  1
  Zn  Zn127  1  0.43832156  0.44055809  0.68816538  1
  Zn  Zn128  1  0.43897004  0.94935301  0.18161660  1
  Zn  Zn129  1  0.44330859  0.94440248  0.68247300  1
  Zn  Zn130  1  0.92319211  0.43857229  0.18038329  1
  Zn  Zn131  1  0.93904278  0.44088823  0.68972941  1
  Zn  Zn132  1  0.94108931  0.93708498  0.19194315  1
  Zn  Zn133  1  0.94280256  0.93295037  0.68200413  1
  Zn  Zn134  1  0.05801785  0.06344125  0.31341563  1
  Zn  Zn135  1  0.05875002  0.06155561  0.81759256  1
  Zn  Zn136  1  0.07050357  0.56184528  0.31586438  1
  Zn  Zn137  1  0.05702109  0.56069142  0.82545894  1
  Zn  Zn138  1  0.55068727  0.05339611  0.29736871  1
  Zn  Zn139  1  0.56248138  0.06321812  0.80829573  1
  Zn  Zn140  1  0.56488383  0.56073391  0.30749016  1
  Zn  Zn141  1  0.56408889  0.56408223  0.81610112  1
  Zn  Zn142  1  0.43240006  0.18922683  0.41002385  1
  Zn  Zn143  1  0.43769758  0.19036074  0.92861802  1
  Zn  Zn144  1  0.43929183  0.69086881  0.43142542  1
  Zn  Zn145  1  0.43893679  0.68815620  0.94145281  1
  Zn  Zn146  1  0.93685057  0.18620397  0.43472607  1
  Zn  Zn147  1  0.93303038  0.18967953  0.94331489  1
  Zn  Zn148  1  0.92116259  0.68931248  0.44556680  1
  Zn  Zn149  1  0.93752132  0.69100671  0.93669919  1
  Zn  Zn150  1  0.06005337  0.30802398  0.06389780  1
  Zn  Zn151  1  0.06671315  0.31176587  0.56622450  1
  Zn  Zn152  1  0.06077361  0.80686786  0.06004064  1
  Zn  Zn153  1  0.05700272  0.80579983  0.45401373  1
  Zn  Zn154  1  0.56384263  0.30632699  0.06534276  1
  Zn  Zn155  1  0.58024320  0.32613590  0.49641511  1
  Zn  Zn156  1  0.55776095  0.81752822  0.06265489  1
  Zn  Zn157  1  0.55855498  0.82372246  0.55711969  1
  O  O158  1  0.11983714  0.11045574  0.12212821  1
  O  O159  1  0.11498800  0.13432186  0.61529126  1
  O  O160  1  0.10807074  0.64052364  0.12615615  1
  O  O161  1  0.13696010  0.61185368  0.61623078  1
  O  O162  1  0.63252067  0.10978213  0.12526436  1
  O  O163  1  0.61397081  0.11293780  0.62917714  1
  O  O164  1  0.63451599  0.59634649  0.10014038  1
  O  O165  1  0.61367558  0.61870925  0.63206750  1
  O  O166  1  0.36791469  0.39074158  0.39109560  1
  O  O167  1  0.37785730  0.38304307  0.88051848  1
  O  O168  1  0.38459573  0.87208498  0.37011214  1
  O  O169  1  0.37832683  0.88753804  0.87890085  1
  O  O170  1  0.88733056  0.36865458  0.38654671  1
  O  O171  1  0.87528816  0.37263668  0.88566146  1
  O  O172  1  0.87031197  0.89282289  0.38030334  1
  O  O173  1  0.88907332  0.87183232  0.87948945  1
  O  O174  1  0.25429684  -0.00092009  0.35914123  1
  O  O175  1  0.26036183  0.00274472  0.86427499  1
  O  O176  1  0.25991097  0.50673504  0.37142325  1
  O  O177  1  0.25554227  0.51319088  0.87074245  1
  O  O178  1  0.76021542  0.00619240  0.38194534  1
  O  O179  1  0.75441062  0.00707052  0.86496953  1
  O  O180  1  0.73542097  0.51087773  0.35891566  1
  O  O181  1  0.75377108  0.49519267  0.86186126  1
  O  O182  1  0.25459157  0.48703603  0.13956541  1
  O  O183  1  0.24365790  0.49170401  0.63111094  1
  O  O184  1  0.22991478  0.99256434  0.12868014  1
  O  O185  1  0.25263474  0.98905135  0.63191072  1
  O  O186  1  0.74742474  0.48790236  0.13485877  1
  O  O187  1  0.74014790  0.49898945  0.62510773  1
  O  O188  1  0.73725301  0.99348952  0.11167918  1
  O  O189  1  0.73623269  1.00850582  0.63099190  1
  O  O190  1  0.00846873  0.37489346  0.25808343  1
  O  O191  1  0.01524496  0.36907855  0.74466258  1
  O  O192  1  0.01567390  0.87055520  0.25099281  1
  O  O193  1  0.00074930  0.87619901  0.76349536  1
  O  O194  1  0.48773893  0.35375279  0.25774072  1
  O  O195  1  0.50492151  0.37241579  0.75470204  1
  O  O196  1  0.50033587  0.88990209  0.26079669  1
  O  O197  1  0.51038862  0.86931277  0.74835677  1
  O  O198  1  0.50543383  0.14007243  0.24689074  1
  O  O199  1  0.49241165  0.13731914  0.75366650  1
  O  O200  1  0.48525661  0.61708525  0.24924331  1
  O  O201  1  0.49586235  0.63483856  0.74273168  1
  O  O202  1  0.99522409  0.12693954  0.24073852  1
  O  O203  1  0.99686484  0.12958988  0.74393831  1
  O  O204  1  0.98642956  0.62116865  0.26856709  1
  O  O205  1  0.99150058  0.60772907  0.74492854  1
  O  O206  1  0.36163193  0.25848476  -0.01271475  1
  O  O207  1  0.36914565  0.26120474  0.48993990  1
  O  O208  1  0.37930650  0.76982369  -0.00687634  1
  O  O209  1  0.36633571  0.74941477  0.50877013  1
  O  O210  1  0.85853607  0.25874006  -0.00309269  1
  O  O211  1  0.87340409  0.25769555  0.50968593  1
  O  O212  1  0.86556772  0.75164337  0.01044054  1
  O  O213  1  0.85366774  0.75367278  0.51934703  1
  O  O214  1  0.13324837  0.24572036  0.49446576  1
  O  O215  1  0.13302217  0.24122633  0.99415512  1
  O  O216  1  0.13913419  0.73816896  0.50417519  1
  O  O217  1  0.12440594  0.73537728  0.99377699  1
  O  O218  1  0.64915941  0.24693930  0.52787141  1
  O  O219  1  0.64222498  0.25607654  0.99246147  1
  O  O220  1  0.62750171  0.75919483  0.49056678  1
  O  O221  1  0.64100191  0.75869095  0.98113764  1
  O  O222  1  0.48670051  0.25101631  0.13033309  1
  O  O223  1  0.50018769  0.25367790  0.63636555  1
  O  O224  1  0.55348262  0.72974384  0.12829285  1
  O  O225  1  0.49692446  0.74676802  0.63106663  1
  O  O226  1  1.01002074  0.22939045  0.13083153  1
  O  O227  1  0.99413248  0.24367274  0.63119147  1
  O  O228  1  0.98362966  0.74554489  0.13028588  1
  O  O229  1  0.99467087  0.74332623  0.60721300  1
  O  O230  1  0.01155030  0.25991727  0.37623348  1
  O  O231  1  0.01376476  0.24176145  0.87152902  1
  O  O232  1  -0.02030932  0.76079858  0.38899376  1
  O  O233  1  0.01236961  0.75802516  0.87623204  1
  O  O234  1  0.59664841  0.18006719  0.39427756  1
  O  O235  1  0.50221143  0.26281811  0.86248593  1
  O  O236  1  0.50916879  0.76974044  0.38181063  1
  O  O237  1  0.50499573  0.75338582  0.86093481  1
  O  O238  1  0.24151220  0.13687929  0.51140726  1
  O  O239  1  0.24354042  0.12785041  0.99489168  1
  O  O240  1  0.24722488  0.63011949  0.49699530  1
  O  O241  1  0.26739962  0.63755266  0.98604492  1
  O  O242  1  0.76218639  0.13871802  0.50322667  1
  O  O243  1  0.75945972  0.13670951  0.99175780  1
  O  O244  1  0.73550936  0.65171156  0.51573314  1
  O  O245  1  0.74062444  0.64287335  0.99625702  1
  O  O246  1  0.25235143  0.36591245  0.00695475  1
  O  O247  1  0.25659389  0.36955202  0.50889177  1
  O  O248  1  0.27176198  0.89777369  0.00220451  1
  O  O249  1  0.25142731  0.86808501  0.50842330  1
  O  O250  1  0.75876281  0.36376131  0.00428309  1
  O  O251  1  0.76395445  0.37213145  0.50782573  1
  O  O252  1  0.76671834  0.85774182  -0.01291622  1
  O  O253  1  0.74618408  0.86590835  0.49832198  1
  O  O254  1  0.14026420  0.48482130  0.26182310  1
  O  O255  1  0.13042325  0.49260638  0.74507152  1
  O  O256  1  0.12128255  0.99009628  0.24772658  1
  O  O257  1  0.13950899  1.00826834  0.75460605  1
  O  O258  1  0.62759774  0.48517615  0.24779096  1
  O  O259  1  0.63478919  0.49651032  0.74618555  1
  O  O260  1  0.62416180  0.99320209  0.23426901  1
  O  O261  1  0.63181061  0.99482816  0.74160904  1
  O  O262  1  0.36916276  0.03020606  0.23971340  1
  O  O263  1  0.37658612  0.00846507  0.75523629  1
  O  O264  1  0.36754584  0.50325361  0.26128747  1
  O  O265  1  0.36904389  0.50595550  0.75867072  1
  O  O266  1  0.87768229  0.00782801  0.26289103  1
  O  O267  1  0.86575197  0.00546233  0.74385574  1
  O  O268  1  0.84990448  0.50041183  0.25033241  1
  O  O269  1  0.86388702  0.51030073  0.74055840  1
  O  O270  1  0.12061440  0.36657022  0.36899448  1
  O  O271  1  0.14050296  0.36094517  0.86568264  1
  O  O272  1  0.12354762  0.87076832  0.37733848  1
  O  O273  1  0.11483844  0.86144665  0.88203846  1
  O  O274  1  0.61498514  0.37189071  0.39946167  1
  O  O275  1  0.61571744  0.37812328  0.86179160  1
  O  O276  1  0.61507939  0.87432217  0.36047331  1
  O  O277  1  0.62612880  0.86545895  0.86095506  1
  O  O278  1  0.33402205  0.08871184  0.19734513  1
  O  O279  1  0.38173943  0.12242256  0.63616650  1
  O  O280  1  0.36807459  0.62103916  0.13825226  1
  O  O281  1  0.38338980  0.63588376  0.63044614  1
  O  O282  1  0.88743042  0.11460417  0.13719290  1
  O  O283  1  0.88467208  0.13390366  0.63133817  1
  O  O284  1  0.87166941  0.63774110  0.12306251  1
  O  O285  1  0.86971722  0.64044735  0.63309272  1
  O  O286  1  0.24650347  0.25356252  0.11298858  1
  O  O287  1  0.24612294  0.26145925  0.61581224  1
  O  O288  1  0.24577034  0.75618010  0.12194086  1
  O  O289  1  0.25764472  0.75837569  0.62023258  1
  O  O290  1  0.74234010  0.25357705  0.11429400  1
  O  O291  1  0.76563365  0.25519518  0.62675148  1
  O  O292  1  0.75184148  0.75109956  0.11524122  1
  O  O293  1  0.73088724  0.76771901  0.62380881  1
  O  O294  1  0.24160414  0.25774915  0.38851716  1
  O  O295  1  0.24096159  0.24078269  0.88211188  1
  O  O296  1  0.25942844  0.73965145  0.38827745  1
  O  O297  1  0.23664065  0.74784072  0.86727309  1
  O  O298  1  0.75135405  0.25527685  0.39487601  1
  O  O299  1  0.74682170  0.23952410  0.87680685  1
  O  O300  1  0.73363251  0.75605207  0.38158368  1
  O  O301  1  0.74482850  0.75048259  0.86306088  1
  O  O302  1  0.00684922  0.12874881  0.01393055  1
  O  O303  1  0.00729732  0.12255005  0.50726717  1
  O  O304  1  0.00727365  0.62130567  0.00089170  1
  O  O305  1  0.01691036  0.61012472  0.49600138  1
  O  O306  1  0.50366777  0.11685393  -0.01187313  1
  O  O307  1  0.48311041  0.11742224  0.48355141  1
  O  O308  1  0.52169871  0.63382628  -0.00751452  1
  O  O309  1  0.50073663  0.62077283  0.51071144  1
  O  O310  1  0.48778876  0.38904703  0.51405812  1
  O  O311  1  0.48858080  0.36236095  0.98561052  1
  O  O312  1  0.49509156  0.89044541  0.48638281  1
  O  O313  1  0.48997165  0.88554429  0.99806039  1
  O  O314  1  0.99977098  0.37804434  0.49453898  1
  O  O315  1  0.97907068  0.36507749  1.01002785  1
  O  O316  1  1.00366896  0.89529407  0.50720770  1
  O  O317  1  0.98325697  0.86480964  0.99272609  1
  O  O318  1  0.49230504  0.51033279  0.39089413  1
  O  O319  1  0.48629139  0.49119869  0.86622631  1
  O  O320  1  0.50402437  0.99307931  0.38392642  1
  O  O321  1  0.49634045  0.99862746  0.87996210  1
  O  O322  1  1.00692375  0.48613813  0.38708927  1
  O  O323  1  1.04724995  0.48346829  0.90430671  1
  O  O324  1  0.99392708  1.00401333  0.38876851  1
  O  O325  1  1.00054456  0.98417558  0.87750875  1
  O  O326  1  0.01241916  0.01183239  0.12927631  1
  O  O327  1  -0.00661602  0.01411902  0.61451159  1
  O  O328  1  -0.00433127  0.49718431  0.11930996  1
  O  O329  1  0.01656181  0.48901972  0.61552174  1
  O  O330  1  0.50620592  0.00879139  0.10830997  1
  O  O331  1  0.50759016  0.00662015  0.60618457  1
  O  O332  1  0.48856893  0.48069752  0.10651762  1
  O  O333  1  0.50649178  0.51063386  0.62119470  1
  O  O334  1  0.25010608  0.37514284  0.24550760  1
  O  O335  1  0.24423891  0.37898907  0.74500376  1
  O  O336  1  0.22390740  0.86812471  0.24906773  1
  O  O337  1  0.25387528  0.88540136  0.73907700  1
  O  O338  1  0.74282403  0.37134750  0.24064630  1
  O  O339  1  0.74487707  0.38542965  0.74505868  1
  O  O340  1  0.73809141  0.88024987  0.24988561  1
  O  O341  1  0.74363986  0.88770175  0.75265274  1
  O  O342  1  0.28028422  0.12901251  0.24167579  1
  O  O343  1  0.25945387  0.11827270  0.75085842  1
  O  O344  1  0.25316426  0.61543762  0.25966131  1
  O  O345  1  0.25672070  0.62288410  0.75602751  1
  O  O346  1  0.76410217  0.13002453  0.24403947  1
  O  O347  1  0.75517219  0.11889708  0.75458182  1
  O  O348  1  0.72424775  0.61502572  0.23663395  1
  O  O349  1  0.75385651  0.61172793  0.75178150  1
  O  O350  1  0.29854172  0.05371562  0.38440708  1
  O  O351  1  0.36943707  0.11539621  0.86590611  1
  O  O352  1  0.36762720  0.61571087  0.37351808  1
  O  O353  1  0.37260722  0.62051617  0.87067666  1
  O  O354  1  0.87969876  0.11533026  0.36397648  1
  O  O355  1  0.86938219  0.12106673  0.86906040  1
  O  O356  1  0.86340929  0.59891609  0.42651250  1
  O  O357  1  0.88113281  0.63520444  0.85320482  1
  O  O358  1  0.13521676  0.36601871  0.13701176  1
  O  O359  1  0.13629056  0.38066963  0.63419308  1
  O  O360  1  0.11562971  0.88716151  0.12388417  1
  O  O361  1  0.13083078  0.87213671  0.62322978  1
  O  O362  1  0.64135432  0.37921536  0.10991617  1
  O  O363  1  0.63028356  0.38940119  0.63549049  1
  O  O364  1  0.61998249  0.88457116  0.13686898  1
  O  O365  1  0.61641038  0.89336371  0.63290791  1
  O  O366  1  0.13090410  0.25653915  0.25984169  1
  O  O367  1  0.12360296  0.25489761  0.75768902  1
  O  O368  1  0.11496707  0.75321640  0.26329773  1
  O  O369  1  0.11962584  0.74642084  0.76037679  1
  O  O370  1  0.60505948  0.25875381  0.24697279  1
  O  O371  1  0.61885175  0.26309240  0.74815322  1
  O  O372  1  0.62747656  0.76762612  0.26133430  1
  O  O373  1  0.62130563  0.75701824  0.75409354  1
  O  O374  1  0.40899796  0.23394957  0.31122713  1
  O  O375  1  0.38065083  0.24135486  0.75666212  1
  O  O376  1  0.37307449  0.73296214  0.25515404  1
  O  O377  1  0.38309135  0.74939374  0.74342656  1
  O  O378  1  0.87839895  0.23478282  0.25930075  1
  O  O379  1  0.88178872  0.24582252  0.74482033  1
  O  O380  1  0.87031200  0.75510878  0.23939759  1
  O  O381  1  0.88136845  0.73950049  0.73651832  1
  O  O382  1  0.38138788  0.49648118  0.49824736  1
  O  O383  1  0.36423329  0.48761159  0.98812506  1
  O  O384  1  0.38455003  0.99696542  0.50276660  1
  O  O385  1  0.39032601  1.00060849  0.98955682  1
  O  O386  1  0.89044116  0.48167340  0.52023082  1
  O  O387  1  0.86740744  0.48246619  1.00131377  1
  O  O388  1  0.88584845  1.00212947  0.49185598  1
  O  O389  1  0.86852786  0.98176701  1.00087193  1
  O  O390  1  0.13115541  0.01114546  -0.00197019  1
  O  O391  1  0.11534174  0.01429989  0.49388752  1
  O  O392  1  0.15548107  0.54024370  0.01418943  1
  O  O393  1  0.12390939  0.50162295  0.50806782  1
  O  O394  1  0.61487457  -0.00883813  0.00533591  1
  O  O395  1  0.61817434  0.00145405  0.50812620  1
  O  O396  1  0.62543919  0.51335319  -0.03005726  1
  O  O397  1  0.61766973  0.50498262  0.51010197  1
  O  O398  1  0.36026438  0.37167034  0.11406308  1
  O  O399  1  0.36416862  0.38406847  0.61789829  1
  O  O400  1  0.37546147  0.88184321  0.11444245  1
  O  O401  1  0.38135080  0.86370576  0.62201406  1
  O  O402  1  0.85293339  0.36834822  0.11960335  1
  O  O403  1  0.87598910  0.36458185  0.62261491  1
  O  O404  1  0.87984612  0.86513355  0.11499934  1
  O  O405  1  0.88051997  0.85815291  0.62557674  1
  O  O406  1  0.11940513  0.13682193  0.38538385  1
  O  O407  1  0.12940065  0.13126695  0.88223737  1
  O  O408  1  0.14179675  0.61612799  0.38939937  1
  O  O409  1  0.13346789  0.63857456  0.87974215  1
  O  O410  1  0.63527975  0.12309804  0.36580823  1
  O  O411  1  0.63961557  0.12369355  0.86878193  1
  O  O412  1  0.61012404  0.64810356  0.37096425  1
  O  O413  1  0.62526797  0.64413160  0.87338872  1
