# generated using pymatgen
data_V79Zn79O256
_symmetry_space_group_name_H-M   'P 1'
_cell_length_a   16.89792914
_cell_length_b   16.93560411
_cell_length_c   16.92170740
_cell_angle_alpha   90.00598671
_cell_angle_beta   89.75630185
_cell_angle_gamma   90.10417488
_symmetry_Int_Tables_number   1
_chemical_formula_structural   V79Zn79O256
_chemical_formula_sum   'V79 Zn79 O256'
_cell_volume   4842.54550523
_cell_formula_units_Z   1
loop_
 _symmetry_equiv_pos_site_id
 _symmetry_equiv_pos_as_xyz
  1  'x, y, z'
loop_
 _atom_site_type_symbol
 _atom_site_label
 _atom_site_symmetry_multiplicity
 _atom_site_fract_x
 _atom_site_fract_y
 _atom_site_fract_z
 _atom_site_occupancy
  V  V0  1  0.74584623  0.25645910  -0.00264101  1
  V  V1  1  0.75671152  0.12181475  0.36233174  1
  V  V2  1  0.24009833  0.49391925  0.24211965  1
  V  V3  1  0.74855719  0.75300572  0.00194910  1
  V  V4  1  0.75004830  0.87950700  0.13245061  1
  V  V5  1  0.37654639  0.00174868  0.36394425  1
  V  V6  1  0.62625614  0.25050617  0.37613712  1
  V  V7  1  0.75358071  0.37238006  0.62553078  1
  V  V8  1  0.63010681  0.00052790  0.13326484  1
  V  V9  1  0.77175989  0.74410035  0.50876606  1
  V  V10  1  0.87143096  -0.00382783  0.35704718  1
  V  V11  1  0.49445833  0.24844584  0.25153609  1
  V  V12  1  0.37247214  0.37138254  0.49953366  1
  V  V13  1  0.75778380  0.24990094  0.50384148  1
  V  V14  1  0.37997874  0.87973195  0.50025426  1
  V  V15  1  0.13292093  0.12829602  0.50013561  1
  V  V16  1  0.37580918  0.37764943  -0.01064446  1
  V  V17  1  0.12585344  0.75090314  0.37103255  1
  V  V18  1  0.47965327  0.62530528  0.63139599  1
  V  V19  1  0.37127588  0.25057149  0.12711464  1
  V  V20  1  0.12885979  0.25077659  0.37386798  1
  V  V21  1  -0.00274947  0.63617730  0.62457773  1
  V  V22  1  -0.01311190  0.13484430  0.62139432  1
  V  V23  1  0.49672113  0.12505940  0.12984211  1
  V  V24  1  0.62363748  0.37561134  0.76438073  1
  V  V25  1  0.00302131  0.38183169  0.36983959  1
  V  V26  1  0.87510514  0.37705909  0.01849099  1
  V  V27  1  0.62509484  0.50878329  0.62420119  1
  V  V28  1  0.62437197  -0.00616915  0.64026595  1
  V  V29  1  0.87842108  0.49921636  0.88453250  1
  V  V30  1  0.62394937  0.62140612  0.00683771  1
  V  V31  1  0.24955375  0.23781459  -0.00673754  1
  V  V32  1  0.01258156  0.62151802  0.12844478  1
  V  V33  1  0.86954360  0.23918828  0.13303258  1
  V  V34  1  0.00278473  0.37497162  0.87844873  1
  V  V35  1  0.87366896  0.12798254  0.76664143  1
  V  V36  1  0.73151466  0.12516281  0.87507829  1
  V  V37  1  0.24812877  0.37497561  0.62340808  1
  V  V38  1  0.37712522  0.50260649  0.36672544  1
  V  V39  1  0.62797384  0.12140385  0.50167512  1
  V  V40  1  0.37049839  0.24872527  0.62079476  1
  V  V41  1  0.12586566  0.89066601  0.25338531  1
  V  V42  1  0.25170464  0.89075947  0.13568664  1
  V  V43  1  0.50290058  0.25920495  0.75958799  1
  V  V44  1  0.49797280  0.12852362  0.62314950  1
  V  V45  1  0.50362752  0.87380771  0.87180551  1
  V  V46  1  0.88499938  0.63024482  0.75107452  1
  V  V47  1  0.50005238  -0.00070828  -0.00063680  1
  V  V48  1  0.50224871  0.37583348  0.37698170  1
  V  V49  1  0.49824597  0.49948597  -0.00810621  1
  V  V50  1  0.63426353  0.74429762  0.39181918  1
  V  V51  1  0.12272464  0.00387385  0.63233323  1
  V  V52  1  0.50493345  0.50831395  0.50138945  1
  V  V53  1  0.87817180  0.38267577  0.49948370  1
  V  V54  1  0.23085484  0.74694292  0.00790488  1
  V  V55  1  0.12153706  0.62044349  0.49686460  1
  V  V56  1  0.23979824  0.87481324  0.62421489  1
  V  V57  1  0.25451137  0.75178721  0.49637554  1
  V  V58  1  0.86423736  0.50511722  0.35864002  1
  V  V59  1  0.49787818  0.61745549  0.13472418  1
  V  V60  1  0.25572305  0.62396234  0.36679839  1
  V  V61  1  0.62757451  0.75004291  0.86360764  1
  V  V62  1  -0.01215353  -0.00195390  0.49981219  1
  V  V63  1  0.37805061  0.74824118  0.13374859  1
  V  V64  1  0.75295005  0.62430569  0.87916590  1
  V  V65  1  0.01850310  0.50394608  0.00358100  1
  V  V66  1  0.00551673  0.24044905  0.24507030  1
  V  V67  1  0.88201876  0.88500352  -0.01453995  1
  V  V68  1  -0.00571253  0.25301580  0.74728871  1
  V  V69  1  0.50561099  0.76070715  0.25863501  1
  V  V70  1  0.11737890  0.49631358  0.62047114  1
  V  V71  1  0.26695129  0.00185718  0.74601592  1
  V  V72  1  0.62916706  0.38070153  0.23766509  1
  V  V73  1  0.25241862  0.12181270  0.35740374  1
  V  V74  1  0.47245943  0.74459240  0.75140004  1
  V  V75  1  0.75219016  0.49908217  0.75295787  1
  V  V76  1  0.88003085  0.74823020  0.13196638  1
  V  V77  1  0.12827317  0.23394579  0.87441093  1
  V  V78  1  0.38076537  0.87417914  0.00069125  1
  Zn  Zn79  1  0.76806166  0.86972944  0.62958041  1
  Zn  Zn80  1  0.50723494  -0.00903737  0.49497790  1
  Zn  Zn81  1  0.74431625  -0.01885341  0.76542780  1
  Zn  Zn82  1  0.23667067  0.37175358  0.12493952  1
  Zn  Zn83  1  0.12623965  0.37925862  0.75323906  1
  Zn  Zn84  1  0.62954852  0.88447026  0.26679320  1
  Zn  Zn85  1  0.25257122  0.51608465  0.74907827  1
  Zn  Zn86  1  0.62242530  0.13108694  0.00190012  1
  Zn  Zn87  1  0.09318873  0.03146580  0.03315129  1
  Zn  Zn88  1  0.35994815  0.13860046  0.78099443  1
  Zn  Zn89  1  -0.00221226  0.74557878  0.25341647  1
  Zn  Zn90  1  0.36841806  0.52333042  0.86252398  1
  Zn  Zn91  1  -0.00279724  0.10406230  0.12411071  1
  Zn  Zn92  1  -0.00730606  0.86835859  0.37895307  1
  Zn  Zn93  1  0.75194496  0.49246963  0.23212942  1
  Zn  Zn94  1  0.18187643  0.17618841  0.17641466  1
  Zn  Zn95  1  0.18457375  0.18584101  0.68952768  1
  Zn  Zn96  1  0.19140255  0.68922424  0.18762465  1
  Zn  Zn97  1  0.18956287  0.69070527  0.67526177  1
  Zn  Zn98  1  0.68280639  0.19250837  0.18617468  1
  Zn  Zn99  1  0.68386118  0.18935221  0.68911878  1
  Zn  Zn100  1  0.68415474  0.68521748  0.19574680  1
  Zn  Zn101  1  0.69517414  0.68334857  0.68560048  1
  Zn  Zn102  1  0.31005320  0.31430953  0.31363383  1
  Zn  Zn103  1  0.31153703  0.31969515  0.80788497  1
  Zn  Zn104  1  0.31693357  0.81642646  0.31318398  1
  Zn  Zn105  1  0.28478828  0.69155820  0.83657201  1
  Zn  Zn106  1  0.81493877  0.31501819  0.31150367  1
  Zn  Zn107  1  0.81193017  0.31370135  0.81709725  1
  Zn  Zn108  1  0.80784798  0.81036578  0.31773048  1
  Zn  Zn109  1  0.81418543  0.81514461  0.80289648  1
  Zn  Zn110  1  0.18901264  0.43653483  0.43503492  1
  Zn  Zn111  1  0.19542373  0.43182965  0.93462223  1
  Zn  Zn112  1  0.18571293  0.94280981  0.43975198  1
  Zn  Zn113  1  0.21156172  0.89261975  0.91709857  1
  Zn  Zn114  1  0.68908263  0.44091092  0.43489592  1
  Zn  Zn115  1  0.69015986  0.44126573  0.94927658  1
  Zn  Zn116  1  0.69389906  0.92570534  0.44569410  1
  Zn  Zn117  1  0.68356980  0.93782260  0.94268801  1
  Zn  Zn118  1  0.31584969  0.06414500  0.06091815  1
  Zn  Zn119  1  0.31332794  0.06211084  0.55825228  1
  Zn  Zn120  1  0.31192229  0.56834090  0.05608608  1
  Zn  Zn121  1  0.30878168  0.55660223  0.55619102  1
  Zn  Zn122  1  0.81405423  0.06334498  0.05769566  1
  Zn  Zn123  1  0.80699598  0.06086664  0.56732966  1
  Zn  Zn124  1  0.80070060  0.57551818  0.09593537  1
  Zn  Zn125  1  0.81376819  0.56203931  0.55940184  1
  Zn  Zn126  1  0.43643170  0.43242120  0.18457848  1
  Zn  Zn127  1  0.43431765  0.43879595  0.69116570  1
  Zn  Zn128  1  0.44109788  0.93812526  0.18838829  1
  Zn  Zn129  1  0.44037770  0.93012064  0.68158474  1
  Zn  Zn130  1  1.06026005  0.43120664  0.18722373  1
  Zn  Zn131  1  0.93799743  0.44144138  0.68930703  1
  Zn  Zn132  1  0.94223672  0.93303353  0.18038004  1
  Zn  Zn133  1  0.93316809  0.95781721  0.69446980  1
  Zn  Zn134  1  0.05852825  0.06712577  0.31506193  1
  Zn  Zn135  1  0.11991064  0.02082830  0.85600202  1
  Zn  Zn136  1  0.05999332  0.56658611  0.31090521  1
  Zn  Zn137  1  0.09976640  0.59242422  0.79222141  1
  Zn  Zn138  1  0.56191486  0.06470046  0.31532010  1
  Zn  Zn139  1  0.53343857  0.07506868  0.82090492  1
  Zn  Zn140  1  0.56954712  0.56503725  0.31440379  1
  Zn  Zn141  1  0.56174181  0.56559391  0.81244393  1
  Zn  Zn142  1  0.43589190  0.18436002  0.43706900  1
  Zn  Zn143  1  0.43531327  0.18621606  0.94090127  1
  Zn  Zn144  1  0.43937913  0.68745455  0.43820541  1
  Zn  Zn145  1  0.43964159  0.69049530  0.94408155  1
  Zn  Zn146  1  0.93807449  0.18779313  0.43439143  1
  Zn  Zn147  1  0.94243695  0.18263147  0.94631989  1
  Zn  Zn148  1  0.93924614  0.67882622  0.43448987  1
  Zn  Zn149  1  0.93509659  0.68562598  0.94932600  1
  Zn  Zn150  1  0.06302051  0.30103813  0.05806657  1
  Zn  Zn151  1  0.06108881  0.31263721  0.55619547  1
  Zn  Zn152  1  0.05879663  0.84298442  0.06638072  1
  Zn  Zn153  1  -0.05823269  0.82005943  0.56866850  1
  Zn  Zn154  1  0.55870403  0.31533253  0.06022224  1
  Zn  Zn155  1  0.56489661  0.31641134  0.56576421  1
  Zn  Zn156  1  0.56589063  0.81086399  0.06797336  1
  Zn  Zn157  1  0.56069302  0.80655573  0.57003962  1
  O  O158  1  0.11699641  0.11381811  0.11314821  1
  O  O159  1  0.11476298  0.12364039  0.61714840  1
  O  O160  1  0.11099445  0.63610583  0.12445656  1
  O  O161  1  0.11639670  0.61834574  0.61659730  1
  O  O162  1  0.61590740  0.11953145  0.12517624  1
  O  O163  1  0.61988779  0.12009337  0.61763350  1
  O  O164  1  0.60864251  0.63413786  0.11467989  1
  O  O165  1  0.61801428  0.61111907  0.63287047  1
  O  O166  1  0.38067883  0.38118346  0.38199346  1
  O  O167  1  0.37682778  0.36860176  0.88980252  1
  O  O168  1  0.36594392  0.89281311  0.38509037  1
  O  O169  1  0.39299527  0.87014412  0.89624096  1
  O  O170  1  0.88502858  0.38037959  0.37915326  1
  O  O171  1  0.88511495  0.38069335  0.88375690  1
  O  O172  1  0.87453769  0.89163248  0.37095949  1
  O  O173  1  0.86237890  0.87184175  0.88710917  1
  O  O174  1  0.25721588  0.01477293  0.37776815  1
  O  O175  1  0.24130395  -0.01935176  0.84314925  1
  O  O176  1  0.25691626  0.50473662  0.36602793  1
  O  O177  1  0.25469314  0.49204627  0.86414577  1
  O  O178  1  0.76112430  0.01028477  0.37923382  1
  O  O179  1  0.73791103  0.01972608  0.87673874  1
  O  O180  1  0.75922707  0.49683360  0.36568554  1
  O  O181  1  0.75976045  0.50446465  0.87515682  1
  O  O182  1  0.26012650  0.50471047  0.14190742  1
  O  O183  1  0.24021668  0.49218018  0.62380068  1
  O  O184  1  0.25840606  0.98940674  0.12671472  1
  O  O185  1  0.24300614  0.99704933  0.62665035  1
  O  O186  1  0.75423860  0.47844773  0.11552186  1
  O  O187  1  0.74346972  0.49489826  0.63115536  1
  O  O188  1  0.74025681  0.99387428  0.11864383  1
  O  O189  1  0.73189764  1.00090798  0.62995210  1
  O  O190  1  0.00295604  0.36193528  0.26483414  1
  O  O191  1  -0.00195044  0.36861075  0.75975309  1
  O  O192  1  0.01714770  0.86954327  0.25391787  1
  O  O193  1  -0.01162238  0.92847189  0.79944970  1
  O  O194  1  0.50682799  0.36696802  0.25642255  1
  O  O195  1  0.50861501  0.36668169  0.74261188  1
  O  O196  1  0.50571487  0.86320604  0.24865676  1
  O  O197  1  0.48968074  0.85816517  0.75963437  1
  O  O198  1  0.50498164  0.13828408  0.24266622  1
  O  O199  1  0.50656332  0.14547477  0.73142345  1
  O  O200  1  0.50525287  0.63023723  0.23738330  1
  O  O201  1  0.49740174  0.63686886  0.74710342  1
  O  O202  1  0.99769049  0.13699804  0.24766400  1
  O  O203  1  0.98250929  0.13542782  0.74201641  1
  O  O204  1  0.99945178  0.62605521  0.23363778  1
  O  O205  1  1.00069770  0.61870876  0.73365617  1
  O  O206  1  0.37275325  0.25869520  0.00571496  1
  O  O207  1  0.38232194  0.26303194  0.50562278  1
  O  O208  1  0.38219477  0.76187342  0.01947491  1
  O  O209  1  0.36369975  0.76426664  0.48597901  1
  O  O210  1  0.87014707  0.25632564  0.01097100  1
  O  O211  1  0.86343378  0.25966065  0.49278546  1
  O  O212  1  0.86340077  0.75679242  0.00629215  1
  O  O213  1  0.87687155  0.75260420  0.49755578  1
  O  O214  1  0.11557294  0.23907072  0.48453705  1
  O  O215  1  0.13367580  0.24935890  0.98229717  1
  O  O216  1  0.13964532  0.73814331  0.48396575  1
  O  O217  1  0.13413397  0.76535667  1.02082012  1
  O  O218  1  0.63471519  0.24385590  0.49640920  1
  O  O219  1  0.64173231  0.25277449  1.00974503  1
  O  O220  1  0.61938764  0.74564648  0.49304932  1
  O  O221  1  0.63103795  0.74154952  0.99525165  1
  O  O222  1  0.49327120  0.24408659  0.13118602  1
  O  O223  1  0.48983013  0.24815337  0.62580472  1
  O  O224  1  0.49677056  0.74408857  0.13764879  1
  O  O225  1  0.49744927  0.74140575  0.64345200  1
  O  O226  1  0.99072111  0.24971544  0.13696470  1
  O  O227  1  1.00697757  0.24607234  0.63589093  1
  O  O228  1  0.98990110  0.74934109  0.12384673  1
  O  O229  1  1.00156781  0.73443679  0.62214085  1
  O  O230  1  0.00495631  0.25173051  0.36216829  1
  O  O231  1  0.00843386  0.25533932  0.87132852  1
  O  O232  1  0.01069459  0.75027194  0.37416975  1
  O  O233  1  0.02876601  0.71856221  0.88170094  1
  O  O234  1  0.50329425  0.25288238  0.36875061  1
  O  O235  1  0.49760622  0.25348248  0.85765101  1
  O  O236  1  0.50505668  0.74491921  0.36246001  1
  O  O237  1  0.50640739  0.75165554  0.86444838  1
  O  O238  1  0.23610469  0.12373210  0.49666117  1
  O  O239  1  0.26417221  0.13809358  0.99141073  1
  O  O240  1  0.24528454  0.63207486  0.49053331  1
  O  O241  1  0.24344765  0.64676620  1.01100491  1
  O  O242  1  0.74343546  0.13294733  0.49812502  1
  O  O243  1  0.74829620  0.13497755  0.98826828  1
  O  O244  1  0.75802192  0.64213728  0.50273357  1
  O  O245  1  0.74295028  0.63372829  1.00097184  1
  O  O246  1  0.26318988  0.36365115  0.00378375  1
  O  O247  1  0.26248289  0.38038571  0.50713797  1
  O  O248  1  0.26419200  0.86816681  0.02291063  1
  O  O249  1  0.25503733  0.87018912  0.50170583  1
  O  O250  1  0.76001302  0.36255819  -0.00472660  1
  O  O251  1  0.75515533  0.36824686  0.50595130  1
  O  O252  1  0.75139418  0.86640578  0.00883524  1
  O  O253  1  0.75082798  0.85567246  0.51311498  1
  O  O254  1  0.13538186  0.49938357  0.25041923  1
  O  O255  1  0.12836307  0.49574743  0.73407753  1
  O  O256  1  0.12462931  0.98877599  0.26296288  1
  O  O257  1  0.12842250  1.00825789  0.73448181  1
  O  O258  1  0.62236092  0.48272953  0.25605375  1
  O  O259  1  0.63021005  0.49485950  0.74510233  1
  O  O260  1  0.61699514  0.99876492  0.23920445  1
  O  O261  1  0.61697924  1.01191266  0.74071946  1
  O  O262  1  0.37865078  -0.00261050  0.26445870  1
  O  O263  1  0.36799182  0.00009496  0.73982376  1
  O  O264  1  0.37218408  0.49450808  0.26331170  1
  O  O265  1  0.36864152  0.50469674  0.74900425  1
  O  O266  1  0.88230547  0.00060559  0.25877344  1
  O  O267  1  0.85686269  0.02770104  0.74579008  1
  O  O268  1  0.87387419  0.48855959  0.26110202  1
  O  O269  1  0.87336497  0.50427149  0.76510457  1
  O  O270  1  0.11243882  0.36523948  0.38501077  1
  O  O271  1  0.11150259  0.36945066  0.87500512  1
  O  O272  1  0.12929463  0.86840373  0.36708729  1
  O  O273  1  0.11404450  0.82556779  0.80172719  1
  O  O274  1  0.61811027  0.36748524  0.37420425  1
  O  O275  1  0.63219922  0.38332919  0.86339583  1
  O  O276  1  0.62955271  0.85800851  0.37757633  1
  O  O277  1  0.61503483  0.86059916  0.88449640  1
  O  O278  1  0.38624578  0.13655958  0.12179976  1
  O  O279  1  0.38460278  0.13530858  0.61383262  1
  O  O280  1  0.38946996  0.63635747  0.11967056  1
  O  O281  1  0.38018679  0.62144994  0.62221554  1
  O  O282  1  0.87910077  0.13611512  0.12183692  1
  O  O283  1  0.88312029  0.12951758  0.62564258  1
  O  O284  1  0.88977122  0.64478466  0.11318396  1
  O  O285  1  0.89186280  0.61143039  0.63325125  1
  O  O286  1  0.25797914  0.24522932  0.11566616  1
  O  O287  1  0.26218531  0.25518240  0.62824880  1
  O  O288  1  0.26203355  0.75713961  0.12504425  1
  O  O289  1  0.24135168  0.76441404  0.60994885  1
  O  O290  1  0.76238881  0.24183042  0.11516389  1
  O  O291  1  0.74355499  0.26155284  0.61642496  1
  O  O292  1  0.75707091  0.75706393  0.11810708  1
  O  O293  1  0.75299272  0.74691721  0.61412143  1
  O  O294  1  0.23958911  0.23944580  0.36747872  1
  O  O295  1  0.23625387  0.25507392  0.87461606  1
  O  O296  1  0.24776778  0.74174895  0.37580646  1
  O  O297  1  0.24318617  0.77715959  0.90515713  1
  O  O298  1  0.74806587  0.23847364  0.38279566  1
  O  O299  1  0.75532575  0.24275211  0.89104934  1
  O  O300  1  0.74396401  0.75104253  0.39206892  1
  O  O301  1  0.74449693  0.74356039  0.88523195  1
  O  O302  1  0.00558322  0.11441327  0.00475148  1
  O  O303  1  0.00498046  0.12158899  0.50458372  1
  O  O304  1  -0.00040963  0.60876722  0.00904553  1
  O  O305  1  0.01190349  0.62551875  0.51036890  1
  O  O306  1  0.50329726  0.11894962  0.01312016  1
  O  O307  1  0.51357283  0.13032914  0.50708355  1
  O  O308  1  0.50637620  0.61923578  0.00982468  1
  O  O309  1  0.49369166  0.61460909  0.51105685  1
  O  O310  1  0.49304625  0.38552132  0.49743540  1
  O  O311  1  0.48712495  0.38536574  1.00673366  1
  O  O312  1  0.48295746  0.87129493  0.50559969  1
  O  O313  1  0.49887647  0.88015396  1.00108767  1
  O  O314  1  0.98725517  0.36411305  0.48476417  1
  O  O315  1  0.99372346  0.38355107  0.99713012  1
  O  O316  1  1.00084193  0.89475244  0.49730249  1
  O  O317  1  0.98144254  0.86522601  0.99016934  1
  O  O318  1  0.49570519  0.49923169  0.38272496  1
  O  O319  1  0.49132620  0.51035034  0.88893041  1
  O  O320  1  0.48255096  1.01491934  0.38167322  1
  O  O321  1  0.51800440  0.98316897  0.88969627  1
  O  O322  1  0.99928372  0.48404088  0.36855105  1
  O  O323  1  0.99516926  0.49232569  0.88883360  1
  O  O324  1  0.98528577  1.00764383  0.38587561  1
  O  O325  1  0.99771484  0.98532256  0.84866129  1
  O  O326  1  0.01426342  -0.01279584  0.11579077  1
  O  O327  1  0.00335845  0.01385040  0.61573726  1
  O  O328  1  0.00579065  0.50981590  0.11609792  1
  O  O329  1  0.01293429  0.49765632  0.62046438  1
  O  O330  1  0.50638342  0.00797789  0.12165666  1
  O  O331  1  0.50644251  0.01209485  0.62081273  1
  O  O332  1  0.49119232  0.51339095  0.11860777  1
  O  O333  1  0.50504329  0.50688493  0.62028381  1
  O  O334  1  0.25152203  0.39003280  0.24918529  1
  O  O335  1  0.24547883  0.37279504  0.73098712  1
  O  O336  1  0.24335649  0.87422243  0.24368024  1
  O  O337  1  0.25355214  0.88465472  0.72373520  1
  O  O338  1  0.73208381  0.36855843  0.25373273  1
  O  O339  1  0.74571092  0.37838898  0.74468523  1
  O  O340  1  0.74896752  0.87036205  0.23609346  1
  O  O341  1  0.74200335  0.87230471  0.74229866  1
  O  O342  1  0.24780721  0.12418059  0.25879131  1
  O  O343  1  0.25578109  0.11044961  0.74242201  1
  O  O344  1  0.24707090  0.61451358  0.26074209  1
  O  O345  1  0.21090694  0.63541888  0.76821727  1
  O  O346  1  0.74475014  0.13060119  0.26445577  1
  O  O347  1  0.75684328  0.14419235  0.76723842  1
  O  O348  1  0.75685773  0.60393266  0.20430799  1
  O  O349  1  0.76209705  0.61623457  0.75768000  1
  O  O350  1  0.35964256  0.11957659  0.38012113  1
  O  O351  1  0.42345787  0.10709154  0.86445975  1
  O  O352  1  0.36561412  0.61457703  0.38260281  1
  O  O353  1  0.36137059  0.63234644  0.89325738  1
  O  O354  1  0.86270525  0.11797781  0.37632822  1
  O  O355  1  0.87069583  0.12866912  0.86829293  1
  O  O356  1  0.88824794  0.60290124  0.37183997  1
  O  O357  1  0.87434212  0.61570769  0.87411461  1
  O  O358  1  0.12452842  0.36869107  0.12125389  1
  O  O359  1  0.13290440  0.37991662  0.61588792  1
  O  O360  1  0.14083526  0.87659735  0.14217653  1
  O  O361  1  0.13747516  0.89254589  0.61331449  1
  O  O362  1  0.61777615  0.37286829  0.13889225  1
  O  O363  1  0.63574522  0.38632207  0.63225749  1
  O  O364  1  0.63401632  0.88400001  0.12625236  1
  O  O365  1  0.61034041  0.89479417  0.62428992  1
  O  O366  1  0.11332699  0.24358352  0.25623045  1
  O  O367  1  0.11544571  0.25355140  0.75971031  1
  O  O368  1  0.12832126  0.75372944  0.26269040  1
  O  O369  1  0.09746512  0.78372995  0.74346116  1
  O  O370  1  0.61394783  0.25876702  0.25564160  1
  O  O371  1  0.61235313  0.26217995  0.74352059  1
  O  O372  1  0.61563982  0.75443463  0.25448248  1
  O  O373  1  0.62967738  0.74026835  0.76340505  1
  O  O374  1  0.38499017  0.25838208  0.24241242  1
  O  O375  1  0.38536961  0.25156090  0.74102916  1
  O  O376  1  0.38957166  0.75467316  0.24511459  1
  O  O377  1  0.37528565  0.74306270  0.75754568  1
  O  O378  1  0.88210439  0.25264640  0.23856581  1
  O  O379  1  0.88463141  0.24574771  0.75625708  1
  O  O380  1  0.87487353  0.75703397  0.23572946  1
  O  O381  1  0.87769598  0.72879827  0.76063457  1
  O  O382  1  0.38354337  0.49086342  0.49086807  1
  O  O383  1  0.37692453  0.48636174  1.00227261  1
  O  O384  1  0.37680947  0.99078430  0.49228179  1
  O  O385  1  0.39127059  0.98944478  1.01130209  1
  O  O386  1  0.86773901  0.48633769  0.48761986  1
  O  O387  1  0.87957289  0.49256863  0.99241493  1
  O  O388  1  0.88555272  1.00674744  0.50051714  1
  O  O389  1  0.86969072  0.98399344  1.00123711  1
  O  O390  1  0.12602450  -0.03951923  -0.04654451  1
  O  O391  1  0.11269310  0.01192994  0.50404268  1
  O  O392  1  0.11629336  0.49644847  -0.00528765  1
  O  O393  1  0.13452471  0.51330304  0.50355810  1
  O  O394  1  0.61496526  0.00339793  0.01428142  1
  O  O395  1  0.62626271  0.01008109  0.50454295  1
  O  O396  1  0.61433346  0.51142659  -0.00294711  1
  O  O397  1  0.61407360  0.49322371  0.50955849  1
  O  O398  1  0.37172314  0.36158536  0.11787985  1
  O  O399  1  0.36875897  0.36900452  0.61709638  1
  O  O400  1  0.36889836  0.86966126  0.12755108  1
  O  O401  1  0.36038912  0.88264582  0.60618472  1
  O  O402  1  0.87987781  0.35987351  0.11741735  1
  O  O403  1  0.86189832  0.38528175  0.61786945  1
  O  O404  1  0.86804468  0.86520346  0.11486669  1
  O  O405  1  0.88388772  0.87345485  0.64579687  1
  O  O406  1  0.13539787  0.12957334  0.37903798  1
  O  O407  1  0.12258088  0.13628192  0.86657137  1
  O  O408  1  0.13244940  0.62915083  0.37896138  1
  O  O409  1  0.08710398  0.66777889  0.88432906  1
  O  O410  1  0.63613084  0.12794625  0.38332897  1
  O  O411  1  0.62982019  0.13313122  0.87608733  1
  O  O412  1  0.62654911  0.64483619  0.36841070  1
  O  O413  1  0.63166879  0.63102372  0.88556379  1
