# generated using pymatgen
data_V79Zn79O256
_symmetry_space_group_name_H-M   'P 1'
_cell_length_a   17.00683615
_cell_length_b   16.88471783
_cell_length_c   16.95896882
_cell_angle_alpha   89.96512430
_cell_angle_beta   89.67795370
_cell_angle_gamma   90.01685217
_symmetry_Int_Tables_number   1
_chemical_formula_structural   V79Zn79O256
_chemical_formula_sum   'V79 Zn79 O256'
_cell_volume   4869.78532530
_cell_formula_units_Z   1
loop_
 _symmetry_equiv_pos_site_id
 _symmetry_equiv_pos_as_xyz
  1  'x, y, z'
loop_
 _atom_site_type_symbol
 _atom_site_label
 _atom_site_symmetry_multiplicity
 _atom_site_fract_x
 _atom_site_fract_y
 _atom_site_fract_z
 _atom_site_occupancy
  V  V0  1  0.24570735  0.62708931  0.86928722  1
  V  V1  1  0.87012566  -0.00707964  0.37688354  1
  V  V2  1  0.24903270  0.37554437  0.12681353  1
  V  V3  1  0.00493433  0.74649114  0.24745882  1
  V  V4  1  0.87153864  0.87606250  0.00374416  1
  V  V5  1  0.12592985  0.62976899  -0.00154007  1
  V  V6  1  0.88106309  0.62099520  0.24085153  1
  V  V7  1  0.38059837  0.62137237  0.73919898  1
  V  V8  1  0.87284415  0.36788565  0.00895523  1
  V  V9  1  0.37083194  0.24214178  0.13174045  1
  V  V10  1  0.75137629  0.62597732  0.87394121  1
  V  V11  1  -0.00163668  0.74322351  0.73033221  1
  V  V12  1  0.25009966  0.50049327  0.25184318  1
  V  V13  1  0.00184928  0.36993206  0.37663589  1
  V  V14  1  0.11912587  0.12904017  0.00749962  1
  V  V15  1  0.75197467  0.75056507  0.00020088  1
  V  V16  1  0.74987998  0.62678848  0.36962617  1
  V  V17  1  0.12249709  0.88780613  0.74845242  1
  V  V18  1  0.37224106  0.36654813  0.50017793  1
  V  V19  1  0.25158425  0.75322689  0.50124365  1
  V  V20  1  0.37922256  0.50027755  0.38351677  1
  V  V21  1  0.61192956  0.62240950  0.50077484  1
  V  V22  1  0.12150251  0.75089660  0.87155232  1
  V  V23  1  0.24127774  0.49431593  0.74760847  1
  V  V24  1  0.00421551  0.37751174  0.86309900  1
  V  V25  1  0.12993635  0.25131734  0.86747171  1
  V  V26  1  0.38601624  0.24423056  0.63821483  1
  V  V27  1  0.87500900  0.25468096  0.62922792  1
  V  V28  1  0.87675060  0.12313789  0.24266549  1
  V  V29  1  0.12444675  0.49698460  0.62382171  1
  V  V30  1  0.63013850  0.36772059  0.24715688  1
  V  V31  1  0.63442666  0.24756434  0.88909485  1
  V  V32  1  -0.00072577  0.24339363  0.23690251  1
  V  V33  1  0.74772767  0.37345285  0.62221029  1
  V  V34  1  0.50093691  0.37821417  0.38098919  1
  V  V35  1  0.24957027  0.24502237  0.00055882  1
  V  V36  1  0.75248266  0.49510613  0.24049454  1
  V  V37  1  0.24767208  0.36769470  0.62009575  1
  V  V38  1  0.61614870  0.61972573  0.00610628  1
  V  V39  1  0.75738340  0.74273287  0.51573967  1
  V  V40  1  0.86464376  0.12734450  0.75714640  1
  V  V41  1  0.51388897  0.75516936  0.24262385  1
  V  V42  1  0.12505572  0.63134881  0.50088154  1
  V  V43  1  0.51109333  0.12063788  0.11828290  1
  V  V44  1  0.26904349  0.11852817  0.38112175  1
  V  V45  1  0.01092458  0.86983115  0.37390489  1
  V  V46  1  0.38595007  0.62472159  0.24649492  1
  V  V47  1  0.62538884  0.89450283  0.75834745  1
  V  V48  1  0.37486912  0.38576021  0.00128059  1
  V  V49  1  0.87426718  0.50107158  0.87037962  1
  V  V50  1  0.26495129  0.00732387  0.76714287  1
  V  V51  1  0.75427036  0.12921282  0.38239604  1
  V  V52  1  0.75188908  0.89960716  0.63469195  1
  V  V53  1  0.86914370  0.37023611  0.49919017  1
  V  V54  1  0.00132529  0.50564224  0.49909193  1
  V  V55  1  0.36951659  0.75281193  0.11733719  1
  V  V56  1  0.88111412  0.74680013  0.12068140  1
  V  V57  1  0.38407492  0.75122892  0.62132682  1
  V  V58  1  -0.00116508  0.50586478  0.00053830  1
  V  V59  1  0.48020543  -0.00978868  0.50655719  1
  V  V60  1  0.74283764  0.50335685  0.74777100  1
  V  V61  1  0.00043470  0.00377647  0.00237889  1
  V  V62  1  0.49487039  0.24445645  0.25341432  1
  V  V63  1  0.12492629  0.37342767  0.25077748  1
  V  V64  1  0.61523184  0.50221631  0.12222019  1
  V  V65  1  0.24918103  0.63140461  0.37607847  1
  V  V66  1  0.60878815  0.49916416  0.62020538  1
  V  V67  1  0.87514364  0.49689568  0.37150101  1
  V  V68  1  0.63171994  0.25132695  0.38380790  1
  V  V69  1  0.13545698  -0.00692241  0.12567549  1
  V  V70  1  0.25533452  0.88375606  0.62318969  1
  V  V71  1  0.49848301  -0.00752900  -0.02547530  1
  V  V72  1  0.12103247  0.50576788  0.12482944  1
  V  V73  1  0.49884557  0.38348433  0.87709427  1
  V  V74  1  0.61652043  0.37009519  0.75105265  1
  V  V75  1  0.85823182  0.00560899  0.87411429  1
  V  V76  1  0.62227031  0.11791888  0.51145807  1
  V  V77  1  0.00790687  0.11829953  0.62561942  1
  V  V78  1  0.12706535  0.23511674  0.38787463  1
  Zn  Zn79  1  0.01420862  0.01127990  0.49748262  1
  Zn  Zn80  1  0.84479259  0.67046508  0.69190855  1
  Zn  Zn81  1  0.50670656  0.88495283  0.37316853  1
  Zn  Zn82  1  0.00532189  0.25349716  0.74902863  1
  Zn  Zn83  1  0.50135323  0.76409053  0.75655313  1
  Zn  Zn84  1  0.70969153  0.31039906  0.06610573  1
  Zn  Zn85  1  0.87997472  0.87096001  0.51297139  1
  Zn  Zn86  1  0.36494736  0.88670513  -0.01456044  1
  Zn  Zn87  1  0.37450598  0.50567485  0.87832242  1
  Zn  Zn88  1  0.61814198  0.76024529  0.87638214  1
  Zn  Zn89  1  0.67427805  -0.07376806  0.28058312  1
  Zn  Zn90  1  0.62591399  0.75743108  0.37468951  1
  Zn  Zn91  1  0.13289170  0.86440813  0.24122387  1
  Zn  Zn92  1  -0.00443760  0.87855859  0.86992376  1
  Zn  Zn93  1  0.26513530  -0.00397439  0.25752958  1
  Zn  Zn94  1  0.18943379  0.17761806  0.19607660  1
  Zn  Zn95  1  0.19429614  0.18246000  0.68445573  1
  Zn  Zn96  1  0.19147776  0.68442632  0.18652232  1
  Zn  Zn97  1  0.18516615  0.68936794  0.68418707  1
  Zn  Zn98  1  0.69085309  0.08175046  0.18755359  1
  Zn  Zn99  1  0.68433706  0.18901794  0.69602484  1
  Zn  Zn100  1  0.68993765  0.79307677  0.17781474  1
  Zn  Zn101  1  0.66771716  0.68603341  0.68763039  1
  Zn  Zn102  1  0.30835648  0.30784468  0.31733808  1
  Zn  Zn103  1  0.31207718  0.31511816  0.81428081  1
  Zn  Zn104  1  0.31170873  0.81422132  0.30226483  1
  Zn  Zn105  1  0.30792306  0.81774751  0.80906681  1
  Zn  Zn106  1  0.81410181  0.30772559  0.30767603  1
  Zn  Zn107  1  0.81197020  0.31843551  0.81439284  1
  Zn  Zn108  1  0.81680268  0.80596657  0.31298669  1
  Zn  Zn109  1  0.81054576  0.81718536  0.81133797  1
  Zn  Zn110  1  0.18882691  0.43656773  0.43735950  1
  Zn  Zn111  1  0.18786803  0.43639868  0.93771822  1
  Zn  Zn112  1  0.18725626  0.94900471  0.44463773  1
  Zn  Zn113  1  0.19079588  0.93719029  0.93903924  1
  Zn  Zn114  1  0.68667509  0.44134690  0.43553792  1
  Zn  Zn115  1  0.68861509  0.43730003  0.93515851  1
  Zn  Zn116  1  0.68707902  0.93197192  0.45233456  1
  Zn  Zn117  1  0.67053455  0.94820765  1.06234774  1
  Zn  Zn118  1  0.31520107  0.06019232  0.05609559  1
  Zn  Zn119  1  0.30914797  0.07015409  0.55858737  1
  Zn  Zn120  1  0.30835536  0.57282062  0.06122126  1
  Zn  Zn121  1  0.31120532  0.56095597  0.56178272  1
  Zn  Zn122  1  0.81872467  0.06689973  0.05830399  1
  Zn  Zn123  1  0.82261181  0.06812601  0.55852687  1
  Zn  Zn124  1  0.81131394  0.56124710  0.06083014  1
  Zn  Zn125  1  0.80388628  0.55714957  0.55440005  1
  Zn  Zn126  1  0.43545694  0.43267123  0.19302327  1
  Zn  Zn127  1  0.43194854  0.43295680  0.69084582  1
  Zn  Zn128  1  0.44802306  0.92760367  0.17624340  1
  Zn  Zn129  1  0.44770493  0.95175649  0.69305840  1
  Zn  Zn130  1  0.94144216  0.43317763  0.18597465  1
  Zn  Zn131  1  0.91789529  0.48469747  0.66740333  1
  Zn  Zn132  1  0.93677360  0.93668864  0.18807924  1
  Zn  Zn133  1  0.93260043  0.93792407  0.69065299  1
  Zn  Zn134  1  0.05937204  0.05771990  0.30976796  1
  Zn  Zn135  1  0.05666277  0.07061157  0.81660906  1
  Zn  Zn136  1  0.06458726  0.56460131  0.31617657  1
  Zn  Zn137  1  0.05774239  0.56570457  0.80696928  1
  Zn  Zn138  1  0.55409139  0.06647039  0.32392926  1
  Zn  Zn139  1  0.63868052  0.03126754  0.87724647  1
  Zn  Zn140  1  0.56771477  0.56051242  0.31155329  1
  Zn  Zn141  1  0.53607507  0.59500662  0.84650309  1
  Zn  Zn142  1  0.44380538  0.18475634  0.44621460  1
  Zn  Zn143  1  0.45362230  0.20291348  0.94809139  1
  Zn  Zn144  1  0.43657093  0.69763954  0.43004838  1
  Zn  Zn145  1  0.41678691  0.72449805  0.91788177  1
  Zn  Zn146  1  0.93914880  0.18601993  0.43898512  1
  Zn  Zn147  1  0.94264375  0.18943805  0.93638458  1
  Zn  Zn148  1  0.93732101  0.68810340  0.43356099  1
  Zn  Zn149  1  0.93967760  0.68862298  0.92738969  1
  Zn  Zn150  1  0.06088389  0.31978792  0.05695050  1
  Zn  Zn151  1  0.05978830  0.31309208  0.56493181  1
  Zn  Zn152  1  0.05881239  0.81582086  0.05795116  1
  Zn  Zn153  1  0.07441183  0.83755473  0.55355453  1
  Zn  Zn154  1  0.54801941  0.31681609  0.06524622  1
  Zn  Zn155  1  0.55928814  0.31083752  0.56432156  1
  Zn  Zn156  1  0.54777402  0.80721029  0.05542883  1
  Zn  Zn157  1  0.56952431  0.82358978  0.56648930  1
  O  O158  1  0.12668772  0.11719947  0.11353095  1
  O  O159  1  0.10584782  0.13378006  0.63158022  1
  O  O160  1  0.13335234  0.61492149  0.11285738  1
  O  O161  1  0.13251654  0.61296905  0.60893569  1
  O  O162  1  0.60823239  0.13732863  0.12554612  1
  O  O163  1  0.63693033  0.14272742  0.60722404  1
  O  O164  1  0.62385875  0.60792533  0.11588014  1
  O  O165  1  0.62387860  0.61456595  0.60954860  1
  O  O166  1  0.37944701  0.37970598  0.38095129  1
  O  O167  1  0.37961273  0.37773616  0.88418061  1
  O  O168  1  0.38774844  0.90295962  0.33090256  1
  O  O169  1  0.38250756  0.82911363  0.88717179  1
  O  O170  1  0.88225507  0.37510116  0.37986904  1
  O  O171  1  0.88349822  0.38563736  0.88348853  1
  O  O172  1  0.87704986  0.88702346  0.37161684  1
  O  O173  1  0.87258981  0.89231371  0.87909116  1
  O  O174  1  0.24899220  0.01147733  0.37772122  1
  O  O175  1  0.24740963  0.00473983  0.86604618  1
  O  O176  1  0.25942594  0.50771414  0.37160260  1
  O  O177  1  0.24473906  0.50748124  0.86344190  1
  O  O178  1  0.76585021  0.00496972  0.37973798  1
  O  O179  1  0.76155585  0.01247386  0.88435098  1
  O  O180  1  0.75565666  0.50517815  0.36474417  1
  O  O181  1  0.75619758  0.50505786  0.86657876  1
  O  O182  1  0.23998675  0.49651395  0.13150951  1
  O  O183  1  0.24227931  0.49236004  0.62808610  1
  O  O184  1  0.23735933  1.00608937  0.12534259  1
  O  O185  1  0.25959855  0.98479940  0.62816846  1
  O  O186  1  0.74437273  0.50180846  0.13693338  1
  O  O187  1  0.73920017  0.48930949  0.62971895  1
  O  O188  1  0.74406717  1.01068395  0.11638236  1
  O  O189  1  0.75425858  0.99837455  0.62216095  1
  O  O190  1  0.00313768  0.36515911  0.25905143  1
  O  O191  1  -0.00336113  0.37792063  0.76315203  1
  O  O192  1  0.00061367  0.86455393  0.25624590  1
  O  O193  1  0.01299661  0.87304116  0.74831704  1
  O  O194  1  0.50982865  0.36751289  0.25881312  1
  O  O195  1  0.50882090  0.38252715  0.75974014  1
  O  O196  1  0.51365801  0.85796718  0.24281877  1
  O  O197  1  0.52019802  0.87897917  0.74079466  1
  O  O198  1  0.50037126  0.14148240  0.24627015  1
  O  O199  1  0.43717587  0.12526929  0.79700457  1
  O  O200  1  0.48835189  0.62654468  0.25901488  1
  O  O201  1  0.47883813  0.60983412  0.74319548  1
  O  O202  1  0.99376764  0.13821184  0.25487003  1
  O  O203  1  0.98894999  0.13160565  0.74185362  1
  O  O204  1  0.98845785  0.62905527  0.25922265  1
  O  O205  1  1.00426155  0.64145134  0.74035557  1
  O  O206  1  0.36598892  0.25938385  0.00992809  1
  O  O207  1  0.37903807  0.26341377  0.50748269  1
  O  O208  1  0.37972893  0.71574227  0.02374111  1
  O  O209  1  0.36663796  0.74187080  0.51344544  1
  O  O210  1  0.88710417  0.26941154  -0.00567024  1
  O  O211  1  0.88098368  0.26369633  0.51091871  1
  O  O212  1  0.87454613  0.75517506  0.00062678  1
  O  O213  1  0.85851566  0.74501829  0.49553162  1
  O  O214  1  0.11908209  0.25535803  0.48527659  1
  O  O215  1  0.13139164  0.24665523  0.99967554  1
  O  O216  1  0.13895217  0.74194491  0.50591916  1
  O  O217  1  0.11191209  0.73866692  0.98726759  1
  O  O218  1  0.61838872  0.24664017  0.48738253  1
  O  O219  1  0.62618926  0.26966111  0.99397199  1
  O  O220  1  0.63845374  0.73579776  0.50226773  1
  O  O221  1  0.63420663  0.73277845  0.99774451  1
  O  O222  1  0.48884984  0.24412525  0.13274491  1
  O  O223  1  0.48588713  0.25526470  0.62796980  1
  O  O224  1  0.48921172  0.74124094  0.13866078  1
  O  O225  1  0.48482677  0.75681000  0.62223215  1
  O  O226  1  1.00704558  0.25579463  0.13894538  1
  O  O227  1  0.98821090  0.24978417  0.63031141  1
  O  O228  1  0.98853389  0.75188907  0.12949754  1
  O  O229  1  1.00975488  0.76467902  0.63336167  1
  O  O230  1  0.00679021  0.25819889  0.37152486  1
  O  O231  1  0.01321490  0.26014470  0.87384021  1
  O  O232  1  -0.01120955  0.75862168  0.35742118  1
  O  O233  1  0.00859761  0.75435426  0.86090613  1
  O  O234  1  0.50672945  0.25844065  0.37010413  1
  O  O235  1  0.51517854  0.27264809  0.88221519  1
  O  O236  1  0.50167377  0.75851509  0.35919084  1
  O  O237  1  0.51297182  0.71086178  0.86151628  1
  O  O238  1  0.24512173  0.12403386  0.48110269  1
  O  O239  1  0.24262619  0.13998608  1.00287640  1
  O  O240  1  0.24483663  0.63111235  0.49342362  1
  O  O241  1  0.23553503  0.61939440  0.98357303  1
  O  O242  1  0.74935652  0.12669090  0.48776900  1
  O  O243  1  0.77109387  0.17106412  1.02734172  1
  O  O244  1  0.74473372  0.62897838  0.48847234  1
  O  O245  1  0.75113916  0.63184736  0.99200592  1
  O  O246  1  0.25375012  0.36614547  0.00767471  1
  O  O247  1  0.26108433  0.38114712  0.50726846  1
  O  O248  1  0.25496981  0.86580773  -0.00838901  1
  O  O249  1  0.24816544  0.86660415  0.51591815  1
  O  O250  1  0.76779186  0.38231432  -0.00071770  1
  O  O251  1  0.75950763  0.38414968  0.50760822  1
  O  O252  1  0.76349740  0.86020413  -0.00507612  1
  O  O253  1  0.75076804  0.85671163  0.51840719  1
  O  O254  1  0.12813069  0.49711165  0.24374948  1
  O  O255  1  0.12917193  0.50740072  0.73466321  1
  O  O256  1  0.11366256  1.00090268  0.22714143  1
  O  O257  1  0.12703523  0.98930795  0.75718970  1
  O  O258  1  0.63258015  0.49053118  0.24053188  1
  O  O259  1  0.63464348  0.49343514  0.73861223  1
  O  O260  1  0.62431833  1.01794463  0.25279294  1
  O  O261  1  0.63098983  0.99519784  0.76478494  1
  O  O262  1  0.38484571  -0.03754812  0.27269569  1
  O  O263  1  0.36345479  -0.01018084  0.75577002  1
  O  O264  1  0.37070466  0.50618966  0.26080115  1
  O  O265  1  0.35971883  0.50949196  0.74615058  1
  O  O266  1  0.88976555  0.01298825  0.26581297  1
  O  O267  1  0.87708888  0.01235664  0.76591463  1
  O  O268  1  0.87192536  0.50048532  0.25140644  1
  O  O269  1  0.85799798  0.48978638  0.76269349  1
  O  O270  1  0.11820054  0.36920696  0.37028890  1
  O  O271  1  0.11625124  0.36371567  0.88395724  1
  O  O272  1  0.11022427  0.87224476  0.36971925  1
  O  O273  1  0.12596022  0.86643833  0.86159102  1
  O  O274  1  0.61925515  0.37296119  0.37002529  1
  O  O275  1  0.61742001  0.38090625  0.86644197  1
  O  O276  1  0.62959684  0.87360799  0.37515753  1
  O  O277  1  0.63612986  0.87368230  0.85810035  1
  O  O278  1  0.37486362  0.14020536  0.12463447  1
  O  O279  1  0.36602181  0.14691905  0.61956301  1
  O  O280  1  0.37258592  0.61703467  0.14556210  1
  O  O281  1  0.36657045  0.63370035  0.63237076  1
  O  O282  1  0.88038431  0.11606848  0.14509613  1
  O  O283  1  0.87850130  0.13741181  0.63681875  1
  O  O284  1  0.87667124  0.62757159  0.13310425  1
  O  O285  1  0.88014503  0.58812168  0.62805788  1
  O  O286  1  0.25300476  0.25512203  0.12323261  1
  O  O287  1  0.25252280  0.26485648  0.62897003  1
  O  O288  1  0.27022166  0.74441928  0.13564742  1
  O  O289  1  0.25804824  0.75437057  0.61800577  1
  O  O290  1  0.75781870  0.20882180  0.09529257  1
  O  O291  1  0.76231737  0.26568756  0.63417447  1
  O  O292  1  0.76920488  0.74035463  0.10869735  1
  O  O293  1  0.75755708  0.72761327  0.61740769  1
  O  O294  1  0.23290671  0.23684672  0.36792848  1
  O  O295  1  0.23720233  0.26084653  0.88643363  1
  O  O296  1  0.26596170  0.74132626  0.38688352  1
  O  O297  1  0.23195293  0.73597077  0.85761457  1
  O  O298  1  0.74162718  0.24461397  0.37160331  1
  O  O299  1  0.73358892  0.26503357  0.87654811  1
  O  O300  1  0.74931361  0.73693672  0.38204845  1
  O  O301  1  0.75364236  0.73929803  0.88167485  1
  O  O302  1  0.00852361  0.11871436  -0.00148112  1
  O  O303  1  -0.00778921  0.12562213  0.51930458  1
  O  O304  1  0.00849882  0.61318927  -0.00965174  1
  O  O305  1  0.01061808  0.61430502  0.48473064  1
  O  O306  1  0.49445038  0.11874999  0.01284708  1
  O  O307  1  0.51673953  0.11598940  0.50018305  1
  O  O308  1  0.52118901  0.61768528  -0.00622340  1
  O  O309  1  0.51497196  0.63209163  0.48845895  1
  O  O310  1  0.49221122  0.37370144  0.48663557  1
  O  O311  1  0.48232855  0.37810516  0.99621365  1
  O  O312  1  0.50219868  0.88375655  0.49734417  1
  O  O313  1  0.49317009  0.88694104  0.99390245  1
  O  O314  1  0.99239021  0.38250082  0.49047209  1
  O  O315  1  0.99364746  0.38994396  0.99089471  1
  O  O316  1  0.98761207  0.85028595  0.47629907  1
  O  O317  1  0.98716091  0.88139201  0.99110608  1
  O  O318  1  0.49101491  0.48847553  0.36538995  1
  O  O319  1  0.49292928  0.49145514  0.87530060  1
  O  O320  1  0.50479444  1.00099406  0.39837523  1
  O  O321  1  0.49892184  1.00301705  0.87793002  1
  O  O322  1  0.99742416  0.48829369  0.37924934  1
  O  O323  1  0.99341220  0.49787833  0.87810703  1
  O  O324  1  0.99535731  0.98396646  0.37598724  1
  O  O325  1  0.99536784  1.00026339  0.88692089  1
  O  O326  1  0.00368533  -0.00636765  0.10716799  1
  O  O327  1  -0.00877582  0.01609907  0.62910408  1
  O  O328  1  0.01270441  0.49581450  0.11624692  1
  O  O329  1  0.01268068  0.48853860  0.60661844  1
  O  O330  1  0.49517137  0.02113472  0.13363590  1
  O  O331  1  0.50087483  -0.00034352  0.60678890  1
  O  O332  1  0.51729837  0.48839911  0.13170135  1
  O  O333  1  0.51064280  0.48873014  0.62487784  1
  O  O334  1  0.24405909  0.38057241  0.24769017  1
  O  O335  1  0.25264012  0.38844742  0.74011484  1
  O  O336  1  0.24058687  0.88401308  0.25540312  1
  O  O337  1  0.24152424  0.88569009  0.74559107  1
  O  O338  1  0.74168080  0.38177579  0.25571944  1
  O  O339  1  0.74011753  0.38442783  0.74182160  1
  O  O340  1  0.75361351  0.86111322  0.24146889  1
  O  O341  1  0.74610256  0.87907663  0.73967983  1
  O  O342  1  0.24679001  0.11353138  0.26802829  1
  O  O343  1  0.24873798  0.10383271  0.74080023  1
  O  O344  1  0.25897437  0.62099384  0.26115725  1
  O  O345  1  0.24988067  0.61482699  0.75177726  1
  O  O346  1  0.77111105  0.12749772  0.26458433  1
  O  O347  1  0.76589216  0.13001009  0.75001274  1
  O  O348  1  0.76500663  0.61255286  0.25855034  1
  O  O349  1  0.74709722  0.61839712  0.75560706  1
  O  O350  1  0.36803472  0.13428931  0.37830434  1
  O  O351  1  0.39286905  0.13836410  0.85409638  1
  O  O352  1  0.36878931  0.61787012  0.36941037  1
  O  O353  1  0.36002113  0.62676913  0.85762569  1
  O  O354  1  0.87304471  0.11650885  0.37457182  1
  O  O355  1  0.87999597  0.11988217  0.86691433  1
  O  O356  1  0.86824249  0.61641802  0.36683358  1
  O  O357  1  0.86529978  0.61295116  0.87744908  1
  O  O358  1  0.12975407  0.38504782  0.13016045  1
  O  O359  1  0.13478844  0.38623418  0.61372668  1
  O  O360  1  0.12314663  0.88863597  0.11828028  1
  O  O361  1  0.14463984  0.86690468  0.64469645  1
  O  O362  1  0.63095708  0.37446537  0.13232748  1
  O  O363  1  0.63024139  0.37749900  0.62886481  1
  O  O364  1  0.62686550  0.85971101  0.11318189  1
  O  O365  1  0.64608650  0.87370736  0.63500053  1
  O  O366  1  0.11239198  0.25239546  0.25913598  1
  O  O367  1  0.13035192  0.24676958  0.76588818  1
  O  O368  1  0.10920637  0.74434933  0.23797172  1
  O  O369  1  0.11507613  0.75598254  0.75361218  1
  O  O370  1  0.61617316  0.26106372  0.26313554  1
  O  O371  1  0.62806947  0.26557404  0.76064449  1
  O  O372  1  0.61418026  0.73305618  0.24836660  1
  O  O373  1  0.62060488  0.75818705  0.75438294  1
  O  O374  1  0.38398648  0.26407556  0.24192215  1
  O  O375  1  0.37025371  0.25832616  0.73739465  1
  O  O376  1  0.38393211  0.73633240  0.24559269  1
  O  O377  1  0.37591959  0.73576272  0.73768687  1
  O  O378  1  0.89020808  0.24034041  0.25417089  1
  O  O379  1  0.87694004  0.24486125  0.74738605  1
  O  O380  1  0.88246451  0.73887893  0.23861288  1
  O  O381  1  0.89120113  0.75547671  0.75094904  1
  O  O382  1  0.37335064  0.49396482  0.48855764  1
  O  O383  1  0.35800111  0.48959190  0.99855527  1
  O  O384  1  0.38102231  0.99808161  0.50387390  1
  O  O385  1  0.39006485  1.00142253  0.99937550  1
  O  O386  1  0.88332817  0.48976005  0.49023190  1
  O  O387  1  0.88281089  0.49630248  0.99150905  1
  O  O388  1  0.88538337  0.99610803  0.48646993  1
  O  O389  1  0.88064088  0.99789407  0.98975275  1
  O  O390  1  0.11980696  0.00852588  0.00536112  1
  O  O391  1  0.10408594  -0.05097121  0.51714291  1
  O  O392  1  0.11812559  0.50634953  0.00536757  1
  O  O393  1  0.11925671  0.50756591  0.50188642  1
  O  O394  1  0.60654921  0.00395057  -0.01297497  1
  O  O395  1  0.63582314  0.01742488  0.50597958  1
  O  O396  1  0.63563088  0.50308464  0.01509909  1
  O  O397  1  0.62808099  0.51229087  0.50506308  1
  O  O398  1  0.36786969  0.37033771  0.11995579  1
  O  O399  1  0.36683857  0.37091338  0.61702811  1
  O  O400  1  0.38313768  0.85560159  0.11158967  1
  O  O401  1  0.36152100  0.85815063  0.63773870  1
  O  O402  1  0.88093966  0.37796874  0.10936736  1
  O  O403  1  0.86701627  0.37673506  0.61769771  1
  O  O404  1  0.87920888  0.86553175  0.11192164  1
  O  O405  1  0.85883462  0.87822178  0.62719568  1
  O  O406  1  0.11106675  0.13501141  0.37918049  1
  O  O407  1  0.11936421  0.14415293  0.88817777  1
  O  O408  1  0.14028152  0.62062006  0.38435625  1
  O  O409  1  0.12695214  0.62966842  0.87851041  1
  O  O410  1  0.63637867  0.13511045  0.38603373  1
  O  O411  1  0.62426703  0.14879831  0.87890246  1
  O  O412  1  0.63524048  0.62114769  0.38388035  1
  O  O413  1  0.64356812  0.61039621  0.89135426  1
