# generated using pymatgen
data_V79Zn79O256
_symmetry_space_group_name_H-M   'P 1'
_cell_length_a   16.86866715
_cell_length_b   16.85919456
_cell_length_c   16.87647996
_cell_angle_alpha   90.00502498
_cell_angle_beta   90.00899017
_cell_angle_gamma   90.00168200
_symmetry_Int_Tables_number   1
_chemical_formula_structural   V79Zn79O256
_chemical_formula_sum   'V79 Zn79 O256'
_cell_volume   4799.53819439
_cell_formula_units_Z   1
loop_
 _symmetry_equiv_pos_site_id
 _symmetry_equiv_pos_as_xyz
  1  'x, y, z'
loop_
 _atom_site_type_symbol
 _atom_site_label
 _atom_site_symmetry_multiplicity
 _atom_site_fract_x
 _atom_site_fract_y
 _atom_site_fract_z
 _atom_site_occupancy
  V  V0  1  0.75150053  0.62080389  0.87329592  1
  V  V1  1  -0.00214326  0.63292410  0.12843838  1
  V  V2  1  0.11785934  0.50213776  0.63102595  1
  V  V3  1  0.62752256  0.61846460  0.50598375  1
  V  V4  1  0.49537806  0.87165201  0.87767596  1
  V  V5  1  0.25406280  0.76231750  0.00553365  1
  V  V6  1  0.13664922  0.24685648  0.39416264  1
  V  V7  1  0.62341505  0.74727729  0.36817772  1
  V  V8  1  0.38786736  0.62848139  0.24217875  1
  V  V9  1  0.49910273  0.12994663  0.62785362  1
  V  V10  1  0.49294399  0.62321338  0.62543797  1
  V  V11  1  -0.01185097  0.88961507  0.88457591  1
  V  V12  1  0.87289232  0.76733584  0.12141239  1
  V  V13  1  0.47772838  0.48969677  -0.00379846  1
  V  V14  1  0.24998877  0.50053758  0.25036007  1
  V  V15  1  0.87502281  0.49638927  0.38176692  1
  V  V16  1  0.37424198  0.00103023  0.37456202  1
  V  V17  1  0.12527089  0.75604901  0.37084154  1
  V  V18  1  0.12232929  0.62848273  0.00093057  1
  V  V19  1  0.49893674  0.26008196  0.26201331  1
  V  V20  1  0.37164444  0.37096638  0.49817496  1
  V  V21  1  0.50408195  0.49485318  0.50394891  1
  V  V22  1  0.25192744  0.37357537  0.12098226  1
  V  V23  1  0.37241312  0.12524389  0.25375525  1
  V  V24  1  0.00239337  0.76848559  0.24880458  1
  V  V25  1  -0.00320713  0.48719607  -0.00143563  1
  V  V26  1  0.86055713  0.11948937  0.25794261  1
  V  V27  1  0.50100024  -0.00311943  0.50189588  1
  V  V28  1  0.48840169  0.36671883  0.86428236  1
  V  V29  1  0.12092301  0.49901110  0.12698098  1
  V  V30  1  0.62693231  0.60836088  0.01057297  1
  V  V31  1  -0.00411788  0.88476486  0.39097657  1
  V  V32  1  0.49916162  0.86299124  0.36810097  1
  V  V33  1  0.12955233  0.88861879  0.74700873  1
  V  V34  1  0.75128134  0.62230038  0.36705964  1
  V  V35  1  0.11686334  -0.00566698  0.13489372  1
  V  V36  1  0.12096998  0.37219224  0.25374597  1
  V  V37  1  0.49719237  0.00399015  -0.00244860  1
  V  V38  1  0.10312425  0.24885638  0.87205689  1
  V  V39  1  0.12407688  0.75421829  0.87597781  1
  V  V40  1  0.37165260  0.12443853  0.74706876  1
  V  V41  1  0.88075416  0.48876628  0.87456589  1
  V  V42  1  0.87266413  0.62514017  0.75194353  1
  V  V43  1  0.13849392  0.10851645  0.50137644  1
  V  V44  1  0.00016649  0.11220701  0.60681721  1
  V  V45  1  0.25267452  0.25143685  -0.00289943  1
  V  V46  1  0.85839242  0.00081444  0.38913901  1
  V  V47  1  0.25284396  0.74693222  0.51119833  1
  V  V48  1  0.76626662  0.25691169  0.50793153  1
  V  V49  1  0.75387395  0.76025693  0.00082439  1
  V  V50  1  0.73576343  0.14044504  0.86812749  1
  V  V51  1  0.26591337  0.87887727  0.13473377  1
  V  V52  1  0.35989383  0.24574901  0.62019624  1
  V  V53  1  0.36771576  -0.00596599  0.87098115  1
  V  V54  1  0.25017168  0.62511991  0.37514830  1
  V  V55  1  0.00056464  0.75171490  0.74963384  1
  V  V56  1  0.24829732  0.88485280  0.63012799  1
  V  V57  1  -0.00214940  0.12678389  0.13220719  1
  V  V58  1  0.49408226  0.75048914  0.74518797  1
  V  V59  1  0.24726238  0.12168273  0.86774626  1
  V  V60  1  0.25832638  0.61629500  0.87566105  1
  V  V61  1  0.75266671  -0.00482503  0.75739260  1
  V  V62  1  0.00299149  0.37988036  0.39807713  1
  V  V63  1  0.24989065  0.38679525  0.63411047  1
  V  V64  1  0.87306876  0.75644320  0.62126636  1
  V  V65  1  0.38140349  0.49465364  0.37461172  1
  V  V66  1  0.37696082  0.86555901  0.51102282  1
  V  V67  1  0.12227177  0.11979162  0.00538989  1
  V  V68  1  0.75786679  0.25849944  0.00828901  1
  V  V69  1  0.12158804  0.62025117  0.50001611  1
  V  V70  1  -0.00286360  0.24920692  0.25367796  1
  V  V71  1  0.64105795  0.39397984  0.75583413  1
  V  V72  1  0.74986303  0.87570294  0.61964539  1
  V  V73  1  0.88286323  0.13079747  0.75057432  1
  V  V74  1  0.63752371  0.24874061  0.37859139  1
  V  V75  1  0.62468337  0.75092286  0.87153151  1
  V  V76  1  0.63610669  0.38305758  0.24293403  1
  V  V77  1  0.37998788  0.25166358  0.12069985  1
  V  V78  1  0.62297569  -0.00523006  0.63235200  1
  Zn  Zn79  1  -0.00546178  0.62459646  0.61812232  1
  Zn  Zn80  1  0.86914239  0.62820305  0.24668217  1
  Zn  Zn81  1  0.24996400  0.00031767  0.25580269  1
  Zn  Zn82  1  0.61697891  0.14017859  -0.00517372  1
  Zn  Zn83  1  0.75228160  0.74964866  0.49952350  1
  Zn  Zn84  1  0.50415275  0.12814790  0.12300648  1
  Zn  Zn85  1  0.10722521  0.37285403  0.76034632  1
  Zn  Zn86  1  0.63774075  0.87673017  0.23334067  1
  Zn  Zn87  1  0.84964180  0.93468990  0.01757432  1
  Zn  Zn88  1  0.40488418  0.75754690  0.13543076  1
  Zn  Zn89  1  0.76601175  0.37889573  0.12533285  1
  Zn  Zn90  1  0.63312725  0.11936956  0.49076944  1
  Zn  Zn91  1  0.64262654  -0.00119950  0.12030063  1
  Zn  Zn92  1  0.88215611  0.25313243  0.62559961  1
  Zn  Zn93  1  0.37844373  0.61013676  0.76467186  1
  Zn  Zn94  1  0.18689680  0.18816261  0.19319651  1
  Zn  Zn95  1  0.17944639  0.18516654  0.68537159  1
  Zn  Zn96  1  0.18942341  0.68921268  0.18993927  1
  Zn  Zn97  1  0.18920376  0.68638541  0.69171098  1
  Zn  Zn98  1  0.68117643  0.18869796  0.17931398  1
  Zn  Zn99  1  0.69325063  0.18839245  0.67562078  1
  Zn  Zn100  1  0.68724189  0.69203574  0.18470266  1
  Zn  Zn101  1  0.68496664  0.68475404  0.68932443  1
  Zn  Zn102  1  0.31068950  0.31186614  0.31225239  1
  Zn  Zn103  1  0.30846012  0.31000740  0.80727460  1
  Zn  Zn104  1  0.31596955  0.81002442  0.31470287  1
  Zn  Zn105  1  0.31278247  0.80362884  0.81111229  1
  Zn  Zn106  1  0.81750833  0.31331955  0.31429076  1
  Zn  Zn107  1  0.81578857  0.31221382  0.80775373  1
  Zn  Zn108  1  0.81532197  0.81070609  0.31638976  1
  Zn  Zn109  1  0.81046766  0.81464178  0.81235521  1
  Zn  Zn110  1  0.19092523  0.43671594  0.44250667  1
  Zn  Zn111  1  0.18178834  0.43332736  0.93473702  1
  Zn  Zn112  1  0.19097090  0.93063817  0.43791204  1
  Zn  Zn113  1  0.18338514  0.93982329  0.94105535  1
  Zn  Zn114  1  0.68568735  0.43157400  0.42869955  1
  Zn  Zn115  1  0.69274011  0.42754160  0.93258709  1
  Zn  Zn116  1  0.68468789  0.93322558  0.43719787  1
  Zn  Zn117  1  0.67978841  0.93720591  0.93621873  1
  Zn  Zn118  1  0.31523803  0.06353659  0.06106581  1
  Zn  Zn119  1  0.31248328  0.05740869  0.55920850  1
  Zn  Zn120  1  0.30992712  0.56354116  0.06164476  1
  Zn  Zn121  1  0.31595747  0.55904344  0.56877704  1
  Zn  Zn122  1  0.81063967  0.08993742  0.06359860  1
  Zn  Zn123  1  0.80759849  0.06829139  0.56327607  1
  Zn  Zn124  1  0.81038607  0.56499708  0.05975980  1
  Zn  Zn125  1  0.82028248  0.56381588  0.55586025  1
  Zn  Zn126  1  0.44229746  0.44187370  0.18181655  1
  Zn  Zn127  1  0.44220061  0.43824966  0.69388310  1
  Zn  Zn128  1  0.47166937  0.95299960  0.20008942  1
  Zn  Zn129  1  0.43532769  0.93621288  0.69239883  1
  Zn  Zn130  1  0.90560558  0.45713610  0.18471610  1
  Zn  Zn131  1  0.94229670  0.44128897  0.69065791  1
  Zn  Zn132  1  0.80724446  0.94484421  0.19265985  1
  Zn  Zn133  1  0.93651655  0.93989000  0.68953089  1
  Zn  Zn134  1  0.06495188  0.06216287  0.31704841  1
  Zn  Zn135  1  0.06302265  0.06521177  0.81190299  1
  Zn  Zn136  1  0.05696110  0.56273680  0.31283255  1
  Zn  Zn137  1  0.06411665  0.56472846  0.81330174  1
  Zn  Zn138  1  0.56964764  0.06856185  0.30280614  1
  Zn  Zn139  1  0.55797558  0.06184846  0.80954743  1
  Zn  Zn140  1  0.56445523  0.56094063  0.31308147  1
  Zn  Zn141  1  0.56124049  0.55441080  0.81500083  1
  Zn  Zn142  1  0.43726613  0.18601825  0.44013793  1
  Zn  Zn143  1  0.43585239  0.19170681  0.92943729  1
  Zn  Zn144  1  0.43631452  0.67990576  0.43830624  1
  Zn  Zn145  1  0.45125628  0.69089708  0.96331097  1
  Zn  Zn146  1  0.94399475  0.18518188  0.43515716  1
  Zn  Zn147  1  0.92075155  0.14050260  0.94807608  1
  Zn  Zn148  1  0.93851320  0.69071641  0.43547446  1
  Zn  Zn149  1  0.93693605  0.69356518  0.93772015  1
  Zn  Zn150  1  0.06094649  0.30551227  0.06283735  1
  Zn  Zn151  1  0.05147224  0.31570880  0.59295013  1
  Zn  Zn152  1  0.06189588  0.82210058  0.06303989  1
  Zn  Zn153  1  0.06546044  0.81273833  0.56356068  1
  Zn  Zn154  1  0.57109804  0.32258022  0.05387587  1
  Zn  Zn155  1  0.55712338  0.31035949  0.56149779  1
  Zn  Zn156  1  0.56438400  0.81052387  0.06103404  1
  Zn  Zn157  1  0.56874031  0.80808994  0.56214029  1
  O  O158  1  0.12461196  0.11882631  0.12268153  1
  O  O159  1  0.11403702  0.12663583  0.61077127  1
  O  O160  1  0.11982188  0.62188259  0.11843639  1
  O  O161  1  0.12877832  0.61509587  0.62127329  1
  O  O162  1  0.61903718  0.11635848  0.11607025  1
  O  O163  1  0.61296003  0.11585317  0.62178332  1
  O  O164  1  0.63153296  0.62737683  0.10906790  1
  O  O165  1  0.61890889  0.62757669  0.61196036  1
  O  O166  1  0.36746445  0.38498897  0.38270757  1
  O  O167  1  0.38626320  0.37297445  0.85969417  1
  O  O168  1  0.38551972  0.87530023  0.38784344  1
  O  O169  1  0.37874836  0.88331120  0.86487810  1
  O  O170  1  0.89071134  0.38699894  0.37398952  1
  O  O171  1  0.88047712  0.39036436  0.86664436  1
  O  O172  1  0.88632848  0.88797307  0.37500785  1
  O  O173  1  0.88801496  0.87655864  0.86959700  1
  O  O174  1  0.26978895  -0.01525754  0.37264327  1
  O  O175  1  0.25347447  0.01155602  0.88180954  1
  O  O176  1  0.25834316  0.50466324  0.37043025  1
  O  O177  1  0.23832187  0.51760782  0.88443116  1
  O  O178  1  0.75775181  -0.00066851  0.38081873  1
  O  O179  1  0.73951744  0.00507296  0.85930504  1
  O  O180  1  0.76757117  0.50345742  0.37800423  1
  O  O181  1  0.77240783  0.50989086  0.88340944  1
  O  O182  1  0.24134755  0.49197007  0.12834339  1
  O  O183  1  0.24266848  0.49245145  0.62837252  1
  O  O184  1  0.25143960  0.98810266  0.12585505  1
  O  O185  1  0.25122050  0.98444987  0.62519427  1
  O  O186  1  0.79971437  0.48934679  0.13972235  1
  O  O187  1  0.78993624  0.46124357  0.61495787  1
  O  O188  1  0.75852821  0.99622104  0.10369439  1
  O  O189  1  0.74094411  0.99452756  0.63039864  1
  O  O190  1  0.01483814  0.36808064  0.25913104  1
  O  O191  1  0.01199618  0.35706357  0.70013720  1
  O  O192  1  0.00375489  0.86678855  0.26188205  1
  O  O193  1  0.01152753  0.86971869  0.75710831  1
  O  O194  1  0.50740773  0.36320485  0.24214927  1
  O  O195  1  0.51277903  0.37986005  0.75903868  1
  O  O196  1  0.48779972  0.86003477  0.26865014  1
  O  O197  1  0.49552025  0.85815090  0.75739682  1
  O  O198  1  0.48937459  0.14284011  0.24452135  1
  O  O199  1  0.48655829  0.11826446  0.73735746  1
  O  O200  1  0.48742404  0.61896249  0.25068942  1
  O  O201  1  0.50077995  0.62942280  0.74278662  1
  O  O202  1  1.00295955  0.13333882  0.24873692  1
  O  O203  1  0.98522436  0.12008476  0.74926848  1
  O  O204  1  1.00883233  0.63843855  0.23644134  1
  O  O205  1  0.99411226  0.63857130  0.75134911  1
  O  O206  1  0.36176445  0.24366989  0.00775648  1
  O  O207  1  0.37749468  0.25866703  0.50621404  1
  O  O208  1  0.35145018  0.74597552  -0.00065355  1
  O  O209  1  0.36581767  0.75631488  0.49402462  1
  O  O210  1  0.85472502  0.23032072  -0.01196357  1
  O  O211  1  0.86845826  0.25113992  0.49322582  1
  O  O212  1  0.86628408  0.74813913  0.00803038  1
  O  O213  1  0.87296180  0.74109317  0.51781188  1
  O  O214  1  0.12489385  0.24929170  0.49418228  1
  O  O215  1  0.13359231  0.24171941  0.99290193  1
  O  O216  1  0.13592031  0.74308974  0.49392820  1
  O  O217  1  0.12844412  0.74728609  0.99421189  1
  O  O218  1  0.62095625  0.25036323  0.48487910  1
  O  O219  1  0.64432781  0.25270452  0.99908740  1
  O  O220  1  0.62777406  0.73708896  0.49051360  1
  O  O221  1  0.63695953  0.73800903  0.98722456  1
  O  O222  1  0.48773693  0.25558059  0.12359421  1
  O  O223  1  0.48491994  0.23387372  0.61573631  1
  O  O224  1  0.48763915  0.73267945  0.06806455  1
  O  O225  1  0.50866776  0.74407267  0.64023548  1
  O  O226  1  1.01068183  0.23986112  0.14220340  1
  O  O227  1  0.99088903  0.22308566  0.61355767  1
  O  O228  1  0.99649137  0.75173691  0.12950564  1
  O  O229  1  0.99325657  0.75166819  0.63585257  1
  O  O230  1  0.01240049  0.26232917  0.37313222  1
  O  O231  1  0.00742682  0.23349271  0.88544917  1
  O  O232  1  0.00457138  0.75909759  0.36848860  1
  O  O233  1  0.00724267  0.75936917  0.86825850  1
  O  O234  1  0.49593820  0.25501723  0.36338623  1
  O  O235  1  0.50173694  0.26502967  0.87620144  1
  O  O236  1  0.50649669  0.75692912  0.38647973  1
  O  O237  1  0.50462210  0.75233860  0.87201400  1
  O  O238  1  0.23826165  0.12452057  0.50596344  1
  O  O239  1  0.24236391  0.13306388  0.99397236  1
  O  O240  1  0.24736319  0.63112825  0.49610584  1
  O  O241  1  0.23623480  0.63533505  0.99790735  1
  O  O242  1  0.74300715  0.14605717  0.50807622  1
  O  O243  1  0.73939990  0.12929259  0.97625431  1
  O  O244  1  0.74090768  0.62073906  0.49272417  1
  O  O245  1  0.74783584  0.63493675  0.99045522  1
  O  O246  1  0.23875396  0.36488408  0.01102600  1
  O  O247  1  0.26526138  0.38211703  0.51296661  1
  O  O248  1  0.24620073  0.86750865  0.00897016  1
  O  O249  1  0.25718659  0.86605658  0.51019153  1
  O  O250  1  0.75926582  0.36387809  0.00148447  1
  O  O251  1  0.74282404  0.35543503  0.49073467  1
  O  O252  1  0.75780449  0.86539933  -0.01617423  1
  O  O253  1  0.74764342  0.87166572  0.51466076  1
  O  O254  1  0.12837235  0.49265137  0.24692090  1
  O  O255  1  0.11927397  0.49720663  0.73661736  1
  O  O256  1  0.13489288  1.01050211  0.23899984  1
  O  O257  1  0.12813639  0.98722150  0.75361791  1
  O  O258  1  0.62288944  0.48187332  0.25855250  1
  O  O259  1  0.62794694  0.49482504  0.74074599  1
  O  O260  1  0.58397429  0.98678120  0.23059620  1
  O  O261  1  0.63278521  1.00356529  0.73861874  1
  O  O262  1  0.38371417  0.00886645  0.25804779  1
  O  O263  1  0.37273811  0.01019633  0.75756191  1
  O  O264  1  0.37162875  0.50464427  0.25600657  1
  O  O265  1  0.36314490  0.50911466  0.72248844  1
  O  O266  1  0.87074982  0.01380756  0.26280070  1
  O  O267  1  0.85736468  0.01002195  0.74419169  1
  O  O268  1  0.90560279  0.52114807  0.27862265  1
  O  O269  1  0.89291963  0.51423259  0.76585149  1
  O  O270  1  0.12069248  0.36788621  0.37578643  1
  O  O271  1  0.11960434  0.35667482  0.87622987  1
  O  O272  1  0.11530516  0.86356251  0.38218861  1
  O  O273  1  0.12137635  0.86995789  0.86667440  1
  O  O274  1  0.62432490  0.35622903  0.36002280  1
  O  O275  1  0.62092855  0.37897054  0.85986387  1
  O  O276  1  0.60964756  0.86583283  0.37924707  1
  O  O277  1  0.61190708  0.86096647  0.87756688  1
  O  O278  1  0.37731710  0.13677389  0.13184564  1
  O  O279  1  0.37612578  0.12625256  0.62780404  1
  O  O280  1  0.36777044  0.62341351  0.14066029  1
  O  O281  1  0.39209008  0.63325708  0.61397000  1
  O  O282  1  0.88899013  0.12546681  0.14784857  1
  O  O283  1  0.88357884  0.12080454  0.63373208  1
  O  O284  1  0.88781429  0.63862283  0.12416564  1
  O  O285  1  0.87480818  0.63120153  0.63628451  1
  O  O286  1  0.25459851  0.25524153  0.11902617  1
  O  O287  1  0.25480428  0.25683027  0.62405237  1
  O  O288  1  0.24136568  0.76422243  0.11664752  1
  O  O289  1  0.24550399  0.75528863  0.61571493  1
  O  O290  1  0.75622227  0.24452586  0.11157597  1
  O  O291  1  0.76498262  0.25759019  0.61448990  1
  O  O292  1  0.76042357  0.74832800  0.11343124  1
  O  O293  1  0.75527931  0.75858014  0.63004673  1
  O  O294  1  0.23599849  0.25475826  0.37654410  1
  O  O295  1  0.24855436  0.23969639  0.88303337  1
  O  O296  1  0.24292319  0.74677888  0.38378444  1
  O  O297  1  0.23909482  0.74891737  0.88847958  1
  O  O298  1  0.74024946  0.24513431  0.37963585  1
  O  O299  1  0.74559793  0.24205754  0.87000730  1
  O  O300  1  0.74289940  0.74050697  0.38022074  1
  O  O301  1  0.74538023  0.74265835  0.87786900  1
  O  O302  1  0.01513342  0.13623285  0.01850924  1
  O  O303  1  0.00670110  0.11274626  0.50290164  1
  O  O304  1  0.01043172  0.63078633  0.00812946  1
  O  O305  1  0.01722702  0.63763987  0.50192658  1
  O  O306  1  0.49883288  0.11548262  -0.01008478  1
  O  O307  1  0.49518692  0.10849053  0.50859708  1
  O  O308  1  0.52155107  0.59836199  -0.01479874  1
  O  O309  1  0.50825904  0.61701577  0.50497494  1
  O  O310  1  0.48654901  0.38420524  0.50922535  1
  O  O311  1  0.50185034  0.38242113  0.98327912  1
  O  O312  1  0.49335033  0.87827848  0.50178687  1
  O  O313  1  0.49368744  0.88825131  0.98339946  1
  O  O314  1  1.00349588  0.36881210  0.49569716  1
  O  O315  1  1.00262145  0.38870775  1.00790965  1
  O  O316  1  0.99953574  0.86985862  0.49042316  1
  O  O317  1  0.99823723  0.87450579  0.98517374  1
  O  O318  1  0.48770472  0.50469792  0.38548156  1
  O  O319  1  0.50024671  0.48691128  0.88398852  1
  O  O320  1  0.49400647  0.98299911  0.38577312  1
  O  O321  1  0.48998521  0.99141432  0.87354561  1
  O  O322  1  1.01026608  0.48330485  0.38345706  1
  O  O323  1  0.99758247  0.50486027  0.88903564  1
  O  O324  1  1.00305160  0.98590084  0.37620764  1
  O  O325  1  1.00474877  0.98835697  0.87298736  1
  O  O326  1  0.01642291  0.01204513  0.13341572  1
  O  O327  1  -0.00049541  0.01247348  0.63063173  1
  O  O328  1  0.00009552  0.51296194  0.11386149  1
  O  O329  1  0.01490160  0.50601298  0.61815815  1
  O  O330  1  0.47911696  0.00416461  0.09876651  1
  O  O331  1  0.50395055  0.00160156  0.62057887  1
  O  O332  1  0.50072321  0.48787579  0.09740040  1
  O  O333  1  0.50018335  0.50813858  0.61129294  1
  O  O334  1  0.23917564  0.37860496  0.24372485  1
  O  O335  1  0.23599452  0.36760831  0.73496588  1
  O  O336  1  0.25419565  0.87381746  0.23851484  1
  O  O337  1  0.23726500  0.86482052  0.74543627  1
  O  O338  1  0.73910868  0.36672695  0.25203087  1
  O  O339  1  0.74245338  0.38372613  0.75862789  1
  O  O340  1  0.74701497  0.87804080  0.25980783  1
  O  O341  1  0.75119223  0.88895781  0.74285756  1
  O  O342  1  0.26781248  0.12518267  0.24824083  1
  O  O343  1  0.25240494  0.12630831  0.75946823  1
  O  O344  1  0.25454935  0.61844875  0.25660903  1
  O  O345  1  0.25185241  0.63756899  0.77280982  1
  O  O346  1  0.76298683  0.13560942  0.24884493  1
  O  O347  1  0.75038659  0.11767289  0.75072106  1
  O  O348  1  0.74748969  0.62721734  0.26257240  1
  O  O349  1  0.76182624  0.62900869  0.75901011  1
  O  O350  1  0.38501372  0.11175829  0.36907357  1
  O  O351  1  0.36597256  0.12033527  0.86394330  1
  O  O352  1  0.36957924  0.61623801  0.36563988  1
  O  O353  1  0.36002980  0.62898873  0.88778977  1
  O  O354  1  0.88385749  0.10989299  0.36808883  1
  O  O355  1  0.85546246  0.12354101  0.85354844  1
  O  O356  1  0.86341618  0.62693586  0.37584437  1
  O  O357  1  0.87035709  0.62733878  0.86786573  1
  O  O358  1  0.13076763  0.37689510  0.13462090  1
  O  O359  1  0.14109661  0.39027421  0.60992808  1
  O  O360  1  0.13111283  0.89121225  0.12399314  1
  O  O361  1  0.13038008  0.87055127  0.64015256  1
  O  O362  1  0.63597713  0.37014278  0.13893841  1
  O  O363  1  0.62824707  0.34208779  0.64961463  1
  O  O364  1  0.62117246  0.88144143  0.11969251  1
  O  O365  1  0.63239131  0.88426542  0.62349988  1
  O  O366  1  0.12028159  0.25536701  0.26321416  1
  O  O367  1  0.12161356  0.24040293  0.76926604  1
  O  O368  1  0.11978632  0.74718779  0.26303908  1
  O  O369  1  0.11688908  0.75374898  0.75943303  1
  O  O370  1  0.61161230  0.25070814  0.25632871  1
  O  O371  1  0.62322596  0.28052866  0.70993319  1
  O  O372  1  0.62492263  0.75047682  0.26473160  1
  O  O373  1  0.61304949  0.73903258  0.76404714  1
  O  O374  1  0.38297850  0.24849347  0.24470562  1
  O  O375  1  0.36813041  0.23393988  0.73619664  1
  O  O376  1  0.37467697  0.73473393  0.24878574  1
  O  O377  1  0.39124513  0.73649292  0.75717261  1
  O  O378  1  0.89124924  0.23417531  0.27301218  1
  O  O379  1  0.87052188  0.23594747  0.74317551  1
  O  O380  1  0.88518818  0.74992703  0.23987798  1
  O  O381  1  0.88223463  0.74465543  0.74459212  1
  O  O382  1  0.38211077  0.49435177  0.49323134  1
  O  O383  1  0.37713182  0.49923340  0.99698025  1
  O  O384  1  0.38232490  0.98735976  0.49531684  1
  O  O385  1  0.38103435  1.00898074  0.97915365  1
  O  O386  1  0.89260430  0.51619475  0.47981000  1
  O  O387  1  0.89101468  0.50846664  0.98756700  1
  O  O388  1  0.87134894  1.00661312  0.48858874  1
  O  O389  1  0.88919586  1.03627053  0.99702096  1
  O  O390  1  0.13209214  0.01203989  0.01637579  1
  O  O391  1  0.13133101  0.00885026  0.49406555  1
  O  O392  1  0.11287256  0.50839634  0.00463068  1
  O  O393  1  0.13524261  0.51377454  0.50922049  1
  O  O394  1  0.60391505  0.00277921  -0.00767021  1
  O  O395  1  0.61464510  -0.00062871  0.50749004  1
  O  O396  1  0.64943925  0.51008656  0.00249794  1
  O  O397  1  0.61495985  0.50539563  0.48671694  1
  O  O398  1  0.35919198  0.36669251  0.13370726  1
  O  O399  1  0.36404855  0.36560315  0.62249056  1
  O  O400  1  0.36640836  0.87081771  0.12832369  1
  O  O401  1  0.36820157  0.87470971  0.61802679  1
  O  O402  1  0.87826742  0.35546504  0.15283839  1
  O  O403  1  0.85102613  0.41272938  0.61803044  1
  O  O404  1  0.87661933  0.86957092  0.11754645  1
  O  O405  1  0.86587745  0.86557079  0.63440215  1
  O  O406  1  0.11992890  0.13680418  0.39087053  1
  O  O407  1  0.12993491  0.12906779  0.88475702  1
  O  O408  1  0.12958101  0.63203733  0.38165045  1
  O  O409  1  0.12823887  0.63662503  0.88322207  1
  O  O410  1  0.61264388  0.14154056  0.37441163  1
  O  O411  1  0.63243150  0.12845947  0.86329528  1
  O  O412  1  0.63123789  0.62893885  0.38161575  1
  O  O413  1  0.63862679  0.62642805  0.87919429  1
