# generated using pymatgen
data_V79Zn79O256
_symmetry_space_group_name_H-M   'P 1'
_cell_length_a   16.90101570
_cell_length_b   16.89205135
_cell_length_c   16.88444281
_cell_angle_alpha   90.05125862
_cell_angle_beta   90.00174563
_cell_angle_gamma   89.98911380
_symmetry_Int_Tables_number   1
_chemical_formula_structural   V79Zn79O256
_chemical_formula_sum   'V79 Zn79 O256'
_cell_volume   4820.38526036
_cell_formula_units_Z   1
loop_
 _symmetry_equiv_pos_site_id
 _symmetry_equiv_pos_as_xyz
  1  'x, y, z'
loop_
 _atom_site_type_symbol
 _atom_site_label
 _atom_site_symmetry_multiplicity
 _atom_site_fract_x
 _atom_site_fract_y
 _atom_site_fract_z
 _atom_site_occupancy
  V  V0  1  -0.00880870  0.63457929  0.12483875  1
  V  V1  1  0.62713379  0.87926375  0.75021803  1
  V  V2  1  0.12385220  0.50888474  0.12416244  1
  V  V3  1  0.12856268  0.23831601  0.37890613  1
  V  V4  1  0.12622513  0.74349830  0.88178524  1
  V  V5  1  0.00453151  0.50301385  0.50268209  1
  V  V6  1  0.23403135  -0.00466428  0.25205839  1
  V  V7  1  0.50494794  0.49742745  0.00112839  1
  V  V8  1  0.86883747  0.86228037  0.00237563  1
  V  V9  1  -0.00721924  0.88686756  0.87318953  1
  V  V10  1  0.37632955  0.24892712  0.62362238  1
  V  V11  1  0.36658100  0.75338378  0.62842107  1
  V  V12  1  0.75307590  0.10811517  0.86172076  1
  V  V13  1  0.24723526  -0.00271413  0.75229716  1
  V  V14  1  0.37078582  0.87025322  0.49216998  1
  V  V15  1  0.10296633  0.86339382  0.25007835  1
  V  V16  1  0.12349105  0.50825085  0.62142266  1
  V  V17  1  0.49815679  0.61986095  0.62049579  1
  V  V18  1  0.76564056  0.52120442  0.75607602  1
  V  V19  1  0.49882096  0.87460346  0.88335475  1
  V  V20  1  0.25041589  0.49928139  0.75150610  1
  V  V21  1  -0.00559650  0.24835442  0.24600110  1
  V  V22  1  -0.00301160  0.37908195  0.37649497  1
  V  V23  1  0.25224136  0.37513619  0.12884286  1
  V  V24  1  0.11713882  0.11939903  0.01143456  1
  V  V25  1  -0.00946329  0.73283218  0.73884615  1
  V  V26  1  0.50086956  0.00009587  0.00468750  1
  V  V27  1  0.86917007  0.37325510  0.49762778  1
  V  V28  1  0.37714138  0.49850669  0.87585918  1
  V  V29  1  0.87921793  0.24855416  0.62947095  1
  V  V30  1  0.10781862  0.74978802  0.39237998  1
  V  V31  1  0.74888123  0.87304835  0.62028368  1
  V  V32  1  0.11465037  0.36391406  0.75426248  1
  V  V33  1  0.37938156  0.37247013  0.00069286  1
  V  V34  1  0.87314058  0.12490122  0.24237132  1
  V  V35  1  0.62713952  0.50135943  0.62805292  1
  V  V36  1  0.64111053  0.50113550  0.12392268  1
  V  V37  1  0.88229697  -0.00632769  0.38447985  1
  V  V38  1  0.88542622  0.37696396  -0.01816672  1
  V  V39  1  0.25022836  0.37228675  0.61954331  1
  V  V40  1  0.50088902  0.12393713  0.62706796  1
  V  V41  1  0.00622919  0.50076930  -0.01037402  1
  V  V42  1  0.87827189  0.63409293  0.26595732  1
  V  V43  1  0.60374565  0.89323367  0.24984488  1
  V  V44  1  0.37461592  0.62254277  0.75323855  1
  V  V45  1  0.60621496  0.75746990  0.36330733  1
  V  V46  1  0.37380257  0.00031055  0.88139526  1
  V  V47  1  0.74763514  0.75765944  0.49556250  1
  V  V48  1  0.75314430  0.12811177  0.38817549  1
  V  V49  1  0.24658638  0.24786070  -0.00362457  1
  V  V50  1  0.49802910  -0.00352951  0.49194097  1
  V  V51  1  0.25880462  0.51198101  0.25850778  1
  V  V52  1  0.38771629  0.38480879  0.48718696  1
  V  V53  1  0.76260021  0.37426645  0.12195508  1
  V  V54  1  0.36417805  0.12260160  0.25641807  1
  V  V55  1  0.62971150  0.12169987  0.00353672  1
  V  V56  1  0.88482116  0.10331929  0.74848988  1
  V  V57  1  0.62424469  -0.00103371  0.62708157  1
  V  V58  1  0.49984849  0.74828611  0.75223651  1
  V  V59  1  0.75012897  0.87033773  0.13316230  1
  V  V60  1  0.12083753  0.87927726  0.75300228  1
  V  V61  1  0.49197639  0.63418152  0.13563253  1
  V  V62  1  0.37428581  0.12503780  0.75155051  1
  V  V63  1  0.63772450  0.74869579  0.87679902  1
  V  V64  1  0.12418858  0.37809445  0.25229288  1
  V  V65  1  0.25542984  0.87261384  0.11912108  1
  V  V66  1  0.74840780  0.37016589  0.63517028  1
  V  V67  1  -0.01063317  0.00453991  0.01507683  1
  V  V68  1  0.25163908  0.63486602  0.39202127  1
  V  V69  1  0.61853029  0.62674168  0.49675561  1
  V  V70  1  0.63542777  0.63229527  -0.00401023  1
  V  V71  1  0.62760527  0.13251705  0.50092942  1
  V  V72  1  0.00675211  0.12730216  0.60748382  1
  V  V73  1  0.24876020  0.23655396  0.49606798  1
  V  V74  1  0.12385192  0.00294265  0.60878469  1
  V  V75  1  0.50560524  0.25600814  0.75107759  1
  V  V76  1  0.50205010  0.12520989  0.12765296  1
  V  V77  1  0.38019762  0.24795696  0.12798676  1
  V  V78  1  0.63008363  0.25440992  0.87087822  1
  Zn  Zn79  1  0.91570779  0.86487850  0.47355272  1
  Zn  Zn80  1  0.76569064  0.49944738  0.26780279  1
  Zn  Zn81  1  0.29093112  0.72681008  0.03512782  1
  Zn  Zn82  1  0.36867051  -0.00154110  0.37569494  1
  Zn  Zn83  1  0.73861465  0.00709013  0.24541408  1
  Zn  Zn84  1  0.09646937  0.25108065  0.87566045  1
  Zn  Zn85  1  0.60435301  0.26516928  0.36239235  1
  Zn  Zn86  1  0.74989465  0.62707849  0.37593020  1
  Zn  Zn87  1  0.24124002  0.12585001  0.87518773  1
  Zn  Zn88  1  0.88156939  0.24552355  0.11798639  1
  Zn  Zn89  1  0.62820662  0.37543382  0.25037070  1
  Zn  Zn90  1  0.75727922  0.24732480  -0.00706053  1
  Zn  Zn91  1  0.24591406  0.87019609  0.62244586  1
  Zn  Zn92  1  0.23970656  0.62029080  0.89486008  1
  Zn  Zn93  1  0.50934850  0.37731578  0.87068342  1
  Zn  Zn94  1  0.18578468  0.18940483  0.18791954  1
  Zn  Zn95  1  0.18809961  0.18470727  0.68544185  1
  Zn  Zn96  1  0.18106506  0.69356104  0.19550268  1
  Zn  Zn97  1  0.18160888  0.68908684  0.69650599  1
  Zn  Zn98  1  0.68862715  0.19447510  0.19093447  1
  Zn  Zn99  1  0.69180685  0.18657279  0.68739026  1
  Zn  Zn100  1  0.69257603  0.68846665  0.18761828  1
  Zn  Zn101  1  0.68857033  0.69015834  0.68561157  1
  Zn  Zn102  1  0.31285442  0.31213028  0.31270801  1
  Zn  Zn103  1  0.31403078  0.31477205  0.81211033  1
  Zn  Zn104  1  0.30717102  0.80609436  0.30704105  1
  Zn  Zn105  1  0.32953377  0.79266222  0.86056776  1
  Zn  Zn106  1  0.78712538  0.32244242  0.32509854  1
  Zn  Zn107  1  0.81840776  0.30507797  0.81011625  1
  Zn  Zn108  1  0.81098239  0.80771542  0.31092107  1
  Zn  Zn109  1  0.81813452  0.81614667  0.80792489  1
  Zn  Zn110  1  0.19169157  0.43558111  0.43541038  1
  Zn  Zn111  1  0.18717262  0.43283193  0.93723988  1
  Zn  Zn112  1  0.18773746  0.92658884  0.43021735  1
  Zn  Zn113  1  0.18159756  0.93900470  0.93923802  1
  Zn  Zn114  1  0.68051405  0.44082410  0.43926738  1
  Zn  Zn115  1  0.69783632  0.44100561  0.93560779  1
  Zn  Zn116  1  0.68576468  0.94481297  0.42847574  1
  Zn  Zn117  1  0.68723105  0.93478629  0.94135429  1
  Zn  Zn118  1  0.30576233  0.05865271  0.06750120  1
  Zn  Zn119  1  0.31315081  0.05765297  0.56461409  1
  Zn  Zn120  1  0.31334392  0.55643766  0.06683928  1
  Zn  Zn121  1  0.31239628  0.56362011  0.56023887  1
  Zn  Zn122  1  0.80392060  0.05296971  0.06214447  1
  Zn  Zn123  1  0.81565860  0.05544215  0.56600195  1
  Zn  Zn124  1  0.84146476  0.59184199  0.01484649  1
  Zn  Zn125  1  0.81436175  0.56308990  0.56837148  1
  Zn  Zn126  1  0.44119943  0.44743592  0.18953923  1
  Zn  Zn127  1  0.43684712  0.43589572  0.68220435  1
  Zn  Zn128  1  0.42562671  0.93879708  0.18435430  1
  Zn  Zn129  1  0.43748265  0.93603900  0.68994712  1
  Zn  Zn130  1  0.93595589  0.44774082  0.18623252  1
  Zn  Zn131  1  0.93676633  0.43961598  0.68832177  1
  Zn  Zn132  1  0.92842789  0.93833666  0.18809123  1
  Zn  Zn133  1  0.95096845  0.92172749  0.65750289  1
  Zn  Zn134  1  0.05559113  0.05961521  0.31192509  1
  Zn  Zn135  1  0.06200176  0.06863985  0.81795124  1
  Zn  Zn136  1  0.06205863  0.57038999  0.31291395  1
  Zn  Zn137  1  0.06092692  0.55977601  0.80561232  1
  Zn  Zn138  1  0.54997158  0.09179638  0.32272548  1
  Zn  Zn139  1  0.56295021  0.06471937  0.81537064  1
  Zn  Zn140  1  0.57075320  0.55892332  0.31060545  1
  Zn  Zn141  1  0.56952545  0.56123654  0.81171011  1
  Zn  Zn142  1  0.43761316  0.19476967  0.43973503  1
  Zn  Zn143  1  0.43908750  0.18691863  0.93734746  1
  Zn  Zn144  1  0.43140729  0.68927510  0.43236105  1
  Zn  Zn145  1  0.44384004  0.68149508  0.94506817  1
  Zn  Zn146  1  0.93344292  0.19191117  0.43396305  1
  Zn  Zn147  1  0.93465518  0.18437375  0.93197557  1
  Zn  Zn148  1  0.92916830  0.67895869  0.46737739  1
  Zn  Zn149  1  0.94872007  0.68976828  0.92562774  1
  Zn  Zn150  1  0.06418465  0.31485715  0.06271185  1
  Zn  Zn151  1  0.06343527  0.31145694  0.56355018  1
  Zn  Zn152  1  0.06590642  0.82011805  0.06399130  1
  Zn  Zn153  1  0.06616263  0.80352484  0.56461220  1
  Zn  Zn154  1  0.56980961  0.30908302  0.06300859  1
  Zn  Zn155  1  0.56449794  0.31517237  0.56431200  1
  Zn  Zn156  1  0.56630982  0.81300030  0.07064279  1
  Zn  Zn157  1  0.55697104  0.81202196  0.55955322  1
  O  O158  1  0.12109635  0.13324634  0.11096848  1
  O  O159  1  0.11687049  0.11835767  0.62251344  1
  O  O160  1  0.11696538  0.61223794  0.13566372  1
  O  O161  1  0.13178471  0.60657901  0.62977509  1
  O  O162  1  0.61617030  0.13183374  0.11456264  1
  O  O163  1  0.62317080  0.11667604  0.62105209  1
  O  O164  1  0.62212880  0.61554508  0.11436281  1
  O  O165  1  0.61497917  0.62397742  0.61775777  1
  O  O166  1  0.37252969  0.36999397  0.38794508  1
  O  O167  1  0.38060468  0.38077611  0.88241836  1
  O  O168  1  0.36980215  0.87161472  0.39038655  1
  O  O169  1  0.39016172  0.89008298  0.86430262  1
  O  O170  1  0.88039603  0.36739327  0.38947692  1
  O  O171  1  0.87386195  0.37429939  0.88310047  1
  O  O172  1  0.87083051  0.88818808  0.36973827  1
  O  O173  1  0.88182480  0.87437181  0.88767713  1
  O  O174  1  0.25057468  -0.00511131  0.35814996  1
  O  O175  1  0.25776793  0.00000095  0.87053227  1
  O  O176  1  0.23607653  0.51435954  0.36449709  1
  O  O177  1  0.25525710  0.49915091  0.86675205  1
  O  O178  1  0.76131099  0.00914012  0.36761409  1
  O  O179  1  0.74158868  0.00967983  0.87105132  1
  O  O180  1  0.73509681  0.51507140  0.37554956  1
  O  O181  1  0.74338787  0.50173553  0.85348112  1
  O  O182  1  0.24251117  0.49324743  0.13791915  1
  O  O183  1  0.24256141  0.49076851  0.63003720  1
  O  O184  1  0.24832738  0.98878833  0.13947170  1
  O  O185  1  0.23681626  1.00539313  0.63549607  1
  O  O186  1  0.74372079  0.49182933  0.11119021  1
  O  O187  1  0.74796869  0.49397677  0.63188598  1
  O  O188  1  0.74514799  0.98472750  0.12929630  1
  O  O189  1  0.73190454  0.98790018  0.61684138  1
  O  O190  1  0.00415082  0.37143223  0.25853816  1
  O  O191  1  0.01649171  0.37644378  0.74168412  1
  O  O192  1  0.00455698  0.87881951  0.24775884  1
  O  O193  1  0.00905079  0.88171716  0.75443832  1
  O  O194  1  0.51129702  0.40865733  0.27878652  1
  O  O195  1  0.49685042  0.36083124  0.74880933  1
  O  O196  1  0.50517590  0.88457273  0.24552419  1
  O  O197  1  0.50827886  0.86730531  0.75846724  1
  O  O198  1  0.47900323  0.11269376  0.23227826  1
  O  O199  1  0.49435261  0.13218313  0.74630972  1
  O  O200  1  0.50825193  0.61447532  0.23332927  1
  O  O201  1  0.49682707  0.63197780  0.74394476  1
  O  O202  1  0.98387716  0.13523879  0.25706414  1
  O  O203  1  0.98712078  0.12081072  0.74606706  1
  O  O204  1  0.98949230  0.62240637  0.23707217  1
  O  O205  1  0.98976053  0.63377288  0.76014851  1
  O  O206  1  0.36910854  0.25180735  0.00883423  1
  O  O207  1  0.36768184  0.25707670  0.50489098  1
  O  O208  1  0.36947933  0.76111093  -0.03537869  1
  O  O209  1  0.38238730  0.76362519  0.51399764  1
  O  O210  1  0.87743474  0.26155924  0.00159063  1
  O  O211  1  0.88028396  0.26296098  0.51273185  1
  O  O212  1  0.88311709  0.76514283  0.00027744  1
  O  O213  1  0.84844702  0.76736998  0.48556486  1
  O  O214  1  0.13170690  0.25375908  0.48669561  1
  O  O215  1  0.13147755  0.24558679  0.99845603  1
  O  O216  1  0.13887604  0.76502805  0.48883526  1
  O  O217  1  0.12016515  0.75919440  0.98037649  1
  O  O218  1  0.62142888  0.23364923  0.50375400  1
  O  O219  1  0.62853445  0.23663009  0.98998909  1
  O  O220  1  0.62254146  0.74711678  0.48871234  1
  O  O221  1  0.61871827  0.73953706  0.99207157  1
  O  O222  1  0.48958592  0.24067285  0.11741302  1
  O  O223  1  0.49762939  0.24397543  0.63296468  1
  O  O224  1  0.50448661  0.73317161  0.12059110  1
  O  O225  1  0.49229832  0.74301919  0.63660604  1
  O  O226  1  0.99911691  0.25835573  0.14201402  1
  O  O227  1  0.99668728  0.23560617  0.62343211  1
  O  O228  1  1.01018077  0.73162157  0.11319133  1
  O  O229  1  1.01749939  0.73513754  0.64135740  1
  O  O230  1  0.00902795  0.25933291  0.36896761  1
  O  O231  1  -0.01368075  0.25118055  0.86196259  1
  O  O232  1  0.00664288  0.74769576  0.40607722  1
  O  O233  1  0.00977714  0.76356357  0.86279321  1
  O  O234  1  0.51663863  0.20011503  0.36502149  1
  O  O235  1  0.50989431  0.24881937  0.86736849  1
  O  O236  1  0.50700158  0.75433590  0.37598652  1
  O  O237  1  0.50881880  0.75723521  0.86727832  1
  O  O238  1  0.25685464  0.13719161  0.50236749  1
  O  O239  1  0.23663900  0.12996732  1.00193633  1
  O  O240  1  0.24360798  0.62270078  0.49237966  1
  O  O241  1  0.24944170  0.62472971  1.00656038  1
  O  O242  1  0.74395590  0.11675620  0.49658387  1
  O  O243  1  0.74509954  0.12276508  0.98783521  1
  O  O244  1  0.73305319  0.64387241  0.50345771  1
  O  O245  1  0.73245627  0.62552859  1.00607530  1
  O  O246  1  0.25763614  0.36800307  0.00797375  1
  O  O247  1  0.25635342  0.36596021  0.50706771  1
  O  O248  1  0.23625158  0.88033312  0.01864676  1
  O  O249  1  0.26671583  0.88336857  0.50707368  1
  O  O250  1  0.76751331  0.37702904  0.00437350  1
  O  O251  1  0.76735843  0.38553454  0.51167620  1
  O  O252  1  0.76207816  0.87947310  0.00643170  1
  O  O253  1  0.73002051  0.86795128  0.50797926  1
  O  O254  1  0.12734077  0.49127533  0.24482198  1
  O  O255  1  0.13184536  0.48863537  0.73952570  1
  O  O256  1  0.12930701  0.99067731  0.25692618  1
  O  O257  1  0.13189687  0.99790881  0.75211481  1
  O  O258  1  0.63828296  0.49977913  0.22919211  1
  O  O259  1  0.63756652  0.50907114  0.73384910  1
  O  O260  1  0.61829111  0.99470062  0.26223406  1
  O  O261  1  0.61540903  0.99045886  0.74131287  1
  O  O262  1  0.36319911  0.01011382  0.25241821  1
  O  O263  1  0.36777444  0.00558024  0.75622429  1
  O  O264  1  0.35695032  0.49404684  0.25125802  1
  O  O265  1  0.36840060  0.50111357  0.75322949  1
  O  O266  1  0.87515971  0.01671788  0.25728380  1
  O  O267  1  0.88001757  0.00609048  0.73383160  1
  O  O268  1  0.87672242  0.51950857  0.24845442  1
  O  O269  1  0.86509730  0.50391371  0.74365320  1
  O  O270  1  0.11810642  0.36784221  0.36677821  1
  O  O271  1  0.13126180  0.37042231  0.85851980  1
  O  O272  1  0.12245928  0.86210906  0.36305083  1
  O  O273  1  0.11632281  0.87164876  0.86792555  1
  O  O274  1  0.66985784  0.35738021  0.36445165  1
  O  O275  1  0.62949086  0.35845346  0.88336173  1
  O  O276  1  0.62471011  0.86790185  0.36037238  1
  O  O277  1  0.61763751  0.87069242  0.86872005  1
  O  O278  1  0.37950389  0.13199229  0.12628024  1
  O  O279  1  0.38062080  0.12934942  0.63155905  1
  O  O280  1  0.39254806  0.61732946  0.12164517  1
  O  O281  1  0.38077337  0.63106689  0.63137071  1
  O  O282  1  0.86367639  0.12713710  0.13921962  1
  O  O283  1  0.88592364  0.12550622  0.62920859  1
  O  O284  1  0.88947580  0.62499374  0.11694039  1
  O  O285  1  0.88862345  0.64279197  0.56906144  1
  O  O286  1  0.25744751  0.25508759  0.11612489  1
  O  O287  1  0.25471042  0.25471101  0.61675860  1
  O  O288  1  0.24414339  0.76385773  0.13124647  1
  O  O289  1  0.26312155  0.74899783  0.63863275  1
  O  O290  1  0.75265410  0.26609751  0.11741447  1
  O  O291  1  0.75542358  0.26407604  0.62607266  1
  O  O292  1  0.73940513  0.76980920  0.12176617  1
  O  O293  1  0.73464213  0.76353434  0.60936525  1
  O  O294  1  0.23560496  0.25242686  0.37938672  1
  O  O295  1  0.25782422  0.24897839  0.89093291  1
  O  O296  1  0.23929311  0.73874152  0.37142059  1
  O  O297  1  0.22991798  0.74361707  0.86032824  1
  O  O298  1  0.76169198  0.22746299  0.38314095  1
  O  O299  1  0.74471465  0.23693755  0.87155145  1
  O  O300  1  0.73217808  0.75040285  0.38468059  1
  O  O301  1  0.73596599  0.76027647  0.86767968  1
  O  O302  1  0.00443681  0.11548194  -0.00182025  1
  O  O303  1  -0.00333604  0.12592898  0.50889337  1
  O  O304  1  0.00303826  0.60733321  0.00928697  1
  O  O305  1  0.01346324  0.59950755  0.49194817  1
  O  O306  1  0.50789114  0.11890829  0.00564674  1
  O  O307  1  0.50595775  0.11589724  0.51128662  1
  O  O308  1  0.51030253  0.61241604  0.00875091  1
  O  O309  1  0.50326991  0.63343480  0.51185898  1
  O  O310  1  0.48770035  0.36925282  0.50197630  1
  O  O311  1  0.49935680  0.38281929  1.00012551  1
  O  O312  1  0.48626674  0.88671449  0.50768707  1
  O  O313  1  0.51201983  0.88430704  0.99075598  1
  O  O314  1  0.99505513  0.37518312  0.49284733  1
  O  O315  1  0.99270316  0.38155542  1.00308134  1
  O  O316  1  0.98627456  0.87935419  0.55394672  1
  O  O317  1  0.99098595  0.88684380  0.99674035  1
  O  O318  1  0.51397959  0.46087989  0.34240109  1
  O  O319  1  0.49977160  0.49756485  0.88271828  1
  O  O320  1  0.49250188  1.00987638  0.38934340  1
  O  O321  1  0.49426376  0.99499022  0.88251277  1
  O  O322  1  1.01267680  0.48609527  0.38713144  1
  O  O323  1  1.01641553  0.49845129  0.89082167  1
  O  O324  1  0.98253820  1.00377745  0.37647553  1
  O  O325  1  1.00394088  0.99008742  0.88429366  1
  O  O326  1  -0.00238672  -0.00171902  0.11377073  1
  O  O327  1  0.01692816  0.01622869  0.62737630  1
  O  O328  1  0.01036639  0.50507011  0.11855339  1
  O  O329  1  0.01574390  0.49193392  0.61717519  1
  O  O330  1  0.48953586  0.00861985  0.11088936  1
  O  O331  1  0.50686180  0.00465630  0.62113398  1
  O  O332  1  0.51561089  0.49991211  0.11524373  1
  O  O333  1  0.50849765  0.51194931  0.63319463  1
  O  O334  1  0.24011531  0.38161789  0.24962418  1
  O  O335  1  0.24918576  0.38303685  0.73969136  1
  O  O336  1  0.24308833  0.88454004  0.24412725  1
  O  O337  1  0.23857594  0.88922939  0.75002290  1
  O  O338  1  0.76000608  0.38342719  0.22892057  1
  O  O339  1  0.75725271  0.38103035  0.73615405  1
  O  O340  1  0.74909452  0.87822192  0.24031890  1
  O  O341  1  0.73401436  0.86564718  0.73593484  1
  O  O342  1  0.25521594  0.11154991  0.23939362  1
  O  O343  1  0.25520078  0.11625684  0.75316806  1
  O  O344  1  0.24674174  0.61293251  0.24962276  1
  O  O345  1  0.25438277  0.60874655  0.74902156  1
  O  O346  1  0.75933596  0.12782337  0.26072202  1
  O  O347  1  0.75868809  0.11985936  0.75513865  1
  O  O348  1  0.76391804  0.62519135  0.25132091  1
  O  O349  1  0.75637227  0.62163494  0.74136694  1
  O  O350  1  0.36944113  0.12844971  0.35718873  1
  O  O351  1  0.37458244  0.11535840  0.86939690  1
  O  O352  1  0.35331272  0.62954825  0.37902203  1
  O  O353  1  0.37645487  0.61392498  0.86766079  1
  O  O354  1  0.86741773  0.11532757  0.37410609  1
  O  O355  1  0.86305608  0.11850915  0.86055082  1
  O  O356  1  0.87711613  0.63137321  0.36929313  1
  O  O357  1  0.86519138  0.62138901  0.90865384  1
  O  O358  1  0.13060454  0.37944045  0.13743758  1
  O  O359  1  0.13674867  0.37506549  0.63348304  1
  O  O360  1  0.12929738  0.87103888  0.14527452  1
  O  O361  1  0.12737954  0.89100377  0.63574333  1
  O  O362  1  0.63942043  0.38732067  0.11564351  1
  O  O363  1  0.64150658  0.38455561  0.61609496  1
  O  O364  1  0.62966025  0.87663398  0.14336333  1
  O  O365  1  0.62119416  0.88127368  0.63289793  1
  O  O366  1  0.11924685  0.25791752  0.25878355  1
  O  O367  1  0.13249550  0.26124554  0.74939288  1
  O  O368  1  0.11222579  0.75866198  0.26190985  1
  O  O369  1  0.11426481  0.76272967  0.75595583  1
  O  O370  1  0.61747309  0.26148918  0.24314053  1
  O  O371  1  0.61631636  0.24168643  0.75709602  1
  O  O372  1  0.62294297  0.75366735  0.26114395  1
  O  O373  1  0.61558906  0.75530332  0.75552363  1
  O  O374  1  0.36161626  0.23619164  0.23764318  1
  O  O375  1  0.38201515  0.24445495  0.74506806  1
  O  O376  1  0.38717492  0.75241171  0.25286266  1
  O  O377  1  0.38560149  0.74436143  0.75151288  1
  O  O378  1  0.87968524  0.24012567  0.25419574  1
  O  O379  1  0.87082184  0.23694917  0.73312931  1
  O  O380  1  0.87428291  0.73516246  0.24906481  1
  O  O381  1  0.89357934  0.76360304  0.74380384  1
  O  O382  1  0.37228249  0.48349306  0.50534912  1
  O  O383  1  0.38659462  0.49182501  0.99688253  1
  O  O384  1  0.38071404  0.99096641  0.50050488  1
  O  O385  1  0.38271229  1.00743264  0.98938149  1
  O  O386  1  0.89525761  0.48222910  0.51143262  1
  O  O387  1  0.89348904  0.48544638  1.00065751  1
  O  O388  1  0.87001774  0.99296962  0.48770831  1
  O  O389  1  0.88642050  0.99785365  1.00085442  1
  O  O390  1  0.11401178  0.01411636  -0.00038120  1
  O  O391  1  0.13321344  -0.00575734  0.51120187  1
  O  O392  1  0.11749926  0.48544833  0.01368699  1
  O  O393  1  0.12071447  0.48521150  0.51488206  1
  O  O394  1  0.61383987  0.01184582  -0.00786452  1
  O  O395  1  0.61503760  0.00546799  0.50718496  1
  O  O396  1  0.62231993  0.50896823  0.00149632  1
  O  O397  1  0.62872981  0.51501548  0.51396829  1
  O  O398  1  0.37498241  0.36721968  0.12343800  1
  O  O399  1  0.36612374  0.36817267  0.61838775  1
  O  O400  1  0.35702135  0.87378116  0.12324706  1
  O  O401  1  0.37197269  0.86694960  0.62520613  1
  O  O402  1  0.86933251  0.37591364  0.11727641  1
  O  O403  1  0.86960132  0.36704314  0.62047662  1
  O  O404  1  0.86368378  0.87630061  0.11480381  1
  O  O405  1  0.84577305  0.88238329  0.62693024  1
  O  O406  1  0.11825050  0.14038303  0.36871327  1
  O  O407  1  0.12451954  0.13458990  0.88856636  1
  O  O408  1  0.12877835  0.64251650  0.37152520  1
  O  O409  1  0.12068122  0.63887152  0.86895451  1
  O  O410  1  0.64547961  0.11437495  0.38670702  1
  O  O411  1  0.63604335  0.13074004  0.87887927  1
  O  O412  1  0.61523251  0.63761410  0.38306857  1
  O  O413  1  0.62021962  0.63395673  0.88680041  1
