# generated using pymatgen
data_V79Zn79O256
_symmetry_space_group_name_H-M   'P 1'
_cell_length_a   16.93466197
_cell_length_b   16.97580893
_cell_length_c   17.00002198
_cell_angle_alpha   89.91870436
_cell_angle_beta   89.86070553
_cell_angle_gamma   89.80448330
_symmetry_Int_Tables_number   1
_chemical_formula_structural   V79Zn79O256
_chemical_formula_sum   'V79 Zn79 O256'
_cell_volume   4887.11152046
_cell_formula_units_Z   1
loop_
 _symmetry_equiv_pos_site_id
 _symmetry_equiv_pos_as_xyz
  1  'x, y, z'
loop_
 _atom_site_type_symbol
 _atom_site_label
 _atom_site_symmetry_multiplicity
 _atom_site_fract_x
 _atom_site_fract_y
 _atom_site_fract_z
 _atom_site_occupancy
  V  V0  1  0.37123788  0.87809768  0.49519599  1
  V  V1  1  0.62299006  0.25766592  0.87781171  1
  V  V2  1  0.87212121  0.00523143  0.86886495  1
  V  V3  1  0.25469568  0.49831503  0.75013467  1
  V  V4  1  0.51993715  -0.00375768  0.50231980  1
  V  V5  1  0.12395365  -0.02279222  0.13004946  1
  V  V6  1  0.47100765  0.61144687  0.12577287  1
  V  V7  1  0.62719695  0.37597136  0.25616672  1
  V  V8  1  0.49964124  0.00115131  -0.00095622  1
  V  V9  1  0.37305879  0.00994357  0.86580215  1
  V  V10  1  0.63005735  0.87799976  0.73668305  1
  V  V11  1  0.87551941  0.13274682  0.74407983  1
  V  V12  1  0.88264281  0.77981617  0.16043352  1
  V  V13  1  0.01104062  0.12987568  0.11866987  1
  V  V14  1  0.01843889  0.50296642  0.00407673  1
  V  V15  1  0.49479255  0.25192546  0.75332415  1
  V  V16  1  0.74409027  0.00092420  0.73460730  1
  V  V17  1  0.87579028  0.38295588  -0.00274058  1
  V  V18  1  0.86584188  0.87367394  0.49787072  1
  V  V19  1  -0.00351951  -0.00434643  0.48457147  1
  V  V20  1  0.87697900  0.25021639  0.12425863  1
  V  V21  1  0.38676267  0.48089799  0.38797783  1
  V  V22  1  -0.00193849  0.12100352  0.62010747  1
  V  V23  1  -0.00036194  0.49449363  0.50046939  1
  V  V24  1  0.62376764  0.61492027  0.47899359  1
  V  V25  1  0.26295959  0.62553983  0.38627983  1
  V  V26  1  0.13021727  0.37789833  0.24819587  1
  V  V27  1  0.87156175  0.25449680  0.62018784  1
  V  V28  1  0.13031513  0.24171819  0.87998060  1
  V  V29  1  0.85919743  0.86570624  -0.01227835  1
  V  V30  1  0.63610837  0.22767323  0.36750584  1
  V  V31  1  0.36822846  0.10659951  0.25651548  1
  V  V32  1  0.52690085  0.86647509  0.37651496  1
  V  V33  1  0.50173619  0.11951022  0.12695448  1
  V  V34  1  0.74907486  0.22363949  0.49301492  1
  V  V35  1  0.24893912  0.00543138  0.74830900  1
  V  V36  1  0.50613265  0.38688666  0.88719431  1
  V  V37  1  0.61696325  0.60755616  0.00610106  1
  V  V38  1  0.75139993  0.25117660  0.00003872  1
  V  V39  1  0.88962218  0.61408573  0.25004568  1
  V  V40  1  0.74642553  0.38502689  0.12471638  1
  V  V41  1  0.50294245  0.25313535  0.25522660  1
  V  V42  1  0.62529702  0.75053237  0.88752480  1
  V  V43  1  0.11708192  0.75555759  0.37584722  1
  V  V44  1  0.37779899  0.50189632  0.88498514  1
  V  V45  1  0.25563435  0.50288217  0.25504608  1
  V  V46  1  0.00109903  0.25494752  0.25470130  1
  V  V47  1  0.00033369  0.00902110  -0.00515232  1
  V  V48  1  0.63059837  0.38218895  0.73778246  1
  V  V49  1  0.12074421  0.36720972  0.74863148  1
  V  V50  1  0.73333327  0.00148339  0.24651637  1
  V  V51  1  0.62802394  0.85222507  0.22111995  1
  V  V52  1  0.51270749  0.61272640  0.62333746  1
  V  V53  1  -0.00050309  0.37088278  0.86932295  1
  V  V54  1  0.74597405  0.50510406  0.26350703  1
  V  V55  1  -0.00708030  0.74346121  0.74621938  1
  V  V56  1  0.75090228  0.50532771  0.73894912  1
  V  V57  1  0.13816250  0.12227286  0.50025246  1
  V  V58  1  0.12356444  0.88072168  0.74414475  1
  V  V59  1  0.74214487  0.74271894  0.49076405  1
  V  V60  1  0.24497218  0.62210699  0.88285762  1
  V  V61  1  0.14189255  0.24589484  0.38035528  1
  V  V62  1  0.12741529  0.49742231  0.62572793  1
  V  V63  1  0.37900456  0.37751480  0.00550384  1
  V  V64  1  0.25416833  0.86938986  0.63210817  1
  V  V65  1  0.87263562  0.12398134  0.26352787  1
  V  V66  1  0.84981048  0.37962660  0.50113625  1
  V  V67  1  0.26265732  0.36271702  0.61635602  1
  V  V68  1  -0.01039672  0.62348677  0.62806399  1
  V  V69  1  -0.00027148  0.87687839  0.86914937  1
  V  V70  1  0.75708071  0.62696701  0.87850175  1
  V  V71  1  0.49919507  0.74917942  0.74918829  1
  V  V72  1  0.12255414  0.74232906  0.87732087  1
  V  V73  1  0.50031456  0.87674510  0.87205375  1
  V  V74  1  0.74816964  0.12830306  0.87094373  1
  V  V75  1  0.12947080  0.62825743  0.50460665  1
  V  V76  1  0.37275200  0.25352171  0.12954031  1
  V  V77  1  0.62209164  0.12486305  0.00262283  1
  V  V78  1  0.37582248  0.74578913  0.62227106  1
  Zn  Zn79  1  0.24245870  0.24154321  0.00402147  1
  Zn  Zn80  1  0.86109865  0.75505794  0.63008208  1
  Zn  Zn81  1  0.87180973  0.50074382  0.38119224  1
  Zn  Zn82  1  0.35950171  0.14700294  0.73689159  1
  Zn  Zn83  1  0.47694448  0.73551460  0.25354898  1
  Zn  Zn84  1  0.36079234  0.87910471  0.00473874  1
  Zn  Zn85  1  0.88022049  0.50682729  0.86498540  1
  Zn  Zn86  1  0.50360413  0.11169732  0.62510461  1
  Zn  Zn87  1  0.00996803  0.62651778  0.12217531  1
  Zn  Zn88  1  -0.00048167  0.37521556  0.37976950  1
  Zn  Zn89  1  0.24252309  0.75995340  0.00651150  1
  Zn  Zn90  1  0.36600207  0.75734568  0.12365378  1
  Zn  Zn91  1  0.41903437  0.36663069  0.50769970  1
  Zn  Zn92  1  0.37856936  0.62214629  0.75047424  1
  Zn  Zn93  1  0.24728945  0.38776831  0.12062622  1
  Zn  Zn94  1  0.19115718  0.18769465  0.19406054  1
  Zn  Zn95  1  0.18189958  0.18876120  0.68339469  1
  Zn  Zn96  1  0.15849575  0.72963259  0.18078931  1
  Zn  Zn97  1  0.18537864  0.68731610  0.69448312  1
  Zn  Zn98  1  0.69256587  0.18634692  0.18444968  1
  Zn  Zn99  1  0.67947025  0.18869143  0.67970685  1
  Zn  Zn100  1  0.70604249  0.68758005  0.17398907  1
  Zn  Zn101  1  0.68956103  0.68866487  0.68625596  1
  Zn  Zn102  1  0.31811868  0.31421347  0.31519486  1
  Zn  Zn103  1  0.31022994  0.31984482  0.81753640  1
  Zn  Zn104  1  0.30166390  0.80677960  0.31921629  1
  Zn  Zn105  1  0.29494904  0.82944480  0.84517791  1
  Zn  Zn106  1  0.81339613  0.31808934  0.31628163  1
  Zn  Zn107  1  0.81053721  0.31686023  0.80955141  1
  Zn  Zn108  1  0.81797907  0.82289605  0.31726780  1
  Zn  Zn109  1  0.80793465  0.81148933  0.81210731  1
  Zn  Zn110  1  0.19080404  0.43339060  0.43673392  1
  Zn  Zn111  1  0.19291527  0.42882422  0.93580974  1
  Zn  Zn112  1  0.18261876  0.93543906  0.45666732  1
  Zn  Zn113  1  0.18447371  0.94836370  0.93773686  1
  Zn  Zn114  1  0.62844957  0.40677645  0.47014837  1
  Zn  Zn115  1  0.69517527  0.44390857  0.93538578  1
  Zn  Zn116  1  0.70136178  0.94333667  0.42934848  1
  Zn  Zn117  1  0.68168155  0.94109362  0.92721533  1
  Zn  Zn118  1  0.29757493  0.06971785  0.07636175  1
  Zn  Zn119  1  0.32391107  0.05819521  0.56863778  1
  Zn  Zn120  1  0.23039691  0.60786365  0.09912182  1
  Zn  Zn121  1  0.32174496  0.55492033  0.56291156  1
  Zn  Zn122  1  0.81076107  0.06095287  0.06211946  1
  Zn  Zn123  1  0.81797958  0.05686151  0.55884872  1
  Zn  Zn124  1  0.81330781  0.57113681  0.06321775  1
  Zn  Zn125  1  0.80531748  0.56675523  0.55617205  1
  Zn  Zn126  1  0.43822572  0.44015145  0.19300428  1
  Zn  Zn127  1  0.44334810  0.42902017  0.69095942  1
  Zn  Zn128  1  0.41963247  0.90689859  0.20687272  1
  Zn  Zn129  1  0.43960414  0.93835736  0.68245866  1
  Zn  Zn130  1  0.93809934  0.43986808  0.18537809  1
  Zn  Zn131  1  0.93241683  0.43593355  0.68380099  1
  Zn  Zn132  1  0.90157459  0.95721627  0.16898089  1
  Zn  Zn133  1  0.93269183  0.93970037  0.67951853  1
  Zn  Zn134  1  0.06386200  0.06513726  0.30887687  1
  Zn  Zn135  1  0.06016344  0.06593863  0.80547432  1
  Zn  Zn136  1  0.07084927  0.56525998  0.31897726  1
  Zn  Zn137  1  0.06093789  0.55780702  0.81186818  1
  Zn  Zn138  1  0.55146710  0.05270320  0.31311691  1
  Zn  Zn139  1  0.56450870  0.06595991  0.81221688  1
  Zn  Zn140  1  0.55657247  0.55996067  0.30025554  1
  Zn  Zn141  1  0.56795357  0.56549749  0.81331989  1
  Zn  Zn142  1  0.43622628  0.17964245  0.43413586  1
  Zn  Zn143  1  0.39913158  0.16709918  0.95704512  1
  Zn  Zn144  1  0.44434297  0.68945841  0.44166236  1
  Zn  Zn145  1  0.43307369  0.68542794  0.94443619  1
  Zn  Zn146  1  0.94206371  0.19109474  0.44029987  1
  Zn  Zn147  1  0.93826730  0.19193661  0.93295375  1
  Zn  Zn148  1  0.92891758  0.69036536  0.43193192  1
  Zn  Zn149  1  0.94120140  0.68547494  0.93772960  1
  Zn  Zn150  1  0.06392602  0.31789108  0.06111230  1
  Zn  Zn151  1  0.06291351  0.30830729  0.56312352  1
  Zn  Zn152  1  0.04627330  0.81112303  0.05749216  1
  Zn  Zn153  1  0.06059250  0.81228091  0.56353813  1
  Zn  Zn154  1  0.56178160  0.31387325  0.06860995  1
  Zn  Zn155  1  0.54764218  0.26003856  0.55402817  1
  Zn  Zn156  1  0.52631308  0.81429949  0.07059171  1
  Zn  Zn157  1  0.56323771  0.80483646  0.55987651  1
  O  O158  1  0.11211472  0.13546189  0.12437315  1
  O  O159  1  0.11096099  0.14052557  0.60738361  1
  O  O160  1  0.12184424  0.63558514  0.13415433  1
  O  O161  1  0.12340701  0.61170071  0.62392993  1
  O  O162  1  0.61746833  0.13556117  0.11031314  1
  O  O163  1  0.59809796  0.16869121  0.60653773  1
  O  O164  1  0.63906532  0.62916593  0.10185123  1
  O  O165  1  0.61362756  0.62390840  0.62534357  1
  O  O166  1  0.37841431  0.37648525  0.38926526  1
  O  O167  1  0.38597359  0.38177024  0.88525875  1
  O  O168  1  0.36394059  0.86841849  0.39681883  1
  O  O169  1  0.39262376  0.88581029  0.86914778  1
  O  O170  1  0.87860320  0.37993274  0.38891208  1
  O  O171  1  0.88272652  0.37125755  0.88231938  1
  O  O172  1  0.88902431  0.86418813  0.40097582  1
  O  O173  1  0.88031659  0.88517369  0.87151281  1
  O  O174  1  0.23558466  -0.02356952  0.35029747  1
  O  O175  1  0.26508840  0.00014668  0.86472269  1
  O  O176  1  0.26327874  0.50169040  0.37819043  1
  O  O177  1  0.25627533  0.50171513  0.86739916  1
  O  O178  1  0.75588763  -0.00359493  0.34580122  1
  O  O179  1  0.75321012  0.01155213  0.86188940  1
  O  O180  1  0.75010779  0.50119386  0.36135773  1
  O  O181  1  0.75486806  0.51334449  0.86704531  1
  O  O182  1  0.25156501  0.50432158  0.15108274  1
  O  O183  1  0.24363795  0.49166428  0.63256420  1
  O  O184  1  0.22375432  0.99424379  0.11058136  1
  O  O185  1  0.26049630  0.98131633  0.64015013  1
  O  O186  1  0.75606745  0.48606214  0.12485155  1
  O  O187  1  0.74853121  0.51269466  0.64028896  1
  O  O188  1  0.78441617  0.99438921  0.15001686  1
  O  O189  1  0.74934999  1.00746005  0.63585195  1
  O  O190  1  0.00864417  0.36814417  0.25059270  1
  O  O191  1  0.00806632  0.38385684  0.75780246  1
  O  O192  1  -0.11236987  0.85775909  0.23018662  1
  O  O193  1  0.00419531  0.87356697  0.75340358  1
  O  O194  1  0.51344170  0.36186530  0.23998826  1
  O  O195  1  0.51516195  0.37581831  0.76874551  1
  O  O196  1  0.52808428  0.87828315  0.26297280  1
  O  O197  1  0.51113706  0.87079442  0.75429990  1
  O  O198  1  0.49648951  0.13087367  0.24162155  1
  O  O199  1  0.51262901  0.14819076  0.75144009  1
  O  O200  1  0.49105962  0.62280973  0.23408210  1
  O  O201  1  0.50346751  0.63328689  0.74188172  1
  O  O202  1  0.99543801  0.14256080  0.24033441  1
  O  O203  1  0.98323149  0.12302225  0.73853767  1
  O  O204  1  0.99307544  0.60180809  0.24483918  1
  O  O205  1  1.00419766  0.63191262  0.74154324  1
  O  O206  1  0.38790657  0.26642042  0.01563875  1
  O  O207  1  0.43418554  0.25250915  0.51466282  1
  O  O208  1  0.36495579  0.75612526  -0.00185158  1
  O  O209  1  0.38364112  0.76027063  0.51611923  1
  O  O210  1  0.87249839  0.25971834  0.00571445  1
  O  O211  1  0.86000562  0.25835478  0.49827706  1
  O  O212  1  0.87072337  0.76702356  -0.02470588  1
  O  O213  1  0.86479498  0.75320350  0.50465844  1
  O  O214  1  0.12127952  0.24014993  0.48690387  1
  O  O215  1  0.12567085  0.25605557  0.98578757  1
  O  O216  1  0.12334857  0.73015348  0.50755405  1
  O  O217  1  0.11913851  0.75729715  0.97975917  1
  O  O218  1  0.64305944  0.24633360  0.47698646  1
  O  O219  1  0.63010059  0.24513370  0.99425548  1
  O  O220  1  0.63550563  0.73972010  0.49968297  1
  O  O221  1  0.61555333  0.75149106  0.98645522  1
  O  O222  1  0.49476048  0.24060170  0.13412978  1
  O  O223  1  0.49265068  0.28012429  0.66014977  1
  O  O224  1  0.48657029  0.72680823  0.13123219  1
  O  O225  1  0.49541499  0.74134529  0.63291092  1
  O  O226  1  0.99392634  0.25033358  0.12966382  1
  O  O227  1  0.98073140  0.23868558  0.61025056  1
  O  O228  1  0.97511435  0.74455253  0.11752637  1
  O  O229  1  1.00437926  0.73743917  0.63329838  1
  O  O230  1  0.00598587  0.25352543  0.36431545  1
  O  O231  1  0.01008374  0.26429131  0.87830682  1
  O  O232  1  0.01822012  0.73817161  0.38112815  1
  O  O233  1  0.00368311  0.75631292  0.86462476  1
  O  O234  1  0.52020737  0.24103653  0.35987646  1
  O  O235  1  0.51442564  0.26673267  0.87355544  1
  O  O236  1  0.48994200  0.76560595  0.36766927  1
  O  O237  1  0.50555529  0.75680684  0.86704814  1
  O  O238  1  0.23632202  0.11262789  0.51002796  1
  O  O239  1  0.29160468  0.14083671  0.99275668  1
  O  O240  1  0.24187282  0.60984284  0.49476049  1
  O  O241  1  0.24321585  0.61837926  0.98203618  1
  O  O242  1  0.75805498  0.12605347  0.48847891  1
  O  O243  1  0.74322687  0.12965085  0.99484141  1
  O  O244  1  0.73808151  0.63246878  0.49060419  1
  O  O245  1  0.74120772  0.61927596  0.98403224  1
  O  O246  1  0.26373856  0.36750516  0.00359370  1
  O  O247  1  0.24406239  0.37269502  0.51819921  1
  O  O248  1  0.25658692  0.86590781  -0.04164885  1
  O  O249  1  0.26273687  0.88063415  0.51942601  1
  O  O250  1  0.75739583  0.37078418  0.00518280  1
  O  O251  1  0.75039073  0.38015787  0.49606717  1
  O  O252  1  0.76077087  0.88421075  -0.01500014  1
  O  O253  1  0.76141855  0.87131496  0.49991453  1
  O  O254  1  0.14062455  0.48488790  0.27032036  1
  O  O255  1  0.13276317  0.49028827  0.74250415  1
  O  O256  1  0.11088496  1.00392100  0.22622834  1
  O  O257  1  0.13346787  0.99038991  0.75670285  1
  O  O258  1  0.63694254  0.48976118  0.25208864  1
  O  O259  1  0.63395924  0.48948998  0.75675295  1
  O  O260  1  0.63362473  1.01289045  0.23702911  1
  O  O261  1  0.62903954  0.98765247  0.75339094  1
  O  O262  1  0.38773150  0.00842019  0.24539610  1
  O  O263  1  0.36866305  -0.00655645  0.75814061  1
  O  O264  1  0.36094000  0.48410133  0.26977149  1
  O  O265  1  0.36666473  0.49422055  0.76116566  1
  O  O266  1  0.89897756  0.02793855  0.25889435  1
  O  O267  1  0.86479983  0.01122682  0.74954929  1
  O  O268  1  0.86432699  0.49731887  0.25372151  1
  O  O269  1  0.85800669  0.49236058  0.75062504  1
  O  O270  1  0.12401544  0.35962159  0.37118585  1
  O  O271  1  0.11820114  0.36987788  0.86525259  1
  O  O272  1  0.13178663  0.84830356  0.41081345  1
  O  O273  1  0.11381044  0.86899945  0.86151340  1
  O  O274  1  0.63119928  0.36278826  0.35849926  1
  O  O275  1  0.62222407  0.37121699  0.88227446  1
  O  O276  1  0.62493522  0.86149081  0.38336759  1
  O  O277  1  0.61855546  0.86780302  0.86307145  1
  O  O278  1  0.38552241  0.13378704  0.13628267  1
  O  O279  1  0.39118335  0.11651046  0.63445972  1
  O  O280  1  0.37279277  0.61441169  0.11671075  1
  O  O281  1  0.38446472  0.63118118  0.62695658  1
  O  O282  1  0.88496561  0.14007188  0.12811844  1
  O  O283  1  0.87763149  0.13234448  0.62776278  1
  O  O284  1  0.88462250  0.61124637  0.14052364  1
  O  O285  1  0.88872666  0.62457750  0.61837888  1
  O  O286  1  0.26533665  0.25272126  0.12832906  1
  O  O287  1  0.25300474  0.26461414  0.63615473  1
  O  O288  1  0.25228798  0.72881111  0.11658316  1
  O  O289  1  0.26324433  0.75763266  0.64153147  1
  O  O290  1  0.76143721  0.25693908  0.11912012  1
  O  O291  1  0.75750943  0.23939156  0.60134660  1
  O  O292  1  0.79077106  0.75286158  0.12843391  1
  O  O293  1  0.75038948  0.74155017  0.60764426  1
  O  O294  1  0.24040127  0.24872111  0.37284711  1
  O  O295  1  0.23365902  0.25614620  0.87403127  1
  O  O296  1  0.24819994  0.72863246  0.38167633  1
  O  O297  1  0.23658606  0.73368629  0.86284376  1
  O  O298  1  0.74544167  0.24580924  0.37789941  1
  O  O299  1  0.74293788  0.24841017  0.88050752  1
  O  O300  1  0.75598761  0.75874699  0.39189692  1
  O  O301  1  0.73814724  0.73495131  0.86335665  1
  O  O302  1  -0.00917410  0.11880450  0.00496206  1
  O  O303  1  -0.00107858  0.11427080  0.50308170  1
  O  O304  1  -0.00432858  0.60570182  -0.00310189  1
  O  O305  1  0.00969887  0.61186299  0.51167542  1
  O  O306  1  0.50287380  0.12254509  0.00457593  1
  O  O307  1  0.49884961  0.09377491  0.48483189  1
  O  O308  1  0.50933094  0.62418480  0.01130044  1
  O  O309  1  0.51420998  0.63105390  0.51358829  1
  O  O310  1  0.53459532  0.36832127  0.51735563  1
  O  O311  1  0.49645880  0.37664017  0.99499041  1
  O  O312  1  0.49595810  0.87330111  0.49032428  1
  O  O313  1  0.51510236  0.89047850  0.97998677  1
  O  O314  1  0.99699717  0.38546690  0.50515466  1
  O  O315  1  0.99430440  0.38386938  0.99072373  1
  O  O316  1  1.00952411  0.89577203  0.50648048  1
  O  O317  1  0.99294888  0.88372529  0.97723191  1
  O  O318  1  0.48283037  0.49889429  0.36590822  1
  O  O319  1  0.49090593  0.49526597  0.86967976  1
  O  O320  1  0.50525047  0.97372725  0.38304554  1
  O  O321  1  0.49447324  0.99632744  0.87402167  1
  O  O322  1  1.00581892  0.49745335  0.39325975  1
  O  O323  1  0.99729754  0.49017071  0.88310260  1
  O  O324  1  1.00444536  1.00430999  0.38627080  1
  O  O325  1  0.99389629  0.99678870  0.87433971  1
  O  O326  1  0.00241067  0.01121989  0.11234265  1
  O  O327  1  -0.00438755  0.01659504  0.61708134  1
  O  O328  1  0.00197509  0.49162667  0.10498581  1
  O  O329  1  0.00884937  0.50427310  0.62319694  1
  O  O330  1  0.49789107  0.01522120  0.10866072  1
  O  O331  1  0.50840861  -0.00841046  0.60892482  1
  O  O332  1  0.49591390  0.51179451  0.12805367  1
  O  O333  1  0.49542658  0.51524031  0.63426029  1
  O  O334  1  0.24450938  0.38095335  0.25257775  1
  O  O335  1  0.24269472  0.38366234  0.74343183  1
  O  O336  1  0.24350818  0.92514505  0.29572864  1
  O  O337  1  0.24118711  0.88147565  0.75128173  1
  O  O338  1  0.74796684  0.38404498  0.24294285  1
  O  O339  1  0.73874054  0.38886970  0.75703057  1
  O  O340  1  0.72479108  0.88496774  0.25056686  1
  O  O341  1  0.73752864  0.88363693  0.75275236  1
  O  O342  1  0.26831643  0.11937654  0.23988536  1
  O  O343  1  0.24593142  0.11048127  0.73818319  1
  O  O344  1  0.24889037  0.60565149  0.27656224  1
  O  O345  1  0.25150835  0.60917745  0.75474024  1
  O  O346  1  0.76580517  0.11773462  0.24215697  1
  O  O347  1  0.75090375  0.12208960  0.75043386  1
  O  O348  1  0.75787965  0.60540592  0.23982988  1
  O  O349  1  0.73642264  0.61277222  0.76343978  1
  O  O350  1  0.37979422  0.12805836  0.35435187  1
  O  O351  1  0.38729529  0.11045290  0.85644076  1
  O  O352  1  0.36611762  0.61669575  0.39178144  1
  O  O353  1  0.36696423  0.61597812  0.87160347  1
  O  O354  1  0.87655331  0.14247958  0.36052076  1
  O  O355  1  0.86911769  0.12749569  0.86235589  1
  O  O356  1  0.88326096  0.61359959  0.35980058  1
  O  O357  1  0.86052835  0.62746852  0.87585951  1
  O  O358  1  0.13113992  0.36547872  0.14234286  1
  O  O359  1  0.12865125  0.38000948  0.63207801  1
  O  O360  1  0.11218317  0.87650416  0.12505085  1
  O  O361  1  0.13673081  0.86489574  0.63805554  1
  O  O362  1  0.63944919  0.36249452  0.13779214  1
  O  O363  1  0.62918993  0.37497547  0.64291782  1
  O  O364  1  0.61641097  0.86696669  0.12396809  1
  O  O365  1  0.62168112  0.86755602  0.63951043  1
  O  O366  1  0.12113275  0.25395927  0.26252579  1
  O  O367  1  0.12562565  0.26211969  0.75739926  1
  O  O368  1  0.13839799  0.77152481  0.27798306  1
  O  O369  1  0.11275845  0.75870206  0.75661428  1
  O  O370  1  0.62666545  0.25131670  0.25521416  1
  O  O371  1  0.62510586  0.26624829  0.76269416  1
  O  O372  1  0.63262477  0.75281458  0.23492593  1
  O  O373  1  0.61729022  0.76022826  0.75565760  1
  O  O374  1  0.38714158  0.25121836  0.24432506  1
  O  O375  1  0.39050386  0.25220049  0.77424710  1
  O  O376  1  0.37577912  0.79867138  0.23722581  1
  O  O377  1  0.39165263  0.74912361  0.74348314  1
  O  O378  1  0.88222546  0.25123369  0.24120305  1
  O  O379  1  0.85993787  0.24204065  0.73474964  1
  O  O380  1  0.87402407  0.71901884  0.25401352  1
  O  O381  1  0.88888003  0.75837338  0.74748566  1
  O  O382  1  0.38237762  0.48837357  0.49248082  1
  O  O383  1  0.37066938  0.48888681  0.98752634  1
  O  O384  1  0.38665588  0.97953603  0.50652359  1
  O  O385  1  0.38743909  1.00104699  0.97988611  1
  O  O386  1  0.88074459  0.49285667  0.50452629  1
  O  O387  1  0.87587823  0.48738372  0.99596366  1
  O  O388  1  0.88551346  0.98750372  0.49942036  1
  O  O389  1  0.88244541  0.99712108  0.98723197  1
  O  O390  1  0.10607490  -0.00471841  0.00496435  1
  O  O391  1  0.11403989  0.01751900  0.49720905  1
  O  O392  1  0.11783083  0.49305485  -0.00496232  1
  O  O393  1  0.11952673  0.50147345  0.51166769  1
  O  O394  1  0.61460083  0.01775551  -0.01491016  1
  O  O395  1  0.61999397  -0.01145102  0.49441898  1
  O  O396  1  0.62285015  0.50842444  -0.00277154  1
  O  O397  1  0.63251945  0.51729725  0.49502242  1
  O  O398  1  0.37569273  0.37060001  0.12106330  1
  O  O399  1  0.36507056  0.38193965  0.62074816  1
  O  O400  1  0.41829644  0.87045872  0.10077821  1
  O  O401  1  0.37194138  0.86333049  0.62380100  1
  O  O402  1  0.87029928  0.36662932  0.11606916  1
  O  O403  1  0.87448461  0.36390139  0.61389030  1
  O  O404  1  0.89024216  0.87292429  0.08773793  1
  O  O405  1  0.88911124  0.86713023  0.60671107  1
  O  O406  1  0.12366318  0.13627707  0.38474131  1
  O  O407  1  0.11571955  0.14363403  0.86644458  1
  O  O408  1  0.13616374  0.63022622  0.38857562  1
  O  O409  1  0.13049935  0.63209470  0.86417474  1
  O  O410  1  0.62943216  0.12985488  0.36303171  1
  O  O411  1  0.62863015  0.13919790  0.88221916  1
  O  O412  1  0.60825510  0.62424527  0.38188565  1
  O  O413  1  0.62725922  0.63170071  0.88853583  1
