# generated using pymatgen
data_V79Zn79O256
_symmetry_space_group_name_H-M   'P 1'
_cell_length_a   16.91139365
_cell_length_b   16.90566682
_cell_length_c   16.91289957
_cell_angle_alpha   90.06025649
_cell_angle_beta   90.07680733
_cell_angle_gamma   90.01146166
_symmetry_Int_Tables_number   1
_chemical_formula_structural   V79Zn79O256
_chemical_formula_sum   'V79 Zn79 O256'
_cell_volume   4835.36358080
_cell_formula_units_Z   1
loop_
 _symmetry_equiv_pos_site_id
 _symmetry_equiv_pos_as_xyz
  1  'x, y, z'
loop_
 _atom_site_type_symbol
 _atom_site_label
 _atom_site_symmetry_multiplicity
 _atom_site_fract_x
 _atom_site_fract_y
 _atom_site_fract_z
 _atom_site_occupancy
  V  V0  1  0.38043781  0.88097284  0.49777980  1
  V  V1  1  0.24760127  -0.00236237  0.74978847  1
  V  V2  1  0.43670978  0.44182322  0.94555139  1
  V  V3  1  0.25567395  0.24459245  0.00540702  1
  V  V4  1  0.76701623  0.50850234  0.24847825  1
  V  V5  1  0.25085649  0.87693849  0.62407648  1
  V  V6  1  0.76881668  0.62770080  0.37371656  1
  V  V7  1  0.87502160  0.87832106  0.49898274  1
  V  V8  1  0.22174152  0.39492614  0.12123905  1
  V  V9  1  0.62396383  0.86877374  0.75591407  1
  V  V10  1  0.11761022  0.74787771  0.37163379  1
  V  V11  1  0.24123721  0.74035663  0.49834912  1
  V  V12  1  0.61079134  0.86880932  0.25692046  1
  V  V13  1  0.74556865  0.87510635  0.62703707  1
  V  V14  1  0.37566679  0.12882304  0.25097428  1
  V  V15  1  0.75688953  0.10768214  0.38366607  1
  V  V16  1  0.12112297  -0.00646873  0.62736039  1
  V  V17  1  0.24950410  0.12695354  0.87328631  1
  V  V18  1  0.59495729  0.51326673  0.58346806  1
  V  V19  1  0.12142495  0.25599284  0.36707115  1
  V  V20  1  -0.01280520  0.24526452  0.23572993  1
  V  V21  1  0.38387417  0.24741869  0.62181650  1
  V  V22  1  0.37265384  0.87513483  -0.00068652  1
  V  V23  1  0.37734059  0.25846391  0.12075452  1
  V  V24  1  0.74317504  0.49478410  0.74817834  1
  V  V25  1  0.72933786  0.62613369  0.87412103  1
  V  V26  1  0.15765009  0.37342159  0.74247105  1
  V  V27  1  0.00031554  0.26323304  0.75796967  1
  V  V28  1  0.87030281  -0.00249686  0.86861682  1
  V  V29  1  0.75645092  0.24789274  0.00452213  1
  V  V30  1  0.88185752  0.51456239  0.87239055  1
  V  V31  1  0.00312630  0.87512073  0.87061488  1
  V  V32  1  0.49917856  0.63473602  0.12094417  1
  V  V33  1  0.74792488  0.12147344  0.86969695  1
  V  V34  1  0.50334954  0.37785149  0.38678252  1
  V  V35  1  0.50275330  0.01919432  0.50381600  1
  V  V36  1  0.12568458  0.62072277  -0.00027026  1
  V  V37  1  0.24704924  0.13053917  0.37887989  1
  V  V38  1  0.39070941  0.12619304  0.74390122  1
  V  V39  1  0.87248386  0.86665496  -0.00067257  1
  V  V40  1  0.10946181  0.00067846  0.12598895  1
  V  V41  1  -0.00269608  0.13581056  0.62772475  1
  V  V42  1  0.50191592  0.73841899  0.75477346  1
  V  V43  1  0.25166992  0.75490816  0.00097852  1
  V  V44  1  0.37475378  0.62462870  0.75091511  1
  V  V45  1  0.24850681  0.00116868  0.24262662  1
  V  V46  1  0.63523634  0.24454765  0.38671019  1
  V  V47  1  0.00974244  0.49606587  -0.00178364  1
  V  V48  1  -0.01385369  0.37334863  0.37654433  1
  V  V49  1  0.76067837  0.37359629  0.12420335  1
  V  V50  1  0.25048913  0.50588361  0.71463408  1
  V  V51  1  0.25114595  0.61461708  0.87529217  1
  V  V52  1  0.86109088  0.36527694  0.51010926  1
  V  V53  1  0.62857358  -0.00156630  0.13491033  1
  V  V54  1  0.11867745  0.12157808  0.00494919  1
  V  V55  1  -0.00016492  0.88470556  0.37889104  1
  V  V56  1  0.62560504  0.12145488  0.00117021  1
  V  V57  1  0.12336291  0.87790589  0.24748849  1
  V  V58  1  -0.00032041  0.62678944  0.12991399  1
  V  V59  1  0.73422683  0.74119960  0.00099645  1
  V  V60  1  0.87525542  0.12783138  0.74728455  1
  V  V61  1  0.87077001  0.73898722  0.63491055  1
  V  V62  1  0.87062372  0.10595779  0.24008861  1
  V  V63  1  0.39267696  0.73692378  0.60536916  1
  V  V64  1  0.61341338  0.25944185  0.86921974  1
  V  V65  1  0.36695785  0.75542549  0.13784333  1
  V  V66  1  0.50345138  0.12377261  0.12615816  1
  V  V67  1  0.50375108  0.25085172  0.24758465  1
  V  V68  1  0.12698779  0.75476575  0.86914940  1
  V  V69  1  0.74797568  0.87430364  0.13182145  1
  V  V70  1  0.88029962  0.37364549  -0.01013284  1
  V  V71  1  0.38024461  0.00136823  0.37532896  1
  V  V72  1  0.36217978  0.37608131  0.49827261  1
  V  V73  1  0.61999743  0.00558339  0.62707054  1
  V  V74  1  0.12120412  0.12574150  0.49996160  1
  V  V75  1  0.62820101  0.37757601  0.24738925  1
  V  V76  1  0.61057885  0.73928971  0.37333709  1
  V  V77  1  -0.00497521  0.73789443  0.75295279  1
  V  V78  1  0.62085532  0.50423736  0.11157200  1
  Zn  Zn79  1  0.24907502  0.62696167  0.36526112  1
  Zn  Zn80  1  0.87250818  0.73476373  0.14805522  1
  Zn  Zn81  1  0.36077154  0.59779697  0.24196918  1
  Zn  Zn82  1  -0.01105670  0.00563432  0.50370115  1
  Zn  Zn83  1  0.74217327  0.73929569  0.50418303  1
  Zn  Zn84  1  0.49996252  -0.00575861  -0.00100756  1
  Zn  Zn85  1  -0.00635655  0.00164706  0.00271015  1
  Zn  Zn86  1  0.05574193  0.58940063  0.58432989  1
  Zn  Zn87  1  0.38413329  0.50461234  0.37351320  1
  Zn  Zn88  1  0.38055376  -0.00395807  0.86893532  1
  Zn  Zn89  1  0.98130021  0.52120067  0.45736599  1
  Zn  Zn90  1  0.50359537  0.86434792  0.87998924  1
  Zn  Zn91  1  0.73922369  0.37236279  0.62915201  1
  Zn  Zn92  1  0.12275653  0.25868162  0.88238423  1
  Zn  Zn93  1  0.22589122  0.26598749  0.52768950  1
  Zn  Zn94  1  0.18522021  0.18840216  0.18946723  1
  Zn  Zn95  1  0.18881384  0.18879865  0.68927324  1
  Zn  Zn96  1  0.18434023  0.68772183  0.18718660  1
  Zn  Zn97  1  0.19045583  0.68928637  0.68738850  1
  Zn  Zn98  1  0.69646946  0.18501834  0.19271490  1
  Zn  Zn99  1  0.68697019  0.18942667  0.68917761  1
  Zn  Zn100  1  0.68544686  0.68807405  0.18875611  1
  Zn  Zn101  1  0.68280670  0.67733713  0.68566389  1
  Zn  Zn102  1  0.32376981  0.36580935  0.28636379  1
  Zn  Zn103  1  0.42838847  0.31237004  0.81238369  1
  Zn  Zn104  1  0.30499930  0.81929377  0.31703947  1
  Zn  Zn105  1  0.31789772  0.80777496  0.81084240  1
  Zn  Zn106  1  0.81416950  0.30753066  0.31006987  1
  Zn  Zn107  1  0.80991024  0.31050022  0.81457916  1
  Zn  Zn108  1  0.80679748  0.81050748  0.31499376  1
  Zn  Zn109  1  0.80665754  0.80628839  0.81535496  1
  Zn  Zn110  1  0.17592133  0.44788784  0.45866814  1
  Zn  Zn111  1  0.25376818  0.40022844  0.90515673  1
  Zn  Zn112  1  0.18666927  0.94192999  0.43729716  1
  Zn  Zn113  1  0.18860557  0.94040762  0.93886098  1
  Zn  Zn114  1  0.68916570  0.44610573  0.43284360  1
  Zn  Zn115  1  0.69426610  0.43627015  0.93577128  1
  Zn  Zn116  1  0.68432195  0.93230144  0.44114077  1
  Zn  Zn117  1  0.68932913  0.93553057  0.93982789  1
  Zn  Zn118  1  0.31242175  0.06424579  0.06526300  1
  Zn  Zn119  1  0.31072533  0.06690859  0.56393207  1
  Zn  Zn120  1  0.31167450  0.56756396  0.06282579  1
  Zn  Zn121  1  0.40848281  0.56871328  0.55366124  1
  Zn  Zn122  1  0.81368468  0.05593740  0.06078203  1
  Zn  Zn123  1  0.80436327  0.06391079  0.56621774  1
  Zn  Zn124  1  0.81702383  0.56065376  0.06107923  1
  Zn  Zn125  1  0.82348375  0.55552924  0.55552516  1
  Zn  Zn126  1  0.44334360  0.44372509  0.18580412  1
  Zn  Zn127  1  0.43666494  0.43837630  0.67781863  1
  Zn  Zn128  1  0.43691350  0.93874805  0.18587427  1
  Zn  Zn129  1  0.43943154  0.93037488  0.68628131  1
  Zn  Zn130  1  0.95127720  0.43457305  0.18457101  1
  Zn  Zn131  1  0.91331471  0.44340824  0.67850642  1
  Zn  Zn132  1  0.91926521  0.90713969  0.20583232  1
  Zn  Zn133  1  0.93606539  0.93442743  0.68814394  1
  Zn  Zn134  1  0.05452028  0.06365540  0.31021344  1
  Zn  Zn135  1  0.06164892  0.06227350  0.81429065  1
  Zn  Zn136  1  0.08229627  0.55118113  0.30465790  1
  Zn  Zn137  1  0.03888620  0.52804516  0.76655183  1
  Zn  Zn138  1  0.56813611  0.06282861  0.31653447  1
  Zn  Zn139  1  0.56443341  0.05283922  0.81704450  1
  Zn  Zn140  1  0.55965072  0.56365950  0.30112035  1
  Zn  Zn141  1  0.56122191  0.44433240  0.81032606  1
  Zn  Zn142  1  0.43868643  0.19577609  0.43682271  1
  Zn  Zn143  1  0.43726547  0.17992417  0.93697972  1
  Zn  Zn144  1  0.42686261  0.69319140  0.42214565  1
  Zn  Zn145  1  0.51339150  0.62449533  0.90676914  1
  Zn  Zn146  1  0.93149877  0.18736206  0.43509674  1
  Zn  Zn147  1  0.93805279  0.18707859  0.93418820  1
  Zn  Zn148  1  0.93563740  0.70075469  0.44074605  1
  Zn  Zn149  1  0.93858070  0.68819888  0.94228073  1
  Zn  Zn150  1  0.06282972  0.31008294  0.05954927  1
  Zn  Zn151  1  0.05200952  0.41583669  0.57957770  1
  Zn  Zn152  1  0.06176868  0.81217316  0.06316396  1
  Zn  Zn153  1  0.06889788  0.78626061  0.57645443  1
  Zn  Zn154  1  0.56590678  0.31453415  0.05810191  1
  Zn  Zn155  1  0.58519656  0.30523007  0.58851031  1
  Zn  Zn156  1  0.55631835  0.81074019  0.06806770  1
  Zn  Zn157  1  0.56302336  0.80925194  0.55686049  1
  O  O158  1  0.13012402  0.11469676  0.11455851  1
  O  O159  1  0.11726762  0.11907214  0.61880513  1
  O  O160  1  0.12000154  0.63171961  0.10600809  1
  O  O161  1  0.11235010  0.68029143  0.61141921  1
  O  O162  1  0.62580704  0.11819642  0.12109937  1
  O  O163  1  0.62604638  0.10315503  0.63745433  1
  O  O164  1  0.61209131  0.61401410  0.13482757  1
  O  O165  1  0.63418728  0.60064815  0.61960765  1
  O  O166  1  0.38918166  0.36123090  0.38322655  1
  O  O167  1  0.37008653  0.38253179  0.88626232  1
  O  O168  1  0.36558583  0.89474742  0.38237885  1
  O  O169  1  0.37659780  0.87292002  0.88828900  1
  O  O170  1  0.88289677  0.37270181  0.37745593  1
  O  O171  1  0.86479272  0.38777285  0.88650461  1
  O  O172  1  0.87872574  0.86843223  0.39379749  1
  O  O173  1  0.87512789  0.87956021  0.88020642  1
  O  O174  1  0.25768793  0.01343465  0.36953202  1
  O  O175  1  0.25388298  0.00517823  0.86562511  1
  O  O176  1  0.22528789  0.50627266  0.37070204  1
  O  O177  1  0.25177018  0.51523295  0.88160649  1
  O  O178  1  0.74183993  0.00839827  0.37739025  1
  O  O179  1  0.75507227  0.01132495  0.87870453  1
  O  O180  1  0.74894630  0.51357586  0.35653609  1
  O  O181  1  0.75659561  0.51301988  0.87507291  1
  O  O182  1  0.24807473  0.49169438  0.11991379  1
  O  O183  1  0.23955692  0.51496827  0.62027532  1
  O  O184  1  0.24504840  1.00435595  0.13914801  1
  O  O185  1  0.24276406  0.99711491  0.63098918  1
  O  O186  1  0.74403219  0.49578820  0.13304979  1
  O  O187  1  0.76590816  0.50427687  0.64762890  1
  O  O188  1  0.73575279  0.98725405  0.11503289  1
  O  O189  1  0.73036140  0.98794414  0.61854783  1
  O  O190  1  -0.00770089  0.35565662  0.25836989  1
  O  O191  1  -0.00706103  0.36158962  0.74987041  1
  O  O192  1  0.01635156  0.88741562  0.26520736  1
  O  O193  1  -0.00757254  0.86548431  0.76595769  1
  O  O194  1  0.51150696  0.36527395  0.25127566  1
  O  O195  1  0.49475577  0.37808011  0.74961730  1
  O  O196  1  0.51135316  0.87684231  0.24862376  1
  O  O197  1  0.50693939  0.86220686  0.75566367  1
  O  O198  1  0.49911345  0.13331224  0.24713083  1
  O  O199  1  0.48833135  0.11571719  0.75360533  1
  O  O200  1  0.48141742  0.60012396  0.22531910  1
  O  O201  1  0.48946124  0.63517591  0.74495838  1
  O  O202  1  0.98201258  0.13359271  0.25666576  1
  O  O203  1  0.99298078  0.12840358  0.74662007  1
  O  O204  1  1.02196945  0.60766258  0.22617227  1
  O  O205  1  1.00330128  0.63905756  0.75830225  1
  O  O206  1  0.36739779  0.23619257  0.00926019  1
  O  O207  1  0.36990199  0.25535482  0.50787131  1
  O  O208  1  0.36359503  0.76245799  0.00951959  1
  O  O209  1  0.35267348  0.76761553  0.49265793  1
  O  O210  1  0.86473865  0.25653198  -0.00964637  1
  O  O211  1  0.87316152  0.26551408  0.49324414  1
  O  O212  1  0.86637649  0.75966687  0.00090781  1
  O  O213  1  0.86868012  0.76300961  0.51857014  1
  O  O214  1  0.12297878  0.23420907  0.48438948  1
  O  O215  1  0.13450664  0.23804400  1.00117686  1
  O  O216  1  0.13660624  0.76853628  0.48272959  1
  O  O217  1  0.13480858  0.74774335  0.99366642  1
  O  O218  1  0.61366609  0.25172001  0.48183504  1
  O  O219  1  0.63353612  0.23888214  0.99407366  1
  O  O220  1  0.62729423  0.75521348  0.47931757  1
  O  O221  1  0.63519108  0.75046323  1.00714474  1
  O  O222  1  0.49932874  0.24431784  0.12975231  1
  O  O223  1  0.48421512  0.25575898  0.61959527  1
  O  O224  1  0.48901609  0.74016617  0.13096743  1
  O  O225  1  0.49180571  0.76440631  0.63713690  1
  O  O226  1  1.00360483  0.24921412  0.13724821  1
  O  O227  1  1.00031937  0.23628939  0.64270697  1
  O  O228  1  0.99960689  0.73203661  0.11910527  1
  O  O229  1  0.97722903  0.76265641  0.64061876  1
  O  O230  1  0.00619732  0.25500296  0.36770826  1
  O  O231  1  0.00605025  0.24718274  0.86332776  1
  O  O232  1  0.01237066  0.76684415  0.38130225  1
  O  O233  1  0.00568934  0.75566133  0.87281388  1
  O  O234  1  0.51135048  0.25510645  0.36332507  1
  O  O235  1  0.50881107  0.24964495  0.88046271  1
  O  O236  1  0.51123359  0.74676163  0.36971024  1
  O  O237  1  0.50116455  0.73941823  0.85870079  1
  O  O238  1  0.23947760  0.12430913  0.49238941  1
  O  O239  1  0.24351587  0.12401141  0.99268940  1
  O  O240  1  0.24679186  0.64272443  0.49367994  1
  O  O241  1  0.24638040  0.63563662  0.99319450  1
  O  O242  1  0.75587963  0.12462282  0.48423895  1
  O  O243  1  0.74457334  0.13009022  0.99338194  1
  O  O244  1  0.76057911  0.62023242  0.47823135  1
  O  O245  1  0.75163151  0.63564804  0.99723436  1
  O  O246  1  0.24643446  0.35569540  0.01672034  1
  O  O247  1  0.25780873  0.37013817  0.48601357  1
  O  O248  1  0.25976289  0.86773213  -0.00394026  1
  O  O249  1  0.25983733  0.88780435  0.51124899  1
  O  O250  1  0.75803008  0.36671028  0.00595331  1
  O  O251  1  0.75913648  0.38378029  0.49659719  1
  O  O252  1  0.75127414  0.86068200  0.00390826  1
  O  O253  1  0.75663535  0.86933236  0.50906889  1
  O  O254  1  0.17959931  0.48775037  0.30317317  1
  O  O255  1  0.14521399  0.48427982  0.75088239  1
  O  O256  1  0.12984194  1.00089573  0.24312119  1
  O  O257  1  0.13616192  1.00534891  0.74008423  1
  O  O258  1  0.63383698  0.48763601  0.24101870  1
  O  O259  1  0.64320006  0.50217082  0.75840259  1
  O  O260  1  0.62118862  0.98936074  0.24186947  1
  O  O261  1  0.61194411  0.98006153  0.73583967  1
  O  O262  1  0.37031070  0.00648347  0.25662402  1
  O  O263  1  0.36652741  0.00940049  0.74314287  1
  O  O264  1  0.36607420  0.47491504  0.26138435  1
  O  O265  1  0.35943117  0.51229603  0.73067215  1
  O  O266  1  0.87991974  0.00669346  0.24971479  1
  O  O267  1  0.87708131  0.00799446  0.76197544  1
  O  O268  1  0.86427333  0.49372516  0.24163284  1
  O  O269  1  0.86617286  0.50052784  0.76996261  1
  O  O270  1  0.12034308  0.35581010  0.38013428  1
  O  O271  1  0.15568425  0.36597335  0.85277805  1
  O  O272  1  0.11862768  0.87560658  0.36975494  1
  O  O273  1  0.11433176  0.86771514  0.88497819  1
  O  O274  1  0.61867541  0.36646261  0.36680040  1
  O  O275  1  0.62589412  0.36345063  0.87868748  1
  O  O276  1  0.63047043  0.86634864  0.36056958  1
  O  O277  1  0.62800478  0.87611079  0.85936746  1
  O  O278  1  0.38525574  0.12908811  0.13294683  1
  O  O279  1  0.37751721  0.13221285  0.63348090  1
  O  O280  1  0.37890932  0.64173512  0.12431704  1
  O  O281  1  0.35722524  0.63840544  0.63825413  1
  O  O282  1  0.86431238  0.11926717  0.13877292  1
  O  O283  1  0.88092469  0.11530220  0.63859347  1
  O  O284  1  0.89151734  0.62343976  0.12276168  1
  O  O285  1  0.86405079  0.64144907  0.62570535  1
  O  O286  1  0.26242687  0.23426580  0.11564478  1
  O  O287  1  0.26772248  0.24428137  0.62868990  1
  O  O288  1  0.25918984  0.74834112  0.11551930  1
  O  O289  1  0.25702330  0.76092044  0.61047993  1
  O  O290  1  0.74394649  0.25975257  0.11380962  1
  O  O291  1  0.69127406  0.27080406  0.61811611  1
  O  O292  1  0.75279998  0.75350485  0.11513564  1
  O  O293  1  0.75395390  0.75515376  0.62678673  1
  O  O294  1  0.23268739  0.23607102  0.36736320  1
  O  O295  1  0.25296680  0.23398123  0.89008300  1
  O  O296  1  0.23862317  0.75488771  0.38494091  1
  O  O297  1  0.24462496  0.74648558  0.87949348  1
  O  O298  1  0.73659239  0.25413006  0.37413205  1
  O  O299  1  0.73968173  0.24106263  0.88529505  1
  O  O300  1  0.74146866  0.73551229  0.37098655  1
  O  O301  1  0.74814512  0.73734424  0.88879228  1
  O  O302  1  0.01381450  0.12194019  -0.00869544  1
  O  O303  1  0.00239460  0.12506598  0.50971942  1
  O  O304  1  0.00826033  0.61691003  0.00312348  1
  O  O305  1  -0.02284897  0.62161101  0.50519002  1
  O  O306  1  0.51226664  0.12335882  0.00738681  1
  O  O307  1  0.49891293  0.11797473  0.50276926  1
  O  O308  1  0.49803333  0.62427169  0.02077693  1
  O  O309  1  0.45234072  0.67097338  0.53027005  1
  O  O310  1  0.49504068  0.37003559  0.48635927  1
  O  O311  1  0.49724691  0.37862719  0.99582651  1
  O  O312  1  0.48315799  0.87795996  0.50054234  1
  O  O313  1  0.48744839  0.87003407  0.99846720  1
  O  O314  1  0.99199779  0.36932407  0.48254329  1
  O  O315  1  0.99052095  0.38100941  1.00108555  1
  O  O316  1  0.98513175  0.87359757  0.50090260  1
  O  O317  1  0.98840554  0.87362494  0.99030649  1
  O  O318  1  0.50435199  0.47921025  0.36668731  1
  O  O319  1  0.49568010  0.50766263  0.88612793  1
  O  O320  1  0.49073517  1.00976573  0.38795692  1
  O  O321  1  0.49653861  0.98928911  0.88235138  1
  O  O322  1  1.00873943  0.47570086  0.35539134  1
  O  O323  1  0.98700667  0.50522704  0.87553388  1
  O  O324  1  1.00357798  0.98947839  0.38620984  1
  O  O325  1  0.99136132  0.99073375  0.87626150  1
  O  O326  1  0.00879787  -0.00360718  0.12407455  1
  O  O327  1  0.00887447  0.00565348  0.62890321  1
  O  O328  1  -0.00236212  0.50803087  0.10665226  1
  O  O329  1  0.00765904  0.50139617  0.65420940  1
  O  O330  1  0.51121130  0.00565090  0.12175740  1
  O  O331  1  0.50570752  -0.00493517  0.61244598  1
  O  O332  1  0.51854187  0.49414735  0.11693085  1
  O  O333  1  0.49170918  0.50989877  0.60632742  1
  O  O334  1  0.24199295  0.35283249  0.21332283  1
  O  O335  1  0.25885158  0.39246645  0.73155780  1
  O  O336  1  0.23597779  0.89285410  0.26076067  1
  O  O337  1  0.26189622  0.88480657  0.73654259  1
  O  O338  1  0.74686444  0.38206600  0.24233984  1
  O  O339  1  0.75389221  0.38937748  0.75358941  1
  O  O340  1  0.73671543  0.87251995  0.23490850  1
  O  O341  1  0.73281215  0.86473265  0.74298935  1
  O  O342  1  0.25564942  0.11895130  0.25831868  1
  O  O343  1  0.25518991  0.11581912  0.75718142  1
  O  O344  1  0.24951322  0.62492839  0.25016347  1
  O  O345  1  0.24812996  0.61545189  0.75437129  1
  O  O346  1  0.76348650  0.12675073  0.26183012  1
  O  O347  1  0.75944384  0.13370647  0.76111425  1
  O  O348  1  0.75379175  0.61425414  0.24839955  1
  O  O349  1  0.74426730  0.62190436  0.77002117  1
  O  O350  1  0.36820349  0.12191025  0.37179214  1
  O  O351  1  0.36844807  0.12094753  0.86180134  1
  O  O352  1  0.36796287  0.61787637  0.36456048  1
  O  O353  1  0.36323754  0.63267163  0.85514369  1
  O  O354  1  0.86312935  0.12329158  0.36750028  1
  O  O355  1  0.86706663  0.11668179  0.86979857  1
  O  O356  1  0.86696465  0.63968452  0.36321897  1
  O  O357  1  0.86702808  0.61635394  0.88380350  1
  O  O358  1  0.12115225  0.38954446  0.11799976  1
  O  O359  1  0.12687284  0.36168157  0.64486447  1
  O  O360  1  0.11979799  0.88288781  0.13714634  1
  O  O361  1  0.13540050  0.88426805  0.61818092  1
  O  O362  1  0.63736257  0.38366844  0.12800260  1
  O  O363  1  0.62565613  0.41764729  0.61212828  1
  O  O364  1  0.62709199  0.87916780  0.13297098  1
  O  O365  1  0.62986134  0.87571338  0.63048746  1
  O  O366  1  0.10854266  0.23530158  0.26202884  1
  O  O367  1  0.11668267  0.25593696  0.75382656  1
  O  O368  1  0.13302505  0.76553765  0.26290260  1
  O  O369  1  0.11872605  0.75214988  0.76518370  1
  O  O370  1  0.62084046  0.25974638  0.24904645  1
  O  O371  1  0.62289320  0.24185346  0.77298836  1
  O  O372  1  0.62472559  0.76144777  0.25480812  1
  O  O373  1  0.61126062  0.75620988  0.73967107  1
  O  O374  1  0.38962193  0.24772192  0.24205007  1
  O  O375  1  0.37876485  0.23484810  0.74018313  1
  O  O376  1  0.36480030  0.76305200  0.23742848  1
  O  O377  1  0.38515008  0.74536834  0.73785708  1
  O  O378  1  0.88282148  0.24183530  0.24601703  1
  O  O379  1  0.88655841  0.23847139  0.76141290  1
  O  O380  1  0.88483646  0.79894888  0.23734377  1
  O  O381  1  0.87678228  0.75036512  0.74401212  1
  O  O382  1  0.36853921  0.48106426  0.48894818  1
  O  O383  1  0.37992259  0.49619222  1.00644855  1
  O  O384  1  0.38516839  1.00173667  0.49661062  1
  O  O385  1  0.37272607  0.98420954  1.00555204  1
  O  O386  1  0.88686371  0.47588070  0.50644849  1
  O  O387  1  0.88354123  0.49418499  0.98901074  1
  O  O388  1  0.87167312  0.98227409  0.51339822  1
  O  O389  1  0.87388684  0.99154350  0.98498512  1
  O  O390  1  0.12391031  0.00418126  0.01001088  1
  O  O391  1  0.12204481  0.01014035  0.51085702  1
  O  O392  1  0.11368239  0.51095124  -0.01430752  1
  O  O393  1  0.09305138  0.49962597  0.51071125  1
  O  O394  1  0.62576627  0.00935863  0.00762444  1
  O  O395  1  0.60841469  -0.00674485  0.50882634  1
  O  O396  1  0.63900920  0.50103559  0.01395322  1
  O  O397  1  0.61278697  0.51420472  0.48361859  1
  O  O398  1  0.38186487  0.35837437  0.12556716  1
  O  O399  1  0.37479218  0.36624353  0.60405382  1
  O  O400  1  0.38149735  0.86371580  0.11527788  1
  O  O401  1  0.36880634  0.86686005  0.61469711  1
  O  O402  1  0.86497909  0.38290015  0.11191444  1
  O  O403  1  0.86144690  0.36415372  0.61699257  1
  O  O404  1  0.86053792  0.88762080  0.10633275  1
  O  O405  1  0.85971186  0.87180405  0.62515189  1
  O  O406  1  0.12782074  0.12296031  0.38290722  1
  O  O407  1  0.13633810  0.12103739  0.88372493  1
  O  O408  1  0.11868918  0.64635717  0.36961471  1
  O  O409  1  0.13599327  0.63982507  0.88632519  1
  O  O410  1  0.63981763  0.13739386  0.36583159  1
  O  O411  1  0.63078487  0.12638085  0.88351068  1
  O  O412  1  0.62828383  0.63715956  0.35822527  1
  O  O413  1  0.63166948  0.62192821  0.88499131  1
