# generated using pymatgen
data_V79Zn79O256
_symmetry_space_group_name_H-M   'P 1'
_cell_length_a   16.88673054
_cell_length_b   16.88869916
_cell_length_c   16.87900587
_cell_angle_alpha   90.18240454
_cell_angle_beta   90.14796325
_cell_angle_gamma   90.04107183
_symmetry_Int_Tables_number   1
_chemical_formula_structural   V79Zn79O256
_chemical_formula_sum   'V79 Zn79 O256'
_cell_volume   4813.76487963
_cell_formula_units_Z   1
loop_
 _symmetry_equiv_pos_site_id
 _symmetry_equiv_pos_as_xyz
  1  'x, y, z'
loop_
 _atom_site_type_symbol
 _atom_site_label
 _atom_site_symmetry_multiplicity
 _atom_site_fract_x
 _atom_site_fract_y
 _atom_site_fract_z
 _atom_site_occupancy
  V  V0  1  0.74907567  0.12766793  0.87480849  1
  V  V1  1  0.63124819  0.88972086  0.24560070  1
  V  V2  1  0.88224319  0.87992393  0.00293558  1
  V  V3  1  0.49769222  0.25279004  0.73948787  1
  V  V4  1  0.13323487  0.87715117  0.24595017  1
  V  V5  1  0.37811791  0.75398675  0.12518506  1
  V  V6  1  0.62409279  0.10269655  0.00111857  1
  V  V7  1  0.37317548  0.37790976  0.51882431  1
  V  V8  1  0.87525884  0.38216704  0.49916836  1
  V  V9  1  0.00140626  0.62555104  0.12454256  1
  V  V10  1  0.12046606  0.37214946  0.25067796  1
  V  V11  1  0.12732545  0.50496341  0.12096852  1
  V  V12  1  0.48747589  0.37861283  0.37394443  1
  V  V13  1  0.62104710  0.87497352  0.76759988  1
  V  V14  1  0.62954444  0.38367107  0.25077375  1
  V  V15  1  0.74751384  0.37722332  0.62797368  1
  V  V16  1  0.89612387  0.62746292  0.75174352  1
  V  V17  1  0.25239476  0.50394605  0.27031246  1
  V  V18  1  0.86924659  0.75381139  0.12413011  1
  V  V19  1  0.37510591  0.88311405  -0.02176118  1
  V  V20  1  0.50067666  0.25063969  0.24622487  1
  V  V21  1  0.86415911  0.62417922  0.25704516  1
  V  V22  1  0.75128293  0.74477966  0.49659123  1
  V  V23  1  0.88092878  0.00245875  0.87693891  1
  V  V24  1  0.62073674  0.10978785  0.50404159  1
  V  V25  1  0.24943459  0.87242186  0.61967422  1
  V  V26  1  0.00807060  0.37235077  0.87240424  1
  V  V27  1  0.49811682  0.10863331  0.61953103  1
  V  V28  1  0.50864598  0.50096847  0.00732096  1
  V  V29  1  0.12278193  -0.00224117  0.11802425  1
  V  V30  1  0.62696680  0.62569655  0.49566920  1
  V  V31  1  0.12661708  0.61773919  0.50739759  1
  V  V32  1  0.62011017  0.37458921  0.75324988  1
  V  V33  1  0.62120856  0.25506715  0.88431722  1
  V  V34  1  0.14443422  0.74665354  0.38105002  1
  V  V35  1  0.74967029  0.89441841  0.12682121  1
  V  V36  1  0.24429559  0.47812313  0.74680904  1
  V  V37  1  0.36358415  0.62680554  0.75995201  1
  V  V38  1  0.37706852  0.25249096  0.11484318  1
  V  V39  1  0.37612137  0.12415869  0.74604702  1
  V  V40  1  0.25407460  0.37745426  0.11940644  1
  V  V41  1  0.87531833  0.24158763  0.63586449  1
  V  V42  1  0.50579449  0.87309714  0.37788122  1
  V  V43  1  0.86037866  0.50360315  0.37305095  1
  V  V44  1  0.88071383  0.88196340  0.50260423  1
  V  V45  1  0.38323572  0.62020834  0.25620339  1
  V  V46  1  0.00441469  0.75167839  0.25255555  1
  V  V47  1  0.11099271  0.12401237  0.50111857  1
  V  V48  1  0.00906652  0.24505857  0.75089877  1
  V  V49  1  0.50151591  0.11221112  0.11722159  1
  V  V50  1  0.38305521  0.00078191  0.38046539  1
  V  V51  1  0.25264576  0.12355188  0.37228655  1
  V  V52  1  0.00177935  0.88206353  0.37912718  1
  V  V53  1  0.69447264  0.68929415  -0.06304463  1
  V  V54  1  0.11583556  0.12637257  -0.00964610  1
  V  V55  1  0.62450980  0.24950755  0.37550681  1
  V  V56  1  -0.00672522  0.49920366  0.00380806  1
  V  V57  1  -0.00130060  0.38282361  0.37462191  1
  V  V58  1  0.74785189  0.24612423  0.50001503  1
  V  V59  1  0.25963990  0.24714677  0.51041483  1
  V  V60  1  0.74436576  0.51460423  0.75624376  1
  V  V61  1  0.37722255  0.87076849  0.50141979  1
  V  V62  1  0.24429444  0.73760377  0.00329382  1
  V  V63  1  0.73974055  0.87499089  0.62440708  1
  V  V64  1  0.86724215  0.13477898  0.24741284  1
  V  V65  1  0.75800903  0.36935272  0.13201324  1
  V  V66  1  0.37666821  0.12438272  0.24652427  1
  V  V67  1  0.49774269  0.62876911  0.62538382  1
  V  V68  1  0.86887736  0.35727325  0.00058643  1
  V  V69  1  0.24747036  0.25306717  -0.00812334  1
  V  V70  1  0.11921426  0.24880215  0.37265753  1
  V  V71  1  0.11292284  0.00181460  0.62157930  1
  V  V72  1  0.37654570  0.48656579  0.88279484  1
  V  V73  1  0.88999720  0.74625338  0.62913245  1
  V  V74  1  0.12324566  0.73357140  0.87470664  1
  V  V75  1  0.50336463  0.75001081  0.76511482  1
  V  V76  1  0.25992149  0.11831953  0.87466393  1
  V  V77  1  0.74938917  0.00080459  0.74684314  1
  V  V78  1  0.00057391  0.14113828  0.13526428  1
  Zn  Zn79  1  0.62045918  0.50203840  0.62457199  1
  Zn  Zn80  1  0.74285103  0.11318996  0.36080435  1
  Zn  Zn81  1  0.63262824  0.74638150  0.36805700  1
  Zn  Zn82  1  0.36646545  0.74596647  0.62352472  1
  Zn  Zn83  1  0.25497460  -0.00488837  0.24344929  1
  Zn  Zn84  1  0.87347809  0.00068487  0.36451525  1
  Zn  Zn85  1  0.44252271  0.31337166  0.93266606  1
  Zn  Zn86  1  0.11740997  0.49523845  0.63369552  1
  Zn  Zn87  1  0.62547166  0.51137777  0.13113245  1
  Zn  Zn88  1  0.24904977  -0.00426969  0.75120982  1
  Zn  Zn89  1  0.49015591  0.50694386  0.49724368  1
  Zn  Zn90  1  0.50848841  0.74382319  0.23996297  1
  Zn  Zn91  1  0.86736382  0.51094348  0.88827326  1
  Zn  Zn92  1  0.12150778  0.86793519  0.75445321  1
  Zn  Zn93  1  0.00636988  0.87144125  0.87440374  1
  Zn  Zn94  1  0.18846246  0.18689460  0.18299760  1
  Zn  Zn95  1  0.18283888  0.18814054  0.68788648  1
  Zn  Zn96  1  0.19507199  0.68657991  0.18900677  1
  Zn  Zn97  1  0.17824967  0.68406303  0.68471343  1
  Zn  Zn98  1  0.68719583  0.19244723  0.17748824  1
  Zn  Zn99  1  0.68309606  0.18610768  0.68662972  1
  Zn  Zn100  1  0.68131424  0.69719226  0.18343344  1
  Zn  Zn101  1  0.68425549  0.69529406  0.68367377  1
  Zn  Zn102  1  0.30652967  0.30951424  0.30783632  1
  Zn  Zn103  1  0.30753034  0.30601279  0.80536817  1
  Zn  Zn104  1  0.32086587  0.81264459  0.30774122  1
  Zn  Zn105  1  0.30004795  0.80786099  0.81258327  1
  Zn  Zn106  1  0.81502484  0.30701077  0.31148616  1
  Zn  Zn107  1  0.81065207  0.31618574  0.81815619  1
  Zn  Zn108  1  0.81396963  0.81565568  0.31214184  1
  Zn  Zn109  1  0.81567658  0.81199927  0.81308382  1
  Zn  Zn110  1  0.17566118  0.42611468  0.46706014  1
  Zn  Zn111  1  0.18923149  0.44619630  0.93456669  1
  Zn  Zn112  1  0.18860414  0.93836858  0.43701273  1
  Zn  Zn113  1  0.19438711  0.92824701  0.94320262  1
  Zn  Zn114  1  0.68229079  0.43942844  0.43907153  1
  Zn  Zn115  1  0.69101875  0.43902465  0.94037880  1
  Zn  Zn116  1  0.69456257  0.93353519  0.43509135  1
  Zn  Zn117  1  0.69813317  0.92978099  0.93900087  1
  Zn  Zn118  1  0.30754095  0.06037257  0.06199304  1
  Zn  Zn119  1  0.31181064  0.05842892  0.56474482  1
  Zn  Zn120  1  0.31933880  0.56629067  0.06635914  1
  Zn  Zn121  1  0.30435379  0.56530428  0.56253301  1
  Zn  Zn122  1  0.81656292  0.07132141  0.06033081  1
  Zn  Zn123  1  0.81102859  0.06101813  0.56160311  1
  Zn  Zn124  1  0.77491914  0.57813277  0.07780776  1
  Zn  Zn125  1  0.81442312  0.56366251  0.56739632  1
  Zn  Zn126  1  0.43850557  0.44017433  0.18692979  1
  Zn  Zn127  1  0.43486522  0.44436837  0.69034316  1
  Zn  Zn128  1  0.43880894  0.93253519  0.19050047  1
  Zn  Zn129  1  0.43713533  0.93866199  0.70343908  1
  Zn  Zn130  1  0.93330640  0.43806672  0.18851499  1
  Zn  Zn131  1  0.93058618  0.44170120  0.69438380  1
  Zn  Zn132  1  0.94347008  0.94844071  0.18642088  1
  Zn  Zn133  1  0.93725157  0.93336981  0.69263467  1
  Zn  Zn134  1  0.06045228  0.06152453  0.30810276  1
  Zn  Zn135  1  0.06180193  0.06268236  0.80564184  1
  Zn  Zn136  1  0.06327951  0.56299762  0.31792295  1
  Zn  Zn137  1  0.06582148  0.55585693  0.81900988  1
  Zn  Zn138  1  0.56082771  0.06403321  0.31112603  1
  Zn  Zn139  1  0.56902880  0.06502724  0.80461168  1
  Zn  Zn140  1  0.55999849  0.56117928  0.31677629  1
  Zn  Zn141  1  0.55950681  0.56576017  0.82475299  1
  Zn  Zn142  1  0.43935438  0.18936739  0.43939261  1
  Zn  Zn143  1  0.44559959  0.04791504  0.93214046  1
  Zn  Zn144  1  0.43563111  0.69111266  0.43463395  1
  Zn  Zn145  1  0.43469422  0.68327191  0.94505297  1
  Zn  Zn146  1  0.93257019  0.19372418  0.43282713  1
  Zn  Zn147  1  0.93913846  0.18538508  0.93121495  1
  Zn  Zn148  1  0.94341478  0.68931656  0.43919482  1
  Zn  Zn149  1  0.93305106  0.69065240  0.94066412  1
  Zn  Zn150  1  0.06648069  0.31537996  0.05783690  1
  Zn  Zn151  1  0.04372991  0.35057252  0.58743256  1
  Zn  Zn152  1  0.06128033  0.81246355  0.05788502  1
  Zn  Zn153  1  0.06662188  0.80663813  0.55783971  1
  Zn  Zn154  1  0.56227725  0.32167312  0.06554822  1
  Zn  Zn155  1  0.55913880  0.31184588  0.56167216  1
  Zn  Zn156  1  0.55765223  0.80594102  0.04793991  1
  Zn  Zn157  1  0.55814719  0.80962668  0.56266703  1
  O  O158  1  0.11724546  0.12199856  0.11698259  1
  O  O159  1  0.12764067  0.11701909  0.60943744  1
  O  O160  1  0.11497794  0.61441704  0.13460541  1
  O  O161  1  0.12545385  0.61168558  0.61605930  1
  O  O162  1  0.61779876  0.12968858  0.10719484  1
  O  O163  1  0.61036497  0.12785527  0.61721995  1
  O  O164  1  0.66884653  0.61363072  0.11599548  1
  O  O165  1  0.61404758  0.62776550  0.61670353  1
  O  O166  1  0.38569133  0.36488070  0.37176848  1
  O  O167  1  0.37391278  0.38134755  0.86803853  1
  O  O168  1  0.38332997  0.88171491  0.37947616  1
  O  O169  1  0.37174325  0.87252903  0.87795165  1
  O  O170  1  0.87787934  0.38192466  0.37779673  1
  O  O171  1  0.87878659  0.37921091  0.89002069  1
  O  O172  1  0.88482135  0.87450409  0.38433031  1
  O  O173  1  0.87342571  0.88582595  0.88521265  1
  O  O174  1  0.25896629  0.01048985  0.37191475  1
  O  O175  1  0.24113826  0.01687479  0.87198440  1
  O  O176  1  0.24733481  0.48959660  0.36623855  1
  O  O177  1  0.26327943  0.49441091  0.86238860  1
  O  O178  1  0.76257092  0.00660707  0.38790497  1
  O  O179  1  0.75372160  0.00693520  0.86731563  1
  O  O180  1  0.76047050  0.49619574  0.37470251  1
  O  O181  1  0.75346790  0.49438635  0.85851728  1
  O  O182  1  0.24218094  0.49260179  0.12258384  1
  O  O183  1  0.25491837  0.50299825  0.64732125  1
  O  O184  1  0.23038770  1.01365338  0.13087346  1
  O  O185  1  0.24096478  0.99156729  0.62598347  1
  O  O186  1  0.74307447  0.47416051  0.11656621  1
  O  O187  1  0.74729556  0.49179272  0.63636535  1
  O  O188  1  0.75703191  0.99324204  0.12761145  1
  O  O189  1  0.76021665  0.98769051  0.63620741  1
  O  O190  1  0.01258538  0.38020283  0.25595587  1
  O  O191  1  -0.01180420  0.37137079  0.76935592  1
  O  O192  1  0.00896921  0.86854174  0.25468036  1
  O  O193  1  0.00767078  0.87865028  0.75903456  1
  O  O194  1  0.50763713  0.37002754  0.25594417  1
  O  O195  1  0.51256118  0.37127729  0.74218199  1
  O  O196  1  0.51622861  0.87437272  0.25553167  1
  O  O197  1  0.51091361  0.86174094  0.74523783  1
  O  O198  1  0.49714542  0.13216379  0.23947771  1
  O  O199  1  0.49722456  0.13247005  0.73578455  1
  O  O200  1  0.48898189  0.62083675  0.24898677  1
  O  O201  1  0.49689082  0.63536977  0.74561047  1
  O  O202  1  1.00327620  0.13453850  0.23925083  1
  O  O203  1  0.99808293  0.14543376  0.75620823  1
  O  O204  1  0.99689975  0.63389527  0.24266254  1
  O  O205  1  0.99352451  0.61383195  0.74442012  1
  O  O206  1  0.36667623  0.25444767  0.00814682  1
  O  O207  1  0.36611930  0.25452545  0.49906073  1
  O  O208  1  0.36678740  0.75352147  0.00918946  1
  O  O209  1  0.37683713  0.76571736  0.50290967  1
  O  O210  1  0.87818977  0.25824317  -0.00260945  1
  O  O211  1  0.86315941  0.25895017  0.50601642  1
  O  O212  1  0.88194633  0.76324792  0.01538142  1
  O  O213  1  0.87053508  0.75193103  0.51298969  1
  O  O214  1  0.14040629  0.23423842  0.48806484  1
  O  O215  1  0.13607041  0.23587173  1.00515827  1
  O  O216  1  0.13816173  0.75659460  0.48349377  1
  O  O217  1  0.13831409  0.75215883  1.00008968  1
  O  O218  1  0.63026628  0.24771316  0.49248935  1
  O  O219  1  0.61977386  0.25605520  0.98482997  1
  O  O220  1  0.63424584  0.74325400  0.49972678  1
  O  O221  1  0.64052783  0.74830626  1.00300077  1
  O  O222  1  0.49267281  0.24461147  0.12617060  1
  O  O223  1  0.50201895  0.24537146  0.63546044  1
  O  O224  1  0.48430515  0.74839198  0.12163688  1
  O  O225  1  0.49368635  0.74142174  0.63413550  1
  O  O226  1  1.00868153  0.24008735  0.12173906  1
  O  O227  1  0.98331160  0.26398466  0.63799158  1
  O  O228  1  0.99601994  0.74471120  0.13362809  1
  O  O229  1  0.98843762  0.75704105  0.62764886  1
  O  O230  1  0.01334316  0.25897570  0.37512257  1
  O  O231  1  -0.00530432  0.26113870  0.86442671  1
  O  O232  1  0.00775275  0.76061752  0.36324643  1
  O  O233  1  0.01816950  0.75186261  0.89199906  1
  O  O234  1  0.50802281  0.25545646  0.36876823  1
  O  O235  1  0.51529790  0.25251656  0.86195831  1
  O  O236  1  0.50184338  0.76462772  0.36876802  1
  O  O237  1  0.49519631  0.74498627  0.86336885  1
  O  O238  1  0.25471732  0.13241237  0.48827650  1
  O  O239  1  0.24470911  0.13234206  0.98854320  1
  O  O240  1  0.23304086  0.62889377  0.50328228  1
  O  O241  1  0.25467660  0.63722341  1.00086711  1
  O  O242  1  0.73843111  0.13705440  0.50779109  1
  O  O243  1  0.73455042  0.12049473  0.99051670  1
  O  O244  1  0.73963825  0.63295457  0.51053876  1
  O  O245  1  0.77004967  0.63027935  0.97915679  1
  O  O246  1  0.23799525  0.36692259  0.01082980  1
  O  O247  1  0.26703850  0.35745298  0.48995426  1
  O  O248  1  0.26905385  0.86390295  0.00325843  1
  O  O249  1  0.26085504  0.88220883  0.51020328  1
  O  O250  1  0.76543221  0.37393397  0.00192091  1
  O  O251  1  0.75161658  0.36668747  0.50746748  1
  O  O252  1  0.76220369  0.87853067  0.01932229  1
  O  O253  1  0.76007059  0.86625101  0.50856156  1
  O  O254  1  0.13566907  0.49307693  0.24534934  1
  O  O255  1  0.14144253  0.50069976  0.75455746  1
  O  O256  1  0.12652943  0.99251493  0.24129120  1
  O  O257  1  0.12917221  1.00966329  0.73015326  1
  O  O258  1  0.62367669  0.48677198  0.25546701  1
  O  O259  1  0.63230285  0.49348663  0.75193815  1
  O  O260  1  0.62678874  0.98958847  0.25329598  1
  O  O261  1  0.63499953  0.98271678  0.74910460  1
  O  O262  1  0.37359779  0.00619454  0.25914733  1
  O  O263  1  0.36634730  0.01873294  0.74537139  1
  O  O264  1  0.36289464  0.50775389  0.24617211  1
  O  O265  1  0.36705917  0.50854786  0.75927631  1
  O  O266  1  0.88707230  0.02358679  0.24969187  1
  O  O267  1  0.86074071  -0.00974524  0.76502974  1
  O  O268  1  0.87615590  0.51611363  0.25513860  1
  O  O269  1  0.86102586  0.51664196  0.74671855  1
  O  O270  1  0.11790965  0.36895793  0.37167529  1
  O  O271  1  0.10728116  0.37781109  0.88348735  1
  O  O272  1  0.12117121  0.86841326  0.36753530  1
  O  O273  1  0.12566441  0.86816650  0.87663855  1
  O  O274  1  0.61848693  0.36499291  0.37135779  1
  O  O275  1  0.63668205  0.36228969  0.86513674  1
  O  O276  1  0.62167198  0.87427265  0.36617490  1
  O  O277  1  0.62619072  0.87460647  0.86595623  1
  O  O278  1  0.38125056  0.13351831  0.12430923  1
  O  O279  1  0.38810537  0.12418340  0.62895137  1
  O  O280  1  0.36842757  0.63676040  0.14133133  1
  O  O281  1  0.38148641  0.62549770  0.63645565  1
  O  O282  1  0.89130921  0.12525805  0.13035799  1
  O  O283  1  0.87137858  0.14316889  0.61865504  1
  O  O284  1  0.87949896  0.63404321  0.14020237  1
  O  O285  1  0.87425113  0.63768738  0.63408296  1
  O  O286  1  0.25754602  0.25574460  0.11601844  1
  O  O287  1  0.24798130  0.24116760  0.60855917  1
  O  O288  1  0.25756322  0.74742165  0.11467872  1
  O  O289  1  0.24529815  0.76804858  0.62798948  1
  O  O290  1  0.74126734  0.26959405  0.11446478  1
  O  O291  1  0.75509386  0.25731004  0.62120741  1
  O  O292  1  0.76784389  0.76467327  0.13537110  1
  O  O293  1  0.75755164  0.75833873  0.61795835  1
  O  O294  1  0.24315298  0.23948708  0.37856861  1
  O  O295  1  0.25319462  0.24141220  0.88553401  1
  O  O296  1  0.24230959  0.75280767  0.36465569  1
  O  O297  1  0.23838983  0.74963446  0.89083552  1
  O  O298  1  0.74035099  0.24812664  0.38452044  1
  O  O299  1  0.73631570  0.23745221  0.86436106  1
  O  O300  1  0.75405392  0.75520658  0.39218136  1
  O  O301  1  0.74490938  0.75246616  0.87474726  1
  O  O302  1  0.01305301  0.13009079  0.00361189  1
  O  O303  1  0.01274228  0.13250202  0.49323027  1
  O  O304  1  -0.01153681  0.61619617  0.01784720  1
  O  O305  1  0.02641880  0.65225740  0.50182981  1
  O  O306  1  0.51311957  0.11802084  0.00183614  1
  O  O307  1  0.50486964  0.12773321  0.51157926  1
  O  O308  1  0.49087638  0.60109653  -0.00221513  1
  O  O309  1  0.50333757  0.62858757  0.50808128  1
  O  O310  1  0.48494057  0.37017526  0.49339280  1
  O  O311  1  0.49400987  0.38680622  1.00168294  1
  O  O312  1  0.49390485  0.87419529  0.48996087  1
  O  O313  1  0.47394556  0.86927312  1.00509916  1
  O  O314  1  0.98147516  0.36374722  0.48531713  1
  O  O315  1  0.99029112  0.37705918  0.99467229  1
  O  O316  1  0.99226710  0.86392012  0.48938603  1
  O  O317  1  0.98675947  0.88119614  1.00087815  1
  O  O318  1  0.50209246  0.48361010  0.38069590  1
  O  O319  1  0.48404706  0.49660046  0.87914338  1
  O  O320  1  0.49143952  0.99055004  0.36880904  1
  O  O321  1  0.49496829  0.99669435  0.84823348  1
  O  O322  1  0.98894952  0.48774494  0.37008234  1
  O  O323  1  0.99492358  0.48987953  0.88602694  1
  O  O324  1  1.00048473  0.98565570  0.37162379  1
  O  O325  1  0.98182566  1.00813593  0.87018184  1
  O  O326  1  0.01670218  0.01754205  0.12554374  1
  O  O327  1  0.01380455  -0.00677947  0.62326094  1
  O  O328  1  0.00695085  0.50523815  0.12413717  1
  O  O329  1  0.00972891  0.45882898  0.62115214  1
  O  O330  1  0.49360935  0.01385816  0.12949860  1
  O  O331  1  0.49874067  0.01007154  0.62934925  1
  O  O332  1  0.50577034  0.49627730  0.11491114  1
  O  O333  1  0.50019210  0.51491096  0.62466478  1
  O  O334  1  0.24314250  0.38542724  0.24109805  1
  O  O335  1  0.24771595  0.37774701  0.74367200  1
  O  O336  1  0.23689635  0.87552565  0.25271422  1
  O  O337  1  0.24450883  0.87802036  0.73608988  1
  O  O338  1  0.74562696  0.36870313  0.24164335  1
  O  O339  1  0.74207916  0.38140108  0.74277914  1
  O  O340  1  0.74252913  0.87663398  0.24336993  1
  O  O341  1  0.73788128  0.87636081  0.74519568  1
  O  O342  1  0.25739535  0.12812080  0.25901831  1
  O  O343  1  0.25565852  0.13615195  0.76325908  1
  O  O344  1  0.25323565  0.60826161  0.25296628  1
  O  O345  1  0.26445866  0.63120383  0.74911609  1
  O  O346  1  0.76118274  0.13188502  0.24227268  1
  O  O347  1  0.73532181  0.11128952  0.75891163  1
  O  O348  1  0.76764495  0.63919895  0.25757777  1
  O  O349  1  0.74324211  0.61462403  0.74490909  1
  O  O350  1  0.37329956  0.12008936  0.36895327  1
  O  O351  1  0.36316703  0.12092340  0.87126152  1
  O  O352  1  0.37586725  0.63138185  0.35723139  1
  O  O353  1  0.37794817  0.61581040  0.86272029  1
  O  O354  1  0.87270558  0.12747368  0.36162786  1
  O  O355  1  0.86197389  0.11359289  0.88239410  1
  O  O356  1  0.88544341  0.61875897  0.36569291  1
  O  O357  1  0.88417432  0.62655906  0.85682275  1
  O  O358  1  0.13176262  0.38231193  0.13330271  1
  O  O359  1  0.14488589  0.39495777  0.57656768  1
  O  O360  1  0.11621353  0.89049169  0.12927733  1
  O  O361  1  0.13446188  0.88719416  0.61547777  1
  O  O362  1  0.63138447  0.37499083  0.13983348  1
  O  O363  1  0.63294423  0.37508696  0.63199780  1
  O  O364  1  0.63954456  0.87606969  0.13482781  1
  O  O365  1  0.63692033  0.87000320  0.62553316  1
  O  O366  1  0.13798544  0.26286676  0.25904695  1
  O  O367  1  0.10801578  0.25720505  0.73890173  1
  O  O368  1  0.12015460  0.75781092  0.25153981  1
  O  O369  1  0.13176294  0.74622967  0.76942334  1
  O  O370  1  0.62113270  0.25512889  0.25909296  1
  O  O371  1  0.61777691  0.25696945  0.75451002  1
  O  O372  1  0.62420090  0.76301961  0.25246091  1
  O  O373  1  0.61336626  0.76042650  0.74971171  1
  O  O374  1  0.37938849  0.24383543  0.23746668  1
  O  O375  1  0.38749925  0.23735515  0.75813761  1
  O  O376  1  0.37785580  0.73815424  0.24188784  1
  O  O377  1  0.38345170  0.74035489  0.75101125  1
  O  O378  1  0.88122169  0.23675834  0.25139404  1
  O  O379  1  0.87102877  0.25321525  0.73879006  1
  O  O380  1  0.88717538  0.74497862  0.24789825  1
  O  O381  1  0.87334072  0.73875242  0.74011962  1
  O  O382  1  0.37026688  0.48206863  0.50607229  1
  O  O383  1  0.37212068  0.49821943  0.98603658  1
  O  O384  1  0.37327522  0.99240699  0.48693112  1
  O  O385  1  0.36871673  0.99039242  0.99655140  1
  O  O386  1  0.86629622  0.48942404  0.49336251  1
  O  O387  1  0.88803283  0.48950627  1.00581366  1
  O  O388  1  0.87830441  0.98306529  0.50958670  1
  O  O389  1  0.86767608  0.99507296  0.98626541  1
  O  O390  1  0.13193513  0.01313696  0.01000086  1
  O  O391  1  0.12854132  0.01488628  0.50409529  1
  O  O392  1  0.11141592  0.49303842  0.01300332  1
  O  O393  1  0.11507264  0.52167049  0.47595421  1
  O  O394  1  0.62562419  0.00433581  -0.00386894  1
  O  O395  1  0.62786168  0.01160485  0.49514151  1
  O  O396  1  0.61137235  0.49487130  -0.00348130  1
  O  O397  1  0.62023238  0.51075443  0.50421753  1
  O  O398  1  0.36307407  0.36587503  0.13300322  1
  O  O399  1  0.37920529  0.37067057  0.61767154  1
  O  O400  1  0.36979160  0.85635551  0.14011750  1
  O  O401  1  0.36508896  0.87918400  0.62056265  1
  O  O402  1  0.86784007  0.37321442  0.11769255  1
  O  O403  1  0.86142731  0.36925400  0.61797200  1
  O  O404  1  0.87133765  0.87573173  0.12500891  1
  O  O405  1  0.86861242  0.86217207  0.62284155  1
  O  O406  1  0.13179244  0.12724214  0.37996935  1
  O  O407  1  0.12808951  0.12194059  0.88720677  1
  O  O408  1  0.12322030  0.64479466  0.37234949  1
  O  O409  1  0.12145416  0.63319933  0.88201771  1
  O  O410  1  0.62237759  0.13505218  0.38283263  1
  O  O411  1  0.62788123  0.13373651  0.88541283  1
  O  O412  1  0.61689027  0.62893579  0.39014308  1
  O  O413  1  0.63145459  0.63018132  0.88113429  1
