# generated using pymatgen
data_V79Zn79O256
_symmetry_space_group_name_H-M   'P 1'
_cell_length_a   16.93166295
_cell_length_b   16.89007445
_cell_length_c   16.88730436
_cell_angle_alpha   90.01919432
_cell_angle_beta   89.91757230
_cell_angle_gamma   89.88347996
_symmetry_Int_Tables_number   1
_chemical_formula_structural   V79Zn79O256
_chemical_formula_sum   'V79 Zn79 O256'
_cell_volume   4829.36618749
_cell_formula_units_Z   1
loop_
 _symmetry_equiv_pos_site_id
 _symmetry_equiv_pos_as_xyz
  1  'x, y, z'
loop_
 _atom_site_type_symbol
 _atom_site_label
 _atom_site_symmetry_multiplicity
 _atom_site_fract_x
 _atom_site_fract_y
 _atom_site_fract_z
 _atom_site_occupancy
  V  V0  1  0.00577980  0.51609577  0.50771507  1
  V  V1  1  0.50078533  0.12834189  0.62382660  1
  V  V2  1  0.76059133  0.01316023  0.25744721  1
  V  V3  1  0.87381609  -0.00199425  0.87907722  1
  V  V4  1  0.75100057  0.87099855  0.61393305  1
  V  V5  1  0.62041188  -0.00624233  0.12902730  1
  V  V6  1  0.62598210  0.12452563  -0.00140914  1
  V  V7  1  0.62290889  0.26575777  0.87042314  1
  V  V8  1  -0.00999952  -0.00651632  0.48685788  1
  V  V9  1  0.38085651  0.87862026  -0.00509185  1
  V  V10  1  0.61322053  0.37260108  0.26152574  1
  V  V11  1  0.25568550  0.00504095  0.24797600  1
  V  V12  1  0.14501918  0.35292759  0.74641628  1
  V  V13  1  -0.00111723  0.11865850  0.62208862  1
  V  V14  1  0.87757630  0.25194077  0.62847821  1
  V  V15  1  0.74965907  0.87348592  0.13031099  1
  V  V16  1  0.51558125  0.50927071  0.51282894  1
  V  V17  1  0.25247401  0.25578836  0.51067527  1
  V  V18  1  0.25286342  0.61939932  0.86994884  1
  V  V19  1  0.62886297  0.62643735  -0.00192422  1
  V  V20  1  0.73994870  0.38880241  0.62844495  1
  V  V21  1  -0.00223739  0.87566400  0.87669440  1
  V  V22  1  0.88016801  0.12982264  0.75032663  1
  V  V23  1  0.13420908  0.48253504  0.12543089  1
  V  V24  1  0.87714881  0.74433239  0.61625400  1
  V  V25  1  0.12384209  0.26681522  0.37128603  1
  V  V26  1  0.37993151  0.62559738  0.74497145  1
  V  V27  1  0.38289533  0.48288500  0.38670116  1
  V  V28  1  0.24875710  0.75718630  -0.00053532  1
  V  V29  1  0.50122574  -0.00149197  0.50087476  1
  V  V30  1  -0.00242831  0.12504718  0.13513951  1
  V  V31  1  0.12551661  0.12850247  -0.00901141  1
  V  V32  1  -0.00163289  0.62086979  0.12918177  1
  V  V33  1  0.13205645  0.50534326  0.63481835  1
  V  V34  1  0.75851957  0.75197050  -0.00580089  1
  V  V35  1  0.35713998  0.89127407  0.49971850  1
  V  V36  1  0.23971404  0.72621435  0.49530406  1
  V  V37  1  0.74139703  0.24007011  0.50149471  1
  V  V38  1  0.74406508  0.63149721  0.38835866  1
  V  V39  1  0.00647891  0.26763496  0.25113176  1
  V  V40  1  0.12563494  0.88364145  0.73716222  1
  V  V41  1  0.73798855  0.50202296  0.76280709  1
  V  V42  1  -0.00372402  -0.00143707  0.00073791  1
  V  V43  1  0.00428132  0.35448361  0.86586243  1
  V  V44  1  0.75257109  0.50019164  0.25295278  1
  V  V45  1  0.88429374  0.37391371  0.50333640  1
  V  V46  1  0.61747425  0.75686958  0.87780222  1
  V  V47  1  0.12308380  0.74867086  0.87386903  1
  V  V48  1  0.49556099  0.13969039  0.12829455  1
  V  V49  1  0.49597597  0.49864224  -0.00903984  1
  V  V50  1  0.87490029  0.38037430  -0.00747726  1
  V  V51  1  -0.00127381  0.74449716  0.74632197  1
  V  V52  1  0.37949230  0.75365010  0.13189410  1
  V  V53  1  0.87982926  0.49057808  0.37717574  1
  V  V54  1  0.75343760  -0.00253024  0.74888962  1
  V  V55  1  0.50114064  0.26610379  0.74909273  1
  V  V56  1  0.87716143  0.61619775  0.76602011  1
  V  V57  1  0.25323029  0.12078323  0.37434285  1
  V  V58  1  -0.00105093  0.49851872  -0.01189045  1
  V  V59  1  0.49253056  0.88597295  0.36400910  1
  V  V60  1  0.87630267  0.24706122  0.12954100  1
  V  V61  1  0.37166483  0.36877956  -0.00171456  1
  V  V62  1  0.25082085  0.24884334  0.00256613  1
  V  V63  1  0.00009234  0.86067097  0.35033248  1
  V  V64  1  0.60465884  0.75756353  0.36682585  1
  V  V65  1  0.74845311  0.25241780  0.00060871  1
  V  V66  1  0.19641414  0.82414916  0.18017750  1
  V  V67  1  0.38689831  0.11196326  0.75882392  1
  V  V68  1  0.26067389  0.11731022  0.87585521  1
  V  V69  1  0.12738807  0.62306795  0.00196872  1
  V  V70  1  0.87985476  0.75263977  0.12998249  1
  V  V71  1  0.63005362  0.00592973  0.61914375  1
  V  V72  1  0.12262440  0.11811937  0.49849563  1
  V  V73  1  0.50096838  0.62869275  0.13185089  1
  V  V74  1  0.37043697  0.62000908  0.26018639  1
  V  V75  1  0.36746229  0.76007947  0.62468658  1
  V  V76  1  0.75052293  0.37552913  0.13184336  1
  V  V77  1  0.61405458  0.23986771  0.38087234  1
  V  V78  1  0.12596485  -0.00060765  0.12966119  1
  Zn  Zn79  1  0.48619012  0.88054204  0.85092045  1
  Zn  Zn80  1  0.24495917  0.48382529  0.26572927  1
  Zn  Zn81  1  0.37290031  0.49121540  0.86412482  1
  Zn  Zn82  1  0.38290631  0.14004748  0.25102881  1
  Zn  Zn83  1  0.87748077  0.62662996  0.25631171  1
  Zn  Zn84  1  0.53274304  0.74029508  0.69893508  1
  Zn  Zn85  1  0.12066494  0.73684572  0.37695401  1
  Zn  Zn86  1  0.49305196  0.00559110  -0.01412324  1
  Zn  Zn87  1  0.86967181  0.87459469  0.48602783  1
  Zn  Zn88  1  0.62512560  0.87696288  0.75309863  1
  Zn  Zn89  1  0.75008189  0.12746090  0.87368470  1
  Zn  Zn90  1  0.62342648  0.50047666  0.12785292  1
  Zn  Zn91  1  0.31585074  0.31369651  0.17107205  1
  Zn  Zn92  1  0.25798903  -0.01066798  0.73898041  1
  Zn  Zn93  1  0.38771382  0.36215630  0.51864222  1
  Zn  Zn94  1  0.18340256  0.18756858  0.18659608  1
  Zn  Zn95  1  0.19641019  0.16144302  0.68331919  1
  Zn  Zn96  1  0.16205364  0.64186837  0.22747920  1
  Zn  Zn97  1  0.18964219  0.68973374  0.68373339  1
  Zn  Zn98  1  0.68120331  0.18963896  0.19188826  1
  Zn  Zn99  1  0.68936729  0.18983500  0.68767070  1
  Zn  Zn100  1  0.68798995  0.68891593  0.19067499  1
  Zn  Zn101  1  0.70136428  0.68369274  0.69344554  1
  Zn  Zn102  1  0.31524346  0.31170735  0.33070084  1
  Zn  Zn103  1  0.31921055  0.30362522  0.81680958  1
  Zn  Zn104  1  0.31520966  0.80836819  0.32198963  1
  Zn  Zn105  1  0.30661984  0.81099046  0.81224697  1
  Zn  Zn106  1  0.82495297  0.28486914  0.33108976  1
  Zn  Zn107  1  0.80879808  0.31776405  0.81191663  1
  Zn  Zn108  1  0.81388012  0.81659647  0.30955451  1
  Zn  Zn109  1  0.81472150  0.81089617  0.80986217  1
  Zn  Zn110  1  0.19470055  0.44794531  0.44687647  1
  Zn  Zn111  1  0.18498988  0.43196816  0.93162674  1
  Zn  Zn112  1  0.17297153  0.93678767  0.42747015  1
  Zn  Zn113  1  0.18643465  0.94031213  0.93137840  1
  Zn  Zn114  1  0.68997018  0.43587311  0.43996787  1
  Zn  Zn115  1  0.68783329  0.44286526  0.94005605  1
  Zn  Zn116  1  0.67986633  0.93397714  0.43239922  1
  Zn  Zn117  1  0.68981385  0.93615951  0.94337055  1
  Zn  Zn118  1  0.31203250  0.06242201  0.06544755  1
  Zn  Zn119  1  0.31034341  0.06966514  0.57201518  1
  Zn  Zn120  1  0.31444881  0.56519370  0.06335784  1
  Zn  Zn121  1  0.31563267  0.55386790  0.56802002  1
  Zn  Zn122  1  0.80901778  0.06347396  0.06758946  1
  Zn  Zn123  1  0.81590147  0.06235659  0.55845341  1
  Zn  Zn124  1  0.81254255  0.56390442  0.06135346  1
  Zn  Zn125  1  0.81450663  0.56247199  0.56427465  1
  Zn  Zn126  1  0.43720855  0.44467309  0.18441114  1
  Zn  Zn127  1  0.44254225  0.44669989  0.67744162  1
  Zn  Zn128  1  0.43260587  0.94412847  0.17608679  1
  Zn  Zn129  1  0.44582132  0.92934077  0.68024097  1
  Zn  Zn130  1  0.93827545  0.43938927  0.18161036  1
  Zn  Zn131  1  0.94191152  0.43618541  0.68655210  1
  Zn  Zn132  1  0.93170648  0.93797036  0.18682271  1
  Zn  Zn133  1  0.93897553  0.93587583  0.68429761  1
  Zn  Zn134  1  0.06355804  0.06205182  0.31509342  1
  Zn  Zn135  1  0.06230883  0.06788243  0.81188709  1
  Zn  Zn136  1  0.05939960  0.54730662  0.31745698  1
  Zn  Zn137  1  0.06813145  0.55742769  0.80763259  1
  Zn  Zn138  1  0.56604270  0.06249726  0.31007344  1
  Zn  Zn139  1  0.56792005  0.06146844  0.81430983  1
  Zn  Zn140  1  0.56210616  0.55973774  0.31902366  1
  Zn  Zn141  1  0.55903903  0.57580587  0.80831570  1
  Zn  Zn142  1  0.43421605  0.18410839  0.43875715  1
  Zn  Zn143  1  0.44306745  0.19069522  0.93624720  1
  Zn  Zn144  1  0.43200538  0.69456227  0.44792173  1
  Zn  Zn145  1  0.43662172  0.68838290  0.93952702  1
  Zn  Zn146  1  0.93859521  0.18713380  0.43505639  1
  Zn  Zn147  1  0.93420088  0.18501820  0.94217848  1
  Zn  Zn148  1  0.93464516  0.68522865  0.43054506  1
  Zn  Zn149  1  0.93878253  0.68529895  0.93971762  1
  Zn  Zn150  1  0.06114361  0.30919400  0.05615233  1
  Zn  Zn151  1  0.06935495  0.30859104  0.56737685  1
  Zn  Zn152  1  0.05662694  0.81078233  0.05946579  1
  Zn  Zn153  1  0.06391743  0.80935103  0.55810647  1
  Zn  Zn154  1  0.56312127  0.31827659  0.06236094  1
  Zn  Zn155  1  0.56223691  0.31962911  0.56446563  1
  Zn  Zn156  1  0.56176286  0.81177513  0.06222429  1
  Zn  Zn157  1  0.59681876  0.67272255  0.53305016  1
  O  O158  1  0.11525523  0.11693332  0.11496658  1
  O  O159  1  0.10381656  0.13922675  0.60963850  1
  O  O160  1  0.11442799  0.61826122  0.11886174  1
  O  O161  1  0.12275373  0.60646578  0.64184697  1
  O  O162  1  0.61708317  0.11951588  0.11704123  1
  O  O163  1  0.61899609  0.11375676  0.63217580  1
  O  O164  1  0.61755671  0.62785589  0.11784149  1
  O  O165  1  0.60622379  0.67049847  0.64175108  1
  O  O166  1  0.38244911  0.38076125  0.39517878  1
  O  O167  1  0.37647281  0.37871657  0.89041469  1
  O  O168  1  0.38183624  0.87572741  0.38985896  1
  O  O169  1  0.37522375  0.86187375  0.88947176  1
  O  O170  1  0.86358752  0.38335311  0.38882391  1
  O  O171  1  0.88435589  0.36670564  0.88662766  1
  O  O172  1  0.89282474  0.86830194  0.37353127  1
  O  O173  1  0.88667751  0.88584639  0.86815022  1
  O  O174  1  0.23694690  0.00570431  0.35573818  1
  O  O175  1  0.24781894  0.01272757  0.86449469  1
  O  O176  1  0.27341898  0.49731408  0.38043405  1
  O  O177  1  0.25314984  0.51529132  0.88517786  1
  O  O178  1  0.73968930  -0.00948529  0.35460261  1
  O  O179  1  0.75963586  -0.00146568  0.86909700  1
  O  O180  1  0.75721883  0.50705741  0.36996685  1
  O  O181  1  0.75456771  0.49153714  0.86198018  1
  O  O182  1  0.23373902  0.49999576  0.11169163  1
  O  O183  1  0.22973067  0.49495788  0.61326138  1
  O  O184  1  0.23796331  1.00478077  0.13481676  1
  O  O185  1  0.23239768  1.05142759  0.64955022  1
  O  O186  1  0.75141262  0.49104818  0.13250332  1
  O  O187  1  0.75444893  0.49332943  0.63489878  1
  O  O188  1  0.74161322  0.99297069  0.12816158  1
  O  O189  1  0.75095304  0.99460614  0.62926357  1
  O  O190  1  0.00386130  0.36712954  0.24449741  1
  O  O191  1  -0.00983997  0.36807514  0.76601112  1
  O  O192  1  0.00074384  0.87345306  0.25084792  1
  O  O193  1  0.00464499  0.86648763  0.75779644  1
  O  O194  1  0.51652504  0.38083412  0.24130767  1
  O  O195  1  0.49941637  0.36476752  0.74181762  1
  O  O196  1  0.48056547  0.88907420  0.26545168  1
  O  O197  1  0.51043225  0.85470475  0.73850059  1
  O  O198  1  0.49984431  0.11765428  0.23253668  1
  O  O199  1  0.49715194  0.12662229  0.74689679  1
  O  O200  1  0.49171060  0.61790094  0.23811569  1
  O  O201  1  0.48197350  0.64748711  0.75904097  1
  O  O202  1  1.00583821  0.13157162  0.23761266  1
  O  O203  1  0.98805484  0.11918351  0.73997203  1
  O  O204  1  0.99407749  0.61021967  0.23244467  1
  O  O205  1  0.99237760  0.63646516  0.75795477  1
  O  O206  1  0.37567297  0.26362488  -0.00034573  1
  O  O207  1  0.35775193  0.24801046  0.49657162  1
  O  O208  1  0.36576760  0.75447132  0.01109194  1
  O  O209  1  0.35345125  0.76497927  0.50286225  1
  O  O210  1  0.86939968  0.25850368  0.00883274  1
  O  O211  1  0.86036117  0.25756311  0.51052392  1
  O  O212  1  0.86295396  0.74288192  0.00748375  1
  O  O213  1  0.88367839  0.75242409  0.51407092  1
  O  O214  1  0.12716442  0.24149433  0.48766871  1
  O  O215  1  0.13381033  0.23679485  1.00309247  1
  O  O216  1  0.13454686  0.74180548  0.50229545  1
  O  O217  1  0.13014638  0.74474018  0.99550459  1
  O  O218  1  0.63284421  0.25252678  0.49864494  1
  O  O219  1  0.62810851  0.24624594  0.99096018  1
  O  O220  1  0.63979490  0.75154428  0.46309219  1
  O  O221  1  0.63593742  0.74638769  0.99594882  1
  O  O222  1  0.50684173  0.23896792  0.12237229  1
  O  O223  1  0.51662688  0.24043157  0.64087177  1
  O  O224  1  0.49120163  0.74118071  0.12007718  1
  O  O225  1  0.46430179  0.74632977  0.60225567  1
  O  O226  1  0.99708607  0.24351651  0.12959574  1
  O  O227  1  0.98182624  0.23982579  0.61599374  1
  O  O228  1  0.98649127  0.73958240  0.11429479  1
  O  O229  1  0.98630064  0.75926910  0.63607189  1
  O  O230  1  0.01637767  0.24964631  0.36586928  1
  O  O231  1  0.00132107  0.25524043  0.88043697  1
  O  O232  1  0.00008493  0.75504044  0.36816199  1
  O  O233  1  0.00186757  0.75796792  0.87077508  1
  O  O234  1  0.51439976  0.25098075  0.39209339  1
  O  O235  1  0.51563859  0.24998873  0.86593693  1
  O  O236  1  0.49877642  0.76504846  0.37493917  1
  O  O237  1  0.51498287  0.75734667  0.88519568  1
  O  O238  1  0.24003137  0.12753603  0.49148339  1
  O  O239  1  0.24416892  0.12455380  0.99475115  1
  O  O240  1  0.25608294  0.62866075  0.49516501  1
  O  O241  1  0.24718406  0.63914431  0.99477739  1
  O  O242  1  0.74938640  0.14100790  0.50766602  1
  O  O243  1  0.74241175  0.13476439  1.00208052  1
  O  O244  1  0.74787381  0.61924304  0.48901168  1
  O  O245  1  0.73997031  0.63774830  1.00864606  1
  O  O246  1  0.26039191  0.36464824  -0.00664857  1
  O  O247  1  0.24379008  0.35648700  0.50046854  1
  O  O248  1  0.25551522  0.86347682  -0.00870115  1
  O  O249  1  0.25757611  0.89542133  0.49400849  1
  O  O250  1  0.75563929  0.37317926  0.00929721  1
  O  O251  1  0.75983511  0.37770391  0.51700803  1
  O  O252  1  0.74889448  0.86058635  0.01292426  1
  O  O253  1  0.75357221  0.88239174  0.51014998  1
  O  O254  1  0.12859946  0.50057938  0.23054960  1
  O  O255  1  0.12090635  0.48330566  0.74027591  1
  O  O256  1  0.12860246  1.00231236  0.23525320  1
  O  O257  1  0.11364099  0.98424736  0.75278381  1
  O  O258  1  0.63530039  0.48891773  0.25065584  1
  O  O259  1  0.63910211  0.51300278  0.75636116  1
  O  O260  1  0.63119614  1.00296907  0.23130957  1
  O  O261  1  0.63983598  0.99943420  0.74176029  1
  O  O262  1  0.35721781  0.00888412  0.23845937  1
  O  O263  1  0.38040082  0.00859601  0.74664703  1
  O  O264  1  0.38385427  0.50755454  0.26718934  1
  O  O265  1  0.38694974  0.52132485  0.75287232  1
  O  O266  1  0.86086863  0.00367988  0.24324906  1
  O  O267  1  0.87197570  0.00772368  0.75819545  1
  O  O268  1  0.86919919  0.49332432  0.25958343  1
  O  O269  1  0.88270752  0.51568863  0.74716679  1
  O  O270  1  0.13101034  0.36454002  0.38018737  1
  O  O271  1  0.11257598  0.37233963  0.86079241  1
  O  O272  1  0.10354117  0.86459242  0.37662045  1
  O  O273  1  0.11229143  0.86968074  0.87021092  1
  O  O274  1  0.62352889  0.37477962  0.36456189  1
  O  O275  1  0.62712289  0.36439099  0.87981892  1
  O  O276  1  0.60314910  0.86976997  0.37206855  1
  O  O277  1  0.62895459  0.86362639  0.87895415  1
  O  O278  1  0.39339823  0.12221499  0.11832612  1
  O  O279  1  0.39297551  0.12606512  0.64285454  1
  O  O280  1  0.38351018  0.63306276  0.12955735  1
  O  O281  1  0.36304259  0.63340121  0.64104978  1
  O  O282  1  0.88675023  0.13630734  0.11456081  1
  O  O283  1  0.87823652  0.13171687  0.63189619  1
  O  O284  1  0.88217536  0.63294566  0.12296547  1
  O  O285  1  0.86949815  0.64183657  0.63105475  1
  O  O286  1  0.25197733  0.23861058  0.10908094  1
  O  O287  1  0.24205696  0.23813163  0.60789737  1
  O  O288  1  0.25467914  0.76026544  0.11908149  1
  O  O289  1  0.25365090  0.74752616  0.60695196  1
  O  O290  1  0.75679163  0.25685490  0.12251239  1
  O  O291  1  0.75449938  0.26079632  0.61977444  1
  O  O292  1  0.75882510  0.75412473  0.11937090  1
  O  O293  1  0.76409892  0.76466993  0.63115273  1
  O  O294  1  0.23585646  0.23906805  0.38337115  1
  O  O295  1  0.26107917  0.23272633  0.89309993  1
  O  O296  1  0.24214057  0.75747188  0.39229412  1
  O  O297  1  0.24151987  0.74209496  0.88288736  1
  O  O298  1  0.73271629  0.26602741  0.39834481  1
  O  O299  1  0.73970591  0.25046004  0.88039846  1
  O  O300  1  0.76769388  0.72870677  0.36875273  1
  O  O301  1  0.74922084  0.75632701  0.89098657  1
  O  O302  1  0.00780447  0.11628017  0.00506532  1
  O  O303  1  0.00100665  0.11582130  0.49940726  1
  O  O304  1  0.00585316  0.61608014  0.00440948  1
  O  O305  1  -0.00075642  0.61499123  0.49950964  1
  O  O306  1  0.51012725  0.12432279  0.00768971  1
  O  O307  1  0.49006637  0.11296431  0.51296240  1
  O  O308  1  0.50655268  0.61930316  0.00818982  1
  O  O309  1  0.50635208  0.61934194  0.48834643  1
  O  O310  1  0.49837180  0.39593693  0.51345405  1
  O  O311  1  0.49427913  0.39128178  1.00241606  1
  O  O312  1  0.48335977  0.89345844  0.49229749  1
  O  O313  1  0.48536968  0.87361255  0.99925545  1
  O  O314  1  0.98589754  0.37069172  0.50596840  1
  O  O315  1  0.99420074  0.37809131  0.98852957  1
  O  O316  1  0.99706490  0.88945229  0.50363208  1
  O  O317  1  1.00366762  0.88770331  0.99077087  1
  O  O318  1  0.48837129  0.50250826  0.38301193  1
  O  O319  1  0.50113563  0.51116038  0.88886016  1
  O  O320  1  0.50715974  0.99427767  0.38325798  1
  O  O321  1  0.51128598  0.98830973  0.87601395  1
  O  O322  1  0.98937869  0.49650542  0.39024376  1
  O  O323  1  1.00541501  0.49246485  0.88535313  1
  O  O324  1  1.00238704  0.98814658  0.38113008  1
  O  O325  1  0.99329620  0.99614256  0.88199196  1
  O  O326  1  0.00353522  0.00497217  0.11828073  1
  O  O327  1  -0.01020474  0.01196575  0.61121859  1
  O  O328  1  0.00814859  0.50286935  0.11145918  1
  O  O329  1  0.00349039  0.49882397  0.61227728  1
  O  O330  1  0.51348294  0.00285070  0.11494530  1
  O  O331  1  0.51180395  0.00620558  0.62079846  1
  O  O332  1  0.50309171  0.51245846  0.11260176  1
  O  O333  1  0.50511001  0.51807041  0.61374588  1
  O  O334  1  0.26037372  0.37408263  0.25071872  1
  O  O335  1  0.24311306  0.36837288  0.76123638  1
  O  O336  1  0.25235173  0.88385577  0.24637077  1
  O  O337  1  0.23076613  0.87680080  0.75589737  1
  O  O338  1  0.74715485  0.38150680  0.24276168  1
  O  O339  1  0.75865185  0.39091508  0.73974142  1
  O  O340  1  0.75333246  0.88225039  0.23485244  1
  O  O341  1  0.75591320  0.88716929  0.74291622  1
  O  O342  1  0.24578018  0.11573005  0.25518912  1
  O  O343  1  0.27971675  0.14078388  0.76593989  1
  O  O344  1  0.27115154  0.60433213  0.23753488  1
  O  O345  1  0.25992877  0.63467851  0.76293003  1
  O  O346  1  0.74541328  0.11261839  0.24337403  1
  O  O347  1  0.76081278  0.11350715  0.74931120  1
  O  O348  1  0.75396873  0.60910774  0.25043093  1
  O  O349  1  0.76668423  0.61140146  0.75018164  1
  O  O350  1  0.35752217  0.12522046  0.37271817  1
  O  O351  1  0.37932490  0.11926328  0.86961235  1
  O  O352  1  0.37781839  0.63517614  0.35904463  1
  O  O353  1  0.36584005  0.63302159  0.86637190  1
  O  O354  1  0.86112932  0.17959097  0.35943830  1
  O  O355  1  0.87389043  0.11685189  0.86828238  1
  O  O356  1  0.86626250  0.60849305  0.37439740  1
  O  O357  1  0.87560154  0.62531807  0.86560773  1
  O  O358  1  0.12333423  0.38337368  0.11610359  1
  O  O359  1  0.11825610  0.37678171  0.64313082  1
  O  O360  1  0.12886347  0.87967843  0.12095339  1
  O  O361  1  0.11763094  0.87261493  0.63867120  1
  O  O362  1  0.63759773  0.37354473  0.13431362  1
  O  O363  1  0.64240564  0.37584773  0.62842654  1
  O  O364  1  0.63049669  0.88727912  0.11766493  1
  O  O365  1  0.64736635  0.88683451  0.63045092  1
  O  O366  1  0.12106241  0.24869039  0.26184290  1
  O  O367  1  0.13680093  0.25280363  0.74263299  1
  O  O368  1  0.14253139  0.76086124  0.23360689  1
  O  O369  1  0.11572557  0.75736325  0.75389816  1
  O  O370  1  0.63020992  0.26269196  0.26655675  1
  O  O371  1  0.62144379  0.24698938  0.76399126  1
  O  O372  1  0.63417899  0.75183731  0.26761858  1
  O  O373  1  0.63870290  0.75031490  0.77452664  1
  O  O374  1  0.36931274  0.25084435  0.25086354  1
  O  O375  1  0.39962900  0.24090014  0.76037275  1
  O  O376  1  0.36462691  0.73880041  0.23939238  1
  O  O377  1  0.36465747  0.75279367  0.73166664  1
  O  O378  1  0.88585457  0.26326730  0.23215531  1
  O  O379  1  0.86289396  0.23870955  0.74259124  1
  O  O380  1  0.87135703  0.74406483  0.23240981  1
  O  O381  1  0.88082122  0.73986519  0.74571729  1
  O  O382  1  0.38788920  0.50927493  0.49100879  1
  O  O383  1  0.38673506  0.49993840  0.99535132  1
  O  O384  1  0.37876083  0.99597794  0.51201769  1
  O  O385  1  0.37090711  0.98170095  1.00542291  1
  O  O386  1  0.88585621  0.49370095  0.49863231  1
  O  O387  1  0.88388292  0.48983975  1.00551414  1
  O  O388  1  0.88595305  1.00178048  0.49193042  1
  O  O389  1  0.88363973  1.00854223  0.99091157  1
  O  O390  1  0.11721415  0.00565830  0.00746409  1
  O  O391  1  0.10996702  0.01170089  0.49509018  1
  O  O392  1  0.11730279  0.50239285  0.00456017  1
  O  O393  1  0.10960680  0.49290874  0.50936457  1
  O  O394  1  0.63238971  0.01175669  0.01059428  1
  O  O395  1  0.61696238  -0.00558122  0.51072901  1
  O  O396  1  0.61685296  0.50885282  0.00260689  1
  O  O397  1  0.61571042  0.50230621  0.49516257  1
  O  O398  1  0.37573415  0.38699004  0.10490792  1
  O  O399  1  0.36263252  0.39446598  0.62238787  1
  O  O400  1  0.37812218  0.86327790  0.11306572  1
  O  O401  1  0.36752908  0.87122445  0.61265993  1
  O  O402  1  0.86927221  0.36843513  0.11354831  1
  O  O403  1  0.86952016  0.36741069  0.62262613  1
  O  O404  1  0.87042493  0.85918168  0.12269265  1
  O  O405  1  0.86525014  0.86924388  0.62375186  1
  O  O406  1  0.13171609  0.12906047  0.38220054  1
  O  O407  1  0.13431015  0.11977227  0.88494021  1
  O  O408  1  0.13003728  0.63071049  0.33704563  1
  O  O409  1  0.13176917  0.62869504  0.87978177  1
  O  O410  1  0.62417067  0.14082423  0.37090791  1
  O  O411  1  0.62975169  0.13171260  0.88679051  1
  O  O412  1  0.63867233  0.63247288  0.36684982  1
  O  O413  1  0.62097262  0.63967336  0.89019967  1
