# generated using pymatgen
data_V79Zn79O256
_symmetry_space_group_name_H-M   'P 1'
_cell_length_a   16.87199708
_cell_length_b   16.86155906
_cell_length_c   16.87175940
_cell_angle_alpha   89.87730664
_cell_angle_beta   90.05116842
_cell_angle_gamma   89.97482099
_symmetry_Int_Tables_number   1
_chemical_formula_structural   V79Zn79O256
_chemical_formula_sum   'V79 Zn79 O256'
_cell_volume   4799.80265814
_cell_formula_units_Z   1
loop_
 _symmetry_equiv_pos_site_id
 _symmetry_equiv_pos_as_xyz
  1  'x, y, z'
loop_
 _atom_site_type_symbol
 _atom_site_label
 _atom_site_symmetry_multiplicity
 _atom_site_fract_x
 _atom_site_fract_y
 _atom_site_fract_z
 _atom_site_occupancy
  V  V0  1  0.64294297  -0.00320588  0.62531508  1
  V  V1  1  0.50251675  0.12480309  0.62789970  1
  V  V2  1  0.12151666  0.49746818  0.62602995  1
  V  V3  1  0.87538754  0.77534728  0.61916032  1
  V  V4  1  0.86310588  -0.00236017  0.37845668  1
  V  V5  1  0.00438678  0.13416478  0.62602466  1
  V  V6  1  0.62097130  0.73195000  0.86618550  1
  V  V7  1  0.24381970  0.74832777  0.00281419  1
  V  V8  1  0.37970515  0.62674409  0.25125352  1
  V  V9  1  0.50046292  0.24280693  0.24882245  1
  V  V10  1  0.87623811  0.62056206  0.72761577  1
  V  V11  1  0.00309467  0.36931752  0.86182359  1
  V  V12  1  0.75185694  0.12646497  0.87498010  1
  V  V13  1  0.24260416  0.62458485  0.87332842  1
  V  V14  1  0.24826559  0.49782102  0.25359440  1
  V  V15  1  0.12375929  0.75028965  0.37817802  1
  V  V16  1  0.48427009  -0.00843687  0.49382635  1
  V  V17  1  0.37867847  0.12034647  0.25301333  1
  V  V18  1  0.12476527  0.25254030  0.85688257  1
  V  V19  1  0.37652071  0.24432179  0.12433451  1
  V  V20  1  0.12970915  0.13704156  0.00045397  1
  V  V21  1  0.25238769  0.00326326  0.75320190  1
  V  V22  1  0.74832642  0.76174995  0.50325992  1
  V  V23  1  0.50464447  0.85101694  0.33647960  1
  V  V24  1  0.24495988  0.13272521  0.38284254  1
  V  V25  1  0.25402729  0.87225852  0.12184212  1
  V  V26  1  0.87040089  0.76447223  0.11701173  1
  V  V27  1  0.75298507  0.36917907  0.61192701  1
  V  V28  1  0.75336958  0.75058167  -0.01939699  1
  V  V29  1  0.24362561  0.49347034  0.74909518  1
  V  V30  1  0.49898391  0.37375158  0.37755516  1
  V  V31  1  -0.00761512  0.87575601  0.38290321  1
  V  V32  1  0.75159606  -0.00327382  0.23249344  1
  V  V33  1  0.37406889  0.36938964  -0.00046142  1
  V  V34  1  0.25269931  0.75444132  0.50159461  1
  V  V35  1  0.25515792  0.13002445  0.87894291  1
  V  V36  1  0.12350134  -0.00011259  0.12506084  1
  V  V37  1  0.38184939  0.24983654  0.62849686  1
  V  V38  1  0.50427271  0.51019542  0.00378529  1
  V  V39  1  0.24843097  0.36893142  0.12219810  1
  V  V40  1  0.37879446  0.49980323  0.38307859  1
  V  V41  1  0.38313677  0.75686206  0.62464028  1
  V  V42  1  0.12031409  0.36075600  0.25780658  1
  V  V43  1  0.50038587  0.36653067  0.86413027  1
  V  V44  1  0.62594137  0.24971408  0.85833424  1
  V  V45  1  0.62880155  0.12578165  0.49139817  1
  V  V46  1  0.37885346  0.62933180  0.74790722  1
  V  V47  1  0.61723988  0.49381052  0.61956756  1
  V  V48  1  0.62449247  -0.02170704  0.12211853  1
  V  V49  1  0.24600263  0.36896919  0.62157431  1
  V  V50  1  0.61931639  0.62860590  0.49809230  1
  V  V51  1  0.37379307  0.36705727  0.49984151  1
  V  V52  1  0.12175300  0.62422146  -0.00329447  1
  V  V53  1  -0.00503548  0.13684003  0.12717532  1
  V  V54  1  -0.01180699  0.36410183  0.37672565  1
  V  V55  1  0.63742887  0.87831664  0.75430641  1
  V  V56  1  0.86954970  0.35936845  0.00460301  1
  V  V57  1  0.49547633  -0.01275321  -0.00619434  1
  V  V58  1  -0.01000614  0.74654459  0.25311748  1
  V  V59  1  -0.01200910  0.49754773  0.50067481  1
  V  V60  1  -0.00091797  0.49633229  0.00112336  1
  V  V61  1  0.12434180  0.87367367  0.25273016  1
  V  V62  1  0.38116527  0.12440972  0.75497954  1
  V  V63  1  0.25593923  -0.00141363  0.25677181  1
  V  V64  1  0.62467887  0.13408276  0.01053499  1
  V  V65  1  0.00313896  0.75221085  0.75642538  1
  V  V66  1  0.24722227  0.87743128  0.62729346  1
  V  V67  1  0.00584064  0.00204386  0.50230349  1
  V  V68  1  0.63609410  0.24834730  0.37550336  1
  V  V69  1  0.76043017  0.62174943  0.37560018  1
  V  V70  1  -0.00281042  -0.01084920  -0.00668843  1
  V  V71  1  0.87377401  -0.01330568  0.87229987  1
  V  V72  1  0.37717011  0.74405425  0.12682971  1
  V  V73  1  -0.00430867  0.62416094  0.13229519  1
  V  V74  1  0.74191892  0.49566544  0.75331685  1
  V  V75  1  0.87291967  0.50718554  0.87363319  1
  V  V76  1  0.87953492  0.13732365  0.75169221  1
  V  V77  1  0.12057293  0.62324274  0.50463741  1
  V  V78  1  0.87664024  0.13245086  0.25035407  1
  Zn  Zn79  1  0.74095330  0.38249738  0.11714954  1
  Zn  Zn80  1  0.50125670  0.62494916  0.62484578  1
  Zn  Zn81  1  0.48261964  0.87575525  0.85648858  1
  Zn  Zn82  1  0.87172541  0.25769830  0.60493937  1
  Zn  Zn83  1  0.37579516  0.49972328  0.87418026  1
  Zn  Zn84  1  0.12369555  0.23925320  0.41256268  1
  Zn  Zn85  1  0.61549580  0.39708327  0.22930868  1
  Zn  Zn86  1  0.51039247  0.62407174  0.13464064  1
  Zn  Zn87  1  0.12331819  0.49781955  0.13033982  1
  Zn  Zn88  1  0.74791774  0.51489115  0.23160587  1
  Zn  Zn89  1  0.12302646  0.00045911  0.62670781  1
  Zn  Zn90  1  0.66593260  0.58390790  0.06372476  1
  Zn  Zn91  1  0.87465813  0.49859794  0.35888002  1
  Zn  Zn92  1  0.11368707  0.87886349  0.76751896  1
  Zn  Zn93  1  0.25111135  0.62661788  0.37701178  1
  Zn  Zn94  1  0.18966550  0.18410879  0.19048522  1
  Zn  Zn95  1  0.18990974  0.18868326  0.67943627  1
  Zn  Zn96  1  0.18304155  0.68381186  0.19024209  1
  Zn  Zn97  1  0.18760159  0.68603986  0.68619651  1
  Zn  Zn98  1  0.69388045  0.19530348  0.18877564  1
  Zn  Zn99  1  0.69091901  0.18152595  0.68813955  1
  Zn  Zn100  1  0.67872246  0.71320974  0.20317242  1
  Zn  Zn101  1  0.69138669  0.68637918  0.68574874  1
  Zn  Zn102  1  0.31139736  0.30866814  0.31264439  1
  Zn  Zn103  1  0.31328188  0.30719921  0.81023864  1
  Zn  Zn104  1  0.31991789  0.81722274  0.31558289  1
  Zn  Zn105  1  0.28079690  0.83760785  0.84088718  1
  Zn  Zn106  1  0.80507717  0.31170725  0.28054166  1
  Zn  Zn107  1  0.81099853  0.31609066  0.81254484  1
  Zn  Zn108  1  0.79430449  0.80828086  0.30861189  1
  Zn  Zn109  1  0.81104739  0.81152217  0.80225953  1
  Zn  Zn110  1  0.18565809  0.43351785  0.43909566  1
  Zn  Zn111  1  0.18593605  0.43589397  0.93687086  1
  Zn  Zn112  1  0.18762663  0.93822172  0.43928710  1
  Zn  Zn113  1  0.18343514  0.94429203  0.93788361  1
  Zn  Zn114  1  0.68473776  0.43784936  0.43366896  1
  Zn  Zn115  1  0.68383508  0.43445053  0.93865688  1
  Zn  Zn116  1  0.67077773  0.93736482  0.42916328  1
  Zn  Zn117  1  0.69334987  0.93414221  0.94228837  1
  Zn  Zn118  1  0.31482223  0.06078694  0.06226520  1
  Zn  Zn119  1  0.31191365  0.06367441  0.56556588  1
  Zn  Zn120  1  0.31546606  0.55774646  0.06289019  1
  Zn  Zn121  1  0.30989171  0.56291914  0.56249525  1
  Zn  Zn122  1  0.81300636  0.06668242  0.05574546  1
  Zn  Zn123  1  0.82199349  0.08702282  0.54974303  1
  Zn  Zn124  1  0.82385758  0.56782955  0.06144806  1
  Zn  Zn125  1  0.80055531  0.55803398  0.55868480  1
  Zn  Zn126  1  0.43899797  0.43767289  0.18784524  1
  Zn  Zn127  1  0.43178026  0.44039072  0.68691142  1
  Zn  Zn128  1  0.44123811  0.93443720  0.18081307  1
  Zn  Zn129  1  0.44449653  0.93946864  0.68519242  1
  Zn  Zn130  1  0.93163293  0.43582839  0.18959362  1
  Zn  Zn131  1  0.93291697  0.43457430  0.68260320  1
  Zn  Zn132  1  0.93840758  0.93940461  0.19061626  1
  Zn  Zn133  1  0.93584290  0.94349137  0.69265635  1
  Zn  Zn134  1  0.06204712  0.06290472  0.31406000  1
  Zn  Zn135  1  0.06435844  0.06574949  0.81141981  1
  Zn  Zn136  1  0.06221588  0.55915650  0.31808480  1
  Zn  Zn137  1  0.05597836  0.56442161  0.80872303  1
  Zn  Zn138  1  0.56492190  0.04324599  0.31513064  1
  Zn  Zn139  1  0.56616339  0.05548559  0.81288730  1
  Zn  Zn140  1  0.56599423  0.56594025  0.31733584  1
  Zn  Zn141  1  0.55774972  0.55402510  0.81420282  1
  Zn  Zn142  1  0.43627471  0.18049929  0.43663757  1
  Zn  Zn143  1  0.44580733  0.18201572  0.94162389  1
  Zn  Zn144  1  0.44073984  0.69521988  0.43348796  1
  Zn  Zn145  1  0.41493826  0.72276219  0.91548361  1
  Zn  Zn146  1  0.93145621  0.18504326  0.43721483  1
  Zn  Zn147  1  0.94416367  0.18431406  0.93780693  1
  Zn  Zn148  1  0.93430837  0.68836838  0.44494868  1
  Zn  Zn149  1  0.93559394  0.68825557  0.93797196  1
  Zn  Zn150  1  0.06110433  0.31626102  0.06160485  1
  Zn  Zn151  1  0.06056678  0.31420394  0.56387567  1
  Zn  Zn152  1  0.06221798  0.81074529  0.06391018  1
  Zn  Zn153  1  0.06133427  0.81311367  0.56988357  1
  Zn  Zn154  1  0.55726187  0.31082907  0.05606095  1
  Zn  Zn155  1  0.56304186  0.31140711  0.56082449  1
  Zn  Zn156  1  0.57115991  0.79547252  0.05671958  1
  Zn  Zn157  1  0.56550835  0.81872660  0.56313338  1
  O  O158  1  0.12035192  0.11822258  0.12057207  1
  O  O159  1  0.10745693  0.12303422  0.63533681  1
  O  O160  1  0.11488225  0.61949892  0.11687457  1
  O  O161  1  0.12946035  0.61256617  0.61409856  1
  O  O162  1  0.63352593  0.13396006  0.11143415  1
  O  O163  1  0.62000175  0.12112975  0.61629574  1
  O  O164  1  0.61501372  0.66719485  0.12378682  1
  O  O165  1  0.62435135  0.61435816  0.62039840  1
  O  O166  1  0.37777492  0.37852203  0.38114133  1
  O  O167  1  0.38265834  0.36786514  0.88267616  1
  O  O168  1  0.40573901  0.87574717  0.35968097  1
  O  O169  1  0.38264429  0.83022228  0.88113356  1
  O  O170  1  0.88787496  0.36875652  0.36343931  1
  O  O171  1  0.88640599  0.38156176  0.88117091  1
  O  O172  1  0.88235988  0.88756877  0.36527491  1
  O  O173  1  0.87157267  0.88771819  0.86828332  1
  O  O174  1  0.24483280  0.00331182  0.36110720  1
  O  O175  1  0.24919220  0.01824278  0.86597480  1
  O  O176  1  0.25881000  0.49695139  0.36828488  1
  O  O177  1  0.25031820  0.50548029  0.86703777  1
  O  O178  1  0.75994362  -0.00298716  0.36567139  1
  O  O179  1  0.76785150  0.00957220  0.88636554  1
  O  O180  1  0.75593337  0.51365092  0.38710046  1
  O  O181  1  0.75631073  0.49144613  0.86041564  1
  O  O182  1  0.25071977  0.48718530  0.13669952  1
  O  O183  1  0.24279607  0.49168389  0.63015808  1
  O  O184  1  0.24056056  0.99238693  0.12856037  1
  O  O185  1  0.24536597  0.99550070  0.63147102  1
  O  O186  1  0.74278658  0.50644666  0.11246526  1
  O  O187  1  0.74039342  0.48951955  0.63191507  1
  O  O188  1  0.74414338  1.00384378  0.12558782  1
  O  O189  1  0.73958740  1.01285558  0.61046262  1
  O  O190  1  0.01260495  0.37983553  0.26240012  1
  O  O191  1  -0.00364120  0.38060617  0.76323501  1
  O  O192  1  0.00601044  0.86828232  0.26043679  1
  O  O193  1  -0.00056401  0.86020802  0.74701317  1
  O  O194  1  0.50011502  0.36464150  0.25905992  1
  O  O195  1  0.49092871  0.37812051  0.76554057  1
  O  O196  1  0.50207522  0.85371006  0.23407381  1
  O  O197  1  0.52165087  0.88364967  0.74707699  1
  O  O198  1  0.48881571  0.12996244  0.25758777  1
  O  O199  1  0.49280504  0.11481168  0.74071047  1
  O  O200  1  0.48360929  0.61881497  0.25239884  1
  O  O201  1  0.48158713  0.61724166  0.75022333  1
  O  O202  1  0.99498876  0.11365265  0.23302959  1
  O  O203  1  0.99072489  0.12496049  0.74293804  1
  O  O204  1  1.00912247  0.63379827  0.24435324  1
  O  O205  1  0.98293434  0.63063138  0.74757748  1
  O  O206  1  0.38510025  0.25678200  0.01161334  1
  O  O207  1  0.37653238  0.25757615  0.51094515  1
  O  O208  1  0.34980460  0.73238016  0.01432578  1
  O  O209  1  0.36343696  0.73982717  0.51334675  1
  O  O210  1  0.87834872  0.25996372  -0.00659882  1
  O  O211  1  0.85202795  0.19813252  0.51268826  1
  O  O212  1  0.86956895  0.74982053  0.00776059  1
  O  O213  1  0.86781698  0.75548581  0.51274916  1
  O  O214  1  0.14142480  0.25351215  0.52077818  1
  O  O215  1  0.12202106  0.24024357  0.99485084  1
  O  O216  1  0.12893262  0.74276708  0.49984278  1
  O  O217  1  0.13055399  0.73471862  1.00737801  1
  O  O218  1  0.61731500  0.23798590  0.48775093  1
  O  O219  1  0.61646233  0.23563565  0.98754232  1
  O  O220  1  0.63774463  0.73798099  0.51678796  1
  O  O221  1  0.63917504  0.74850440  0.97537639  1
  O  O222  1  0.48845129  0.25317807  0.13811208  1
  O  O223  1  0.49293713  0.24086703  0.62309993  1
  O  O224  1  0.47693846  0.74760765  0.10748359  1
  O  O225  1  0.48555475  0.74990230  0.61926087  1
  O  O226  1  1.00470703  0.23562099  0.12353706  1
  O  O227  1  0.99081439  0.23752099  0.61990430  1
  O  O228  1  0.99703996  0.74434419  0.13434779  1
  O  O229  1  0.98095934  0.75400379  0.62996560  1
  O  O230  1  0.00483475  0.26074956  0.38922668  1
  O  O231  1  0.00715474  0.26245681  0.87564548  1
  O  O232  1  0.00129428  0.75584031  0.37270034  1
  O  O233  1  -0.01117292  0.74555965  0.85618360  1
  O  O234  1  0.49633352  0.25743740  0.36638855  1
  O  O235  1  0.50839764  0.25796923  0.87574086  1
  O  O236  1  0.51439324  0.75406976  0.37042986  1
  O  O237  1  0.52103510  0.75073640  0.87530502  1
  O  O238  1  0.25511859  0.11439141  0.48102692  1
  O  O239  1  0.24166726  0.11829451  0.99158170  1
  O  O240  1  0.23968625  0.63464133  0.49952798  1
  O  O241  1  0.23827082  0.62120070  0.99578443  1
  O  O242  1  0.72585700  0.11765075  0.49108897  1
  O  O243  1  0.73793671  0.12501697  0.98751270  1
  O  O244  1  0.74036863  0.63326646  0.49720387  1
  O  O245  1  0.75237724  0.64467537  1.00793765  1
  O  O246  1  0.25886922  0.38087105  0.01059601  1
  O  O247  1  0.26119026  0.38000735  0.51090651  1
  O  O248  1  0.23840186  0.86343396  0.01366381  1
  O  O249  1  0.24399619  0.86527124  0.51138395  1
  O  O250  1  0.76652711  0.37729054  -0.00498126  1
  O  O251  1  0.74629032  0.37853850  0.51225319  1
  O  O252  1  0.74999253  0.85182364  -0.00073499  1
  O  O253  1  0.73355974  0.85998367  0.48851722  1
  O  O254  1  0.13448048  0.49021799  0.25362760  1
  O  O255  1  0.13217523  0.50844447  0.73933269  1
  O  O256  1  0.13237829  0.99559007  0.24088534  1
  O  O257  1  0.13744780  0.99967937  0.75009596  1
  O  O258  1  0.63081799  0.50793276  0.24950940  1
  O  O259  1  0.63703545  0.50527488  0.74035091  1
  O  O260  1  0.64007125  1.01255179  0.23058617  1
  O  O261  1  0.63250380  0.99891701  0.73419885  1
  O  O262  1  0.36560851  0.00763065  0.23543487  1
  O  O263  1  0.36640783  0.01343763  0.74206349  1
  O  O264  1  0.36616297  0.50327373  0.25903646  1
  O  O265  1  0.36093079  0.51094104  0.74828334  1
  O  O266  1  0.86846933  0.00699096  0.25293751  1
  O  O267  1  0.88325909  0.01155754  0.76987368  1
  O  O268  1  0.86408733  0.50311211  0.24617406  1
  O  O269  1  0.87087778  0.50756641  0.75210842  1
  O  O270  1  0.12228957  0.36745910  0.36645919  1
  O  O271  1  0.11268233  0.36816464  0.87853286  1
  O  O272  1  0.11541921  0.86963831  0.37215730  1
  O  O273  1  0.16969985  0.86363397  0.86363604  1
  O  O274  1  0.61304878  0.36071493  0.38289200  1
  O  O275  1  0.61325277  0.36126131  0.87733024  1
  O  O276  1  0.58787789  0.91630589  0.35556912  1
  O  O277  1  0.63039130  0.87923279  0.85999971  1
  O  O278  1  0.36401300  0.13670896  0.13586399  1
  O  O279  1  0.38161115  0.13292941  0.63224924  1
  O  O280  1  0.37307274  0.62743738  0.13591226  1
  O  O281  1  0.37550765  0.62843210  0.63231396  1
  O  O282  1  0.88835128  0.12184700  0.12942514  1
  O  O283  1  0.88357978  0.11592765  0.64583260  1
  O  O284  1  0.89262966  0.63940483  0.12214251  1
  O  O285  1  0.87728866  0.61700621  0.62790610  1
  O  O286  1  0.25882380  0.26099693  0.13265164  1
  O  O287  1  0.26467799  0.26155813  0.63365648  1
  O  O288  1  0.24890854  0.75443110  0.12234018  1
  O  O289  1  0.25556826  0.75726241  0.62007059  1
  O  O290  1  0.76634113  0.27893880  0.17081355  1
  O  O291  1  0.74306495  0.26724925  0.63246971  1
  O  O292  1  0.77194000  0.75243347  0.13153488  1
  O  O293  1  0.76478612  0.74750501  0.61550294  1
  O  O294  1  0.24619338  0.23732790  0.37391789  1
  O  O295  1  0.24064226  0.23984629  0.87103906  1
  O  O296  1  0.24477356  0.75495625  0.38604430  1
  O  O297  1  0.24780096  0.72851179  0.88721921  1
  O  O298  1  0.73346004  0.25545198  0.36641016  1
  O  O299  1  0.73468305  0.24622650  0.86992901  1
  O  O300  1  0.76376840  0.73642363  0.39812461  1
  O  O301  1  0.75176865  0.74479324  0.87616835  1
  O  O302  1  0.00929171  0.11757068  0.01151452  1
  O  O303  1  -0.00462426  0.11409163  0.51630932  1
  O  O304  1  0.00495273  0.61684351  0.00507876  1
  O  O305  1  0.00921626  0.60971361  0.49376107  1
  O  O306  1  0.51933193  0.10880786  -0.00598809  1
  O  O307  1  0.50214906  0.12056642  0.51317559  1
  O  O308  1  0.48654092  0.60744126  -0.00905419  1
  O  O309  1  0.51493672  0.63244677  0.50220038  1
  O  O310  1  0.48723858  0.37072119  0.48983051  1
  O  O311  1  0.48927207  0.38157415  0.99156376  1
  O  O312  1  0.50710793  0.89083006  0.49747029  1
  O  O313  1  0.51246474  0.88593059  0.99938133  1
  O  O314  1  1.00277181  0.38591712  0.48733079  1
  O  O315  1  0.99342709  0.38213113  0.99192122  1
  O  O316  1  1.00116641  0.88086368  0.49021450  1
  O  O317  1  1.01213517  0.89018960  0.99783167  1
  O  O318  1  0.48860083  0.48664115  0.36847074  1
  O  O319  1  0.49697658  0.48367614  0.88268086  1
  O  O320  1  0.48569565  1.02273085  0.39646200  1
  O  O321  1  0.50376764  0.99381870  0.88756819  1
  O  O322  1  0.99698982  0.48852511  0.38493531  1
  O  O323  1  0.99506791  0.49027463  0.88090988  1
  O  O324  1  0.99644076  0.99179223  0.38108716  1
  O  O325  1  0.99462794  1.00619008  0.88699367  1
  O  O326  1  0.01049091  0.00290521  0.11527541  1
  O  O327  1  -0.00046797  0.00510583  0.61792270  1
  O  O328  1  -0.00133633  0.50609493  0.11659063  1
  O  O329  1  0.00837493  0.48785261  0.61022574  1
  O  O330  1  0.51930047  -0.00362857  0.11803564  1
  O  O331  1  0.50963077  0.01071838  0.61600236  1
  O  O332  1  0.49508658  0.50426312  0.11085985  1
  O  O333  1  0.51399211  0.49970533  0.63175997  1
  O  O334  1  0.24053680  0.37862113  0.24614854  1
  O  O335  1  0.25778624  0.38590119  0.74074577  1
  O  O336  1  0.24436580  0.88072518  0.24448611  1
  O  O337  1  0.26211896  0.89057703  0.73723159  1
  O  O338  1  0.73572559  0.39501813  0.24791309  1
  O  O339  1  0.75539703  0.39096187  0.74049474  1
  O  O340  1  0.76201543  0.89861942  0.24053166  1
  O  O341  1  0.73895406  0.87969461  0.74465769  1
  O  O342  1  0.25653882  0.11549175  0.25595688  1
  O  O343  1  0.25898257  0.12124944  0.75442649  1
  O  O344  1  0.25368150  0.61258300  0.25333548  1
  O  O345  1  0.25266467  0.61627469  0.75524628  1
  O  O346  1  0.77029013  0.11716486  0.24140108  1
  O  O347  1  0.76413404  0.12543173  0.76227462  1
  O  O348  1  0.74172215  0.63182892  0.27480827  1
  O  O349  1  0.76539292  0.60959229  0.74111135  1
  O  O350  1  0.36057626  0.12989851  0.36115637  1
  O  O351  1  0.36836057  0.13640804  0.86697422  1
  O  O352  1  0.37313308  0.61729552  0.37097936  1
  O  O353  1  0.36407259  0.62563036  0.86065265  1
  O  O354  1  0.88928186  0.10574294  0.35854810  1
  O  O355  1  0.87131814  0.12581595  0.86866188  1
  O  O356  1  0.86567622  0.62101247  0.38252999  1
  O  O357  1  0.87812593  0.60950521  0.86991460  1
  O  O358  1  0.13001610  0.37538044  0.13633326  1
  O  O359  1  0.13438360  0.38677680  0.62431853  1
  O  O360  1  0.13056826  0.88205528  0.13207215  1
  O  O361  1  0.13724710  0.87370768  0.63657711  1
  O  O362  1  0.62731376  0.36330048  0.12165900  1
  O  O363  1  0.62983713  0.38740173  0.61908677  1
  O  O364  1  0.63008763  0.87988824  0.12078186  1
  O  O365  1  0.62888760  0.89106507  0.62876350  1
  O  O366  1  0.12559768  0.26114410  0.24897611  1
  O  O367  1  0.12575321  0.24871448  0.75768922  1
  O  O368  1  0.11652281  0.75438195  0.25816920  1
  O  O369  1  0.10493203  0.74076137  0.74294484  1
  O  O370  1  0.61240116  0.23988145  0.26556063  1
  O  O371  1  0.61940298  0.24305978  0.75953640  1
  O  O372  1  0.68053668  0.78926079  0.28385432  1
  O  O373  1  0.63657054  0.76136487  0.75715964  1
  O  O374  1  0.38086796  0.24253864  0.24420038  1
  O  O375  1  0.37669433  0.23858882  0.74021425  1
  O  O376  1  0.36100816  0.73553300  0.24082416  1
  O  O377  1  0.36632859  0.73393335  0.73307400  1
  O  O378  1  0.88655341  0.22998617  0.26521391  1
  O  O379  1  0.87369233  0.23950658  0.74834591  1
  O  O380  1  0.88708709  0.75642511  0.24494862  1
  O  O381  1  0.87483688  0.73789759  0.73412402  1
  O  O382  1  0.37029341  0.49209580  0.48979930  1
  O  O383  1  0.38086497  0.48677374  0.99587497  1
  O  O384  1  0.38576976  0.99360638  0.51687863  1
  O  O385  1  0.39635907  1.00066170  1.01230614  1
  O  O386  1  0.88791289  0.50269099  0.50213340  1
  O  O387  1  0.88581928  0.49616962  0.99038104  1
  O  O388  1  0.88056916  1.00563096  0.48206083  1
  O  O389  1  0.89045207  1.00410967  0.99227402  1
  O  O390  1  0.11754275  0.01141783  0.00600502  1
  O  O391  1  0.11117934  -0.00284844  0.50297149  1
  O  O392  1  0.11365868  0.50352690  0.00324458  1
  O  O393  1  0.12078625  0.50539006  0.50571188  1
  O  O394  1  0.62675251  0.00566688  0.01204427  1
  O  O395  1  0.61365365  0.01129914  0.50670516  1
  O  O396  1  0.61077144  0.50545717  -0.00700856  1
  O  O397  1  0.62824733  0.51207749  0.51321842  1
  O  O398  1  0.36811731  0.36657931  0.12059977  1
  O  O399  1  0.37103364  0.36939749  0.61824134  1
  O  O400  1  0.35907305  0.86301904  0.13111699  1
  O  O401  1  0.36900564  0.86117717  0.62925504  1
  O  O402  1  0.88230488  0.37529124  0.10527894  1
  O  O403  1  0.86089448  0.37261027  0.62167854  1
  O  O404  1  0.88892152  0.86353474  0.12206440  1
  O  O405  1  0.86866365  0.87378548  0.62821889  1
  O  O406  1  0.13757028  0.12839286  0.36756063  1
  O  O407  1  0.13035567  0.13493413  0.88144637  1
  O  O408  1  0.12762662  0.63124037  0.38606053  1
  O  O409  1  0.12834620  0.61464637  0.88604617  1
  O  O410  1  0.61430724  0.13392096  0.38326468  1
  O  O411  1  0.63285707  0.13251866  0.87501458  1
  O  O412  1  0.63365295  0.62155929  0.39445311  1
  O  O413  1  0.62734011  0.63267725  0.85878887  1
