# generated using pymatgen
data_V79Zn79O256
_symmetry_space_group_name_H-M   'P 1'
_cell_length_a   16.93954868
_cell_length_b   16.91787345
_cell_length_c   16.90525750
_cell_angle_alpha   89.93452126
_cell_angle_beta   89.96071607
_cell_angle_gamma   89.92804126
_symmetry_Int_Tables_number   1
_chemical_formula_structural   V79Zn79O256
_chemical_formula_sum   'V79 Zn79 O256'
_cell_volume   4844.71986195
_cell_formula_units_Z   1
loop_
 _symmetry_equiv_pos_site_id
 _symmetry_equiv_pos_as_xyz
  1  'x, y, z'
loop_
 _atom_site_type_symbol
 _atom_site_label
 _atom_site_symmetry_multiplicity
 _atom_site_fract_x
 _atom_site_fract_y
 _atom_site_fract_z
 _atom_site_occupancy
  V  V0  1  0.24856060  0.37089264  0.12414528  1
  V  V1  1  0.62111404  0.75999727  0.37302431  1
  V  V2  1  0.12191966  0.74698218  0.88043479  1
  V  V3  1  0.47992784  0.74996258  0.74127627  1
  V  V4  1  0.24601012  0.00399620  0.74428950  1
  V  V5  1  0.50079381  0.37388396  0.37278263  1
  V  V6  1  0.87316081  0.12223007  0.76104164  1
  V  V7  1  0.38964127  0.24930907  0.62006685  1
  V  V8  1  0.49494138  0.49795285  0.50195184  1
  V  V9  1  0.89397763  -0.01096195  0.88529019  1
  V  V10  1  0.63401586  0.50246415  0.62651278  1
  V  V11  1  0.38208581  -0.00055631  0.37107651  1
  V  V12  1  0.62765228  0.01427391  0.11998568  1
  V  V13  1  0.74904142  -0.00069829  0.76615004  1
  V  V14  1  0.49671019  0.75256195  0.25106729  1
  V  V15  1  0.25007555  0.87447646  0.11795524  1
  V  V16  1  0.25439717  0.12397597  0.37378741  1
  V  V17  1  0.49994507  0.85477568  0.88697500  1
  V  V18  1  0.00687857  0.11527201  0.62595225  1
  V  V19  1  0.87797135  0.37408707  0.49736837  1
  V  V20  1  0.12119401  -0.00035902  0.11979435  1
  V  V21  1  0.88290697  0.74867752  0.62586105  1
  V  V22  1  0.37547265  0.74974154  0.11952371  1
  V  V23  1  0.76794995  0.37465764  0.13269829  1
  V  V24  1  0.75309805  0.11452902  0.37327258  1
  V  V25  1  0.00268143  0.25041012  0.75253022  1
  V  V26  1  0.00562994  -0.00133208  0.49040018  1
  V  V27  1  0.38328027  0.12606974  0.74816948  1
  V  V28  1  0.87512571  0.62101708  0.24970493  1
  V  V29  1  0.12533313  0.25035886  0.88415023  1
  V  V30  1  0.50328836  -0.00374792  0.49741882  1
  V  V31  1  0.11804973  0.62951368  0.50956167  1
  V  V32  1  0.62175154  0.00303665  0.62695058  1
  V  V33  1  0.24885363  0.88193199  0.62455978  1
  V  V34  1  0.25350306  0.75323763  0.50759410  1
  V  V35  1  0.00164062  0.75188283  0.74980616  1
  V  V36  1  0.12660747  0.37379636  0.74790763  1
  V  V37  1  0.11922881  0.87675490  0.25622627  1
  V  V38  1  0.12608041  0.49731054  0.62694604  1
  V  V39  1  0.49116851  0.63371792  0.62378433  1
  V  V40  1  -0.00220118  0.25478820  0.25096137  1
  V  V41  1  0.24906853  0.12420642  0.88269018  1
  V  V42  1  0.62295608  0.25036597  0.36999593  1
  V  V43  1  0.74924928  0.25364825  -0.01861316  1
  V  V44  1  0.87098491  0.11462709  0.25549467  1
  V  V45  1  0.49472110  0.02197293  0.00379071  1
  V  V46  1  0.87965319  0.61661879  0.75628624  1
  V  V47  1  0.24850086  0.73803588  -0.00462291  1
  V  V48  1  0.37492059  0.62414997  0.25121040  1
  V  V49  1  0.75460108  0.87545511  0.62642511  1
  V  V50  1  -0.00131424  0.50392344  0.50211744  1
  V  V51  1  0.62927860  0.62953950  0.49797114  1
  V  V52  1  0.00364342  0.62501767  0.11586563  1
  V  V53  1  0.12615882  0.25443262  0.37686547  1
  V  V54  1  0.23754585  0.49924103  0.25944704  1
  V  V55  1  0.87725132  0.75851954  0.11373352  1
  V  V56  1  0.62461906  0.86293129  0.75078231  1
  V  V57  1  0.25708892  0.00305277  0.24786415  1
  V  V58  1  0.12232518  0.88119531  0.75169920  1
  V  V59  1  0.24981213  0.62720751  0.38366278  1
  V  V60  1  0.12306054  0.50483386  0.12030959  1
  V  V61  1  0.63472717  0.38814059  0.24997191  1
  V  V62  1  -0.00733712  0.12269533  0.12294655  1
  V  V63  1  0.73565848  0.74701462  -0.00617605  1
  V  V64  1  0.26031381  0.37091810  0.61904444  1
  V  V65  1  0.74715807  0.37867513  0.63249368  1
  V  V66  1  0.87594015  0.24712346  0.62680660  1
  V  V67  1  0.74999575  0.61963682  0.36933252  1
  V  V68  1  0.87785974  0.88177266  0.48983864  1
  V  V69  1  0.11890740  0.75761023  0.37852118  1
  V  V70  1  0.61967274  0.12440384  0.50206195  1
  V  V71  1  0.75062298  0.24751633  0.50168934  1
  V  V72  1  0.37522375  0.49685183  0.38137974  1
  V  V73  1  0.89158328  0.38683994  -0.01966786  1
  V  V74  1  0.37801173  0.87407899  0.50066833  1
  V  V75  1  0.74870063  0.61371963  0.87751147  1
  V  V76  1  0.62990459  0.87503101  0.23093131  1
  V  V77  1  0.62285572  0.51598761  0.12668050  1
  V  V78  1  0.35671053  0.37276466  -0.01262323  1
  Zn  Zn79  1  0.87148728  0.49650542  0.37200818  1
  Zn  Zn80  1  0.75444088  0.75362829  0.49679262  1
  Zn  Zn81  1  0.25998501  0.24682610  0.49806294  1
  Zn  Zn82  1  0.49940799  0.38933082  0.87578989  1
  Zn  Zn83  1  0.37208507  -0.01039351  0.88229011  1
  Zn  Zn84  1  0.51143911  0.26161591  0.77063752  1
  Zn  Zn85  1  0.69280343  0.44823795  0.80412214  1
  Zn  Zn86  1  0.12298902  0.12651590  0.00521040  1
  Zn  Zn87  1  0.13339771  0.11979321  0.50792377  1
  Zn  Zn88  1  0.00995021  0.38122570  0.37163497  1
  Zn  Zn89  1  0.46639850  0.15862230  0.15204317  1
  Zn  Zn90  1  -0.00606214  0.75630078  0.25452174  1
  Zn  Zn91  1  0.76065761  0.88617280  0.11677308  1
  Zn  Zn92  1  -0.06499351  0.93771004  0.31562602  1
  Zn  Zn93  1  0.47356419  0.50231541  0.04445321  1
  Zn  Zn94  1  0.18643167  0.18648848  0.19071681  1
  Zn  Zn95  1  0.19092696  0.18870473  0.68813816  1
  Zn  Zn96  1  0.18821540  0.68908182  0.19339029  1
  Zn  Zn97  1  0.18936218  0.69121077  0.69854868  1
  Zn  Zn98  1  0.68592338  0.19645300  0.18365992  1
  Zn  Zn99  1  0.69356020  0.18363135  0.68956436  1
  Zn  Zn100  1  0.69464920  0.69412533  0.18724932  1
  Zn  Zn101  1  0.69498121  0.68177131  0.69070263  1
  Zn  Zn102  1  0.30762177  0.31868136  0.30991863  1
  Zn  Zn103  1  0.30923132  0.31089726  0.80589862  1
  Zn  Zn104  1  0.30891937  0.81631093  0.31478292  1
  Zn  Zn105  1  0.31280354  0.81506238  0.81514137  1
  Zn  Zn106  1  0.81267443  0.30494475  0.31297783  1
  Zn  Zn107  1  0.82381962  0.31803484  0.81633686  1
  Zn  Zn108  1  0.80615254  0.80507197  0.30639512  1
  Zn  Zn109  1  0.81435970  0.81160839  0.81838893  1
  Zn  Zn110  1  0.19049098  0.43665800  0.44624167  1
  Zn  Zn111  1  0.15463865  0.44412953  0.93940389  1
  Zn  Zn112  1  0.18956214  0.94139552  0.43795665  1
  Zn  Zn113  1  0.18039501  0.93576152  0.93634424  1
  Zn  Zn114  1  0.68772477  0.43759173  0.44400520  1
  Zn  Zn115  1  0.66981980  0.40809894  0.97657686  1
  Zn  Zn116  1  0.68986759  0.93463216  0.43585314  1
  Zn  Zn117  1  0.67582347  0.92841055  0.94413940  1
  Zn  Zn118  1  0.31741656  0.06266893  0.06410813  1
  Zn  Zn119  1  0.32044863  0.06573579  0.56164046  1
  Zn  Zn120  1  0.30300194  0.56121941  0.06921167  1
  Zn  Zn121  1  0.29152965  0.58258616  0.60271784  1
  Zn  Zn122  1  0.80656268  0.07460424  0.05740085  1
  Zn  Zn123  1  0.81559120  0.06117111  0.56459653  1
  Zn  Zn124  1  0.80964951  0.55511970  0.06133419  1
  Zn  Zn125  1  0.81547742  0.56606207  0.56308125  1
  Zn  Zn126  1  0.44220878  0.32551033  0.17573007  1
  Zn  Zn127  1  0.50116976  0.48224377  0.73856128  1
  Zn  Zn128  1  0.44080352  0.93586263  0.18082182  1
  Zn  Zn129  1  0.43531710  0.93916934  0.68710395  1
  Zn  Zn130  1  0.94526506  0.44241371  0.19067436  1
  Zn  Zn131  1  0.94164177  0.43455548  0.68514427  1
  Zn  Zn132  1  0.94201102  0.93873277  0.05450879  1
  Zn  Zn133  1  0.93716368  0.93858256  0.68954030  1
  Zn  Zn134  1  0.06928844  0.07001424  0.30975629  1
  Zn  Zn135  1  0.06255523  0.06409676  0.81413554  1
  Zn  Zn136  1  0.05684298  0.57242314  0.31854258  1
  Zn  Zn137  1  0.06485763  0.56447182  0.81643131  1
  Zn  Zn138  1  0.56928963  0.05746738  0.31068014  1
  Zn  Zn139  1  0.56415188  0.05337495  0.82156780  1
  Zn  Zn140  1  0.55898239  0.56490309  0.30907494  1
  Zn  Zn141  1  0.57377372  0.54690960  0.91014389  1
  Zn  Zn142  1  0.44027637  0.19009302  0.32135420  1
  Zn  Zn143  1  0.42243136  0.19781586  0.93444678  1
  Zn  Zn144  1  0.43891850  0.68881030  0.43735730  1
  Zn  Zn145  1  0.40754111  0.57280528  0.91149709  1
  Zn  Zn146  1  0.93883796  0.18415681  0.43756072  1
  Zn  Zn147  1  0.93183837  0.19673094  0.94184517  1
  Zn  Zn148  1  0.93545526  0.69037285  0.43826222  1
  Zn  Zn149  1  0.94115300  0.68798910  0.93464957  1
  Zn  Zn150  1  0.06426909  0.31442111  0.07122567  1
  Zn  Zn151  1  0.06293201  0.30796627  0.56160634  1
  Zn  Zn152  1  0.06530912  0.80947056  0.06556270  1
  Zn  Zn153  1  0.06342212  0.82093702  0.56598628  1
  Zn  Zn154  1  0.53746935  0.28497718  0.00874003  1
  Zn  Zn155  1  0.56149325  0.31354445  0.56295987  1
  Zn  Zn156  1  0.52661869  0.71069694  0.01803975  1
  Zn  Zn157  1  0.56577075  0.81632870  0.56279866  1
  O  O158  1  0.11604517  0.11607538  0.12817280  1
  O  O159  1  0.11205749  0.13029705  0.62528502  1
  O  O160  1  0.11001618  0.62347374  0.13921785  1
  O  O161  1  0.12608862  0.61718679  0.61387967  1
  O  O162  1  0.62592548  0.11301032  0.13234121  1
  O  O163  1  0.63868738  0.11124621  0.61509416  1
  O  O164  1  0.63169155  0.61568164  0.13749358  1
  O  O165  1  0.62880916  0.62355680  0.61270525  1
  O  O166  1  0.38421063  0.38985082  0.37315738  1
  O  O167  1  0.34496301  0.38198072  0.88606178  1
  O  O168  1  0.36687957  0.88798680  0.38860354  1
  O  O169  1  0.39626781  0.87624227  0.86645313  1
  O  O170  1  0.87373109  0.37436324  0.38894182  1
  O  O171  1  0.88706706  0.38783156  0.87819511  1
  O  O172  1  0.87003387  0.86887981  0.38272735  1
  O  O173  1  0.87604583  0.89082891  0.87461564  1
  O  O174  1  0.25852853  0.00577232  0.36832059  1
  O  O175  1  0.25093878  0.00789414  0.86682103  1
  O  O176  1  0.25577618  0.50517139  0.37883019  1
  O  O177  1  0.21241634  0.51105252  0.85152320  1
  O  O178  1  0.74230236  0.01491388  0.37369263  1
  O  O179  1  0.74256731  -0.00648042  0.86718345  1
  O  O180  1  0.75207229  0.51537882  0.38539581  1
  O  O181  1  0.76147830  0.51394193  0.87328035  1
  O  O182  1  0.23515803  0.50453721  0.14311856  1
  O  O183  1  0.23759276  0.47992266  0.61470409  1
  O  O184  1  0.24373237  0.99243252  0.13203502  1
  O  O185  1  0.25424632  0.99647332  0.63315118  1
  O  O186  1  0.73899517  0.48515220  0.12525585  1
  O  O187  1  0.74493177  0.49196224  0.61611193  1
  O  O188  1  0.73296656  0.99986988  0.11171171  1
  O  O189  1  0.74695436  0.98923935  0.63413973  1
  O  O190  1  -0.00170994  0.35959135  0.25455371  1
  O  O191  1  0.00937021  0.35875135  0.74226266  1
  O  O192  1  0.01414632  0.87712147  0.25438092  1
  O  O193  1  0.01208031  0.86829248  0.74415637  1
  O  O194  1  0.51896105  0.37772257  0.26729246  1
  O  O195  1  0.49087563  0.37202603  0.76080914  1
  O  O196  1  0.50917127  0.85934759  0.24134032  1
  O  O197  1  0.50696014  0.86212211  0.73845538  1
  O  O198  1  0.50680473  0.12914130  0.25465356  1
  O  O199  1  0.48170698  0.11548105  0.76168239  1
  O  O200  1  0.48544478  0.63669253  0.25534048  1
  O  O201  1  0.49676117  0.63958316  0.72975837  1
  O  O202  1  0.99015356  0.12959699  0.24677063  1
  O  O203  1  0.99411417  0.12885129  0.74321972  1
  O  O204  1  0.98875534  0.63456989  0.24916856  1
  O  O205  1  0.99371332  0.64040001  0.75508666  1
  O  O206  1  0.35871086  0.27195641  -0.00287638  1
  O  O207  1  0.38101640  0.24545558  0.52163054  1
  O  O208  1  0.36094642  0.74750324  0.01742721  1
  O  O209  1  0.36524334  0.76169105  0.49116022  1
  O  O210  1  0.86278666  0.26942991  -0.00710177  1
  O  O211  1  0.87217755  0.25503918  0.50619983  1
  O  O212  1  0.88040966  0.74841891  0.01226847  1
  O  O213  1  0.87771525  0.76182399  0.50944839  1
  O  O214  1  0.12357499  0.24088611  0.48746733  1
  O  O215  1  0.12079797  0.24863089  0.98687161  1
  O  O216  1  0.13022570  0.74896701  0.49846763  1
  O  O217  1  0.13523552  0.75201559  0.98910390  1
  O  O218  1  0.63089953  0.24116825  0.49773750  1
  O  O219  1  0.65045735  0.29168255  0.99675451  1
  O  O220  1  0.62530654  0.74584162  0.49105005  1
  O  O221  1  0.63900145  0.73123802  1.00660539  1
  O  O222  1  0.50754766  0.25655490  0.11384439  1
  O  O223  1  0.49217075  0.25742260  0.63598697  1
  O  O224  1  0.47913295  0.74294476  0.12831340  1
  O  O225  1  0.50579701  0.74262208  0.62722040  1
  O  O226  1  1.01447121  0.23702262  0.14518692  1
  O  O227  1  0.99451531  0.23965967  0.63259842  1
  O  O228  1  0.99315202  0.74060829  0.12943575  1
  O  O229  1  0.99272550  0.75634596  0.63331770  1
  O  O230  1  0.01175545  0.24754418  0.37046693  1
  O  O231  1  0.01588119  0.23624340  0.86411464  1
  O  O232  1  0.01510243  0.75003277  0.37781221  1
  O  O233  1  0.01481588  0.75334506  0.86857029  1
  O  O234  1  0.51310978  0.26249561  0.38662124  1
  O  O235  1  0.50233480  0.26608488  0.89240399  1
  O  O236  1  0.51024377  0.74711774  0.36532486  1
  O  O237  1  0.50015532  0.75447789  0.84716335  1
  O  O238  1  0.25201949  0.12509106  0.48991169  1
  O  O239  1  0.24985002  0.11770997  0.98477397  1
  O  O240  1  0.24143439  0.63585851  0.50276945  1
  O  O241  1  0.24750393  0.64008792  1.00322403  1
  O  O242  1  0.74592045  0.12755520  0.49407993  1
  O  O243  1  0.74738010  0.15570691  1.00767168  1
  O  O244  1  0.74292504  0.63134847  0.49324780  1
  O  O245  1  0.76620380  0.63254812  0.98640314  1
  O  O246  1  0.24363079  0.39205558  0.01519242  1
  O  O247  1  0.25001833  0.36475309  0.51316992  1
  O  O248  1  0.24416572  0.87100749  0.01384704  1
  O  O249  1  0.25558934  0.87360149  0.50682500  1
  O  O250  1  0.77353886  0.37435907  0.01643291  1
  O  O251  1  0.75977982  0.36832645  0.50857966  1
  O  O252  1  0.74140300  0.85438857  0.00272880  1
  O  O253  1  0.75981396  0.87659016  0.50872230  1
  O  O254  1  0.13392090  0.50953249  0.25815672  1
  O  O255  1  0.10979153  0.48793991  0.73289925  1
  O  O256  1  0.13389186  0.99452249  0.24371447  1
  O  O257  1  0.13549936  0.99445102  0.75546688  1
  O  O258  1  0.63223722  0.49281829  0.25603866  1
  O  O259  1  0.62390554  0.50799789  0.72834952  1
  O  O260  1  0.61725197  0.98375447  0.23425526  1
  O  O261  1  0.63066179  0.99119233  0.74314275  1
  O  O262  1  0.36698133  -0.01418429  0.25899365  1
  O  O263  1  0.36558006  0.01011511  0.75183108  1
  O  O264  1  0.36086898  0.51465127  0.26640402  1
  O  O265  1  0.28714333  0.52024811  0.83374672  1
  O  O266  1  0.87634218  0.01486165  0.25475834  1
  O  O267  1  0.86968042  0.00261692  0.76464242  1
  O  O268  1  0.88238338  0.51562112  0.25538085  1
  O  O269  1  0.88784285  0.51854662  0.73966010  1
  O  O270  1  0.12907033  0.35904800  0.38182250  1
  O  O271  1  0.13798423  0.35279080  0.86436466  1
  O  O272  1  0.13467304  0.86863139  0.36860924  1
  O  O273  1  0.13606162  0.86449836  0.85878284  1
  O  O274  1  0.62375510  0.36981658  0.37454839  1
  O  O275  1  0.61378405  0.43121023  0.88226073  1
  O  O276  1  0.63233190  0.86460119  0.36409339  1
  O  O277  1  0.60797296  0.87740655  0.86134082  1
  O  O278  1  0.36277917  0.12323366  0.14138691  1
  O  O279  1  0.37326477  0.13557464  0.63885421  1
  O  O280  1  0.35733512  0.63964919  0.14190353  1
  O  O281  1  0.39528228  0.62908044  0.60489044  1
  O  O282  1  0.88580818  0.12258240  0.13811467  1
  O  O283  1  0.88310430  0.12840391  0.63585715  1
  O  O284  1  0.88672591  0.62834155  0.13220933  1
  O  O285  1  0.86713776  0.64186139  0.63577166  1
  O  O286  1  0.23013638  0.27285509  0.13137532  1
  O  O287  1  0.25771933  0.25572448  0.62321482  1
  O  O288  1  0.24844475  0.75617583  0.11789770  1
  O  O289  1  0.24590169  0.76365981  0.61292527  1
  O  O290  1  0.74780980  0.27249861  0.12681800  1
  O  O291  1  0.75443097  0.25691064  0.62285932  1
  O  O292  1  0.76699821  0.74298493  0.11086672  1
  O  O293  1  0.75991728  0.76396399  0.62570014  1
  O  O294  1  0.24213963  0.24329957  0.37394456  1
  O  O295  1  0.23663296  0.23166296  0.86529579  1
  O  O296  1  0.24123724  0.74786746  0.38824604  1
  O  O297  1  0.24723166  0.75816729  0.89025440  1
  O  O298  1  0.74228741  0.24157279  0.38435081  1
  O  O299  1  0.75155650  0.25757500  0.87935170  1
  O  O300  1  0.73790551  0.73984403  0.37651286  1
  O  O301  1  0.75683603  0.74320329  0.88918779  1
  O  O302  1  -0.00233750  0.13836379  0.02079106  1
  O  O303  1  -0.00361726  0.11151668  0.50809339  1
  O  O304  1  -0.00035744  0.62879232  0.01703053  1
  O  O305  1  0.00748776  0.61780276  0.49608471  1
  O  O306  1  0.49339202  0.12096695  -0.00406256  1
  O  O307  1  0.51772237  0.11117418  0.50101225  1
  O  O308  1  0.49393977  0.60923761  -0.01947753  1
  O  O309  1  0.51294078  0.62272645  0.50378968  1
  O  O310  1  0.50927314  0.39068169  0.49123840  1
  O  O311  1  0.46900821  0.39011591  0.99372957  1
  O  O312  1  0.49225806  0.88488428  0.50531728  1
  O  O313  1  0.50653982  0.83141271  0.98230297  1
  O  O314  1  0.99145651  0.37990833  0.49841140  1
  O  O315  1  0.98801231  0.36495556  1.00709761  1
  O  O316  1  0.99344595  0.88997715  0.50374153  1
  O  O317  1  1.01570296  0.88015726  0.99850197  1
  O  O318  1  0.49476941  0.49719551  0.38270186  1
  O  O319  1  0.47925964  0.50955643  0.84750659  1
  O  O320  1  0.49436622  1.00130505  0.38534878  1
  O  O321  1  0.50362318  0.98637945  0.89638458  1
  O  O322  1  0.99805523  0.49753865  0.38762919  1
  O  O323  1  1.05608931  0.48512961  0.89215333  1
  O  O324  1  1.00081345  1.00630361  0.38565783  1
  O  O325  1  0.99316840  0.99903461  0.87715475  1
  O  O326  1  0.00649865  0.01453364  0.12682317  1
  O  O327  1  -0.00491432  0.00899763  0.61798226  1
  O  O328  1  0.01283524  0.51381570  0.13383693  1
  O  O329  1  0.01073976  0.49239995  0.60938964  1
  O  O330  1  0.50728049  -0.00064116  0.11202367  1
  O  O331  1  0.51432549  -0.00418507  0.61770124  1
  O  O332  1  0.52229757  0.50094757  0.14582031  1
  O  O333  1  0.51089077  0.51742525  0.62044268  1
  O  O334  1  0.25025777  0.39144003  0.24046551  1
  O  O335  1  0.23443462  0.36682890  0.73444626  1
  O  O336  1  0.24129464  0.88423088  0.24403573  1
  O  O337  1  0.24782760  0.88440243  0.74239101  1
  O  O338  1  0.74426734  0.37445765  0.25034665  1
  O  O339  1  0.75611958  0.37642474  0.73771717  1
  O  O340  1  0.73473066  0.86527635  0.23747506  1
  O  O341  1  0.74487509  0.88059241  0.74590334  1
  O  O342  1  0.24361677  0.11116247  0.25952262  1
  O  O343  1  0.25481827  0.11703490  0.75597000  1
  O  O344  1  0.25398497  0.62263944  0.26525167  1
  O  O345  1  0.26218946  0.61267360  0.70705130  1
  O  O346  1  0.76529727  0.13647198  0.25591990  1
  O  O347  1  0.76513173  0.11050825  0.74406566  1
  O  O348  1  0.76185491  0.63199921  0.25910996  1
  O  O349  1  0.77019142  0.63442200  0.76232283  1
  O  O350  1  0.36545579  0.11175434  0.37352763  1
  O  O351  1  0.35999495  0.12477269  0.86587469  1
  O  O352  1  0.36846588  0.62097645  0.37288858  1
  O  O353  1  0.31507747  0.59476996  0.84599432  1
  O  O354  1  0.86733654  0.12805568  0.36628360  1
  O  O355  1  0.88382506  0.11654742  0.86548537  1
  O  O356  1  0.86666115  0.63004741  0.36804052  1
  O  O357  1  0.87868639  0.62788600  0.86096305  1
  O  O358  1  0.12823761  0.39684663  0.12476420  1
  O  O359  1  0.12991380  0.37683292  0.62854127  1
  O  O360  1  0.13220727  0.88058254  0.13690745  1
  O  O361  1  0.13868731  0.87616956  0.63593677  1
  O  O362  1  0.63264114  0.38387607  0.14871641  1
  O  O363  1  0.63779757  0.38624309  0.61529855  1
  O  O364  1  0.62571422  0.87669277  0.13076770  1
  O  O365  1  0.63623969  0.88347039  0.62915098  1
  O  O366  1  0.11391630  0.23964249  0.26865384  1
  O  O367  1  0.11764800  0.25282213  0.75414090  1
  O  O368  1  0.12743643  0.76049095  0.26250042  1
  O  O369  1  0.12024564  0.76059522  0.75444772  1
  O  O370  1  0.63231310  0.26156751  0.26639301  1
  O  O371  1  0.61555883  0.20336814  0.77329561  1
  O  O372  1  0.61687195  0.75623260  0.25207862  1
  O  O373  1  0.62737952  0.76190253  0.74039908  1
  O  O374  1  0.38631797  0.26373192  0.25463786  1
  O  O375  1  0.37694222  0.23557582  0.74855521  1
  O  O376  1  0.37759127  0.74552899  0.25036039  1
  O  O377  1  0.38133102  0.75640763  0.74010116  1
  O  O378  1  0.89303532  0.23989228  0.25907838  1
  O  O379  1  0.88442622  0.24169745  0.74843515  1
  O  O380  1  0.87504150  0.74319785  0.23599223  1
  O  O381  1  0.88639817  0.75228410  0.74458161  1
  O  O382  1  0.38820782  0.51064740  0.49113040  1
  O  O383  1  0.36580738  0.50152806  0.99947800  1
  O  O384  1  0.38568007  0.99580866  0.49369957  1
  O  O385  1  0.39135156  0.99684608  1.00120839  1
  O  O386  1  0.88326614  0.49302074  0.50208033  1
  O  O387  1  0.88194822  0.48409723  1.01021502  1
  O  O388  1  0.88459515  0.99056124  0.50157431  1
  O  O389  1  0.87202668  1.00645850  0.98999440  1
  O  O390  1  0.13109460  0.00396887  0.01581268  1
  O  O391  1  0.11032867  -0.00008621  0.49930401  1
  O  O392  1  0.13591331  0.52171638  0.02464799  1
  O  O393  1  0.11861985  0.50908784  0.50466113  1
  O  O394  1  0.60954774  -0.00265218  0.01148492  1
  O  O395  1  0.62216748  0.00152764  0.50605895  1
  O  O396  1  0.61932153  0.50294688  0.02277997  1
  O  O397  1  0.61737675  0.51225167  0.50501650  1
  O  O398  1  0.35325503  0.38044064  0.11645162  1
  O  O399  1  0.36126321  0.36165599  0.63414122  1
  O  O400  1  0.36220872  0.85869812  0.13563470  1
  O  O401  1  0.36375124  0.88344898  0.61142612  1
  O  O402  1  0.86747773  0.37758606  0.14171079  1
  O  O403  1  0.86924183  0.36859188  0.61722762  1
  O  O404  1  0.87756504  0.86273144  0.12430146  1
  O  O405  1  0.86985647  0.87060674  0.61927194  1
  O  O406  1  0.13886101  0.13029097  0.38027399  1
  O  O407  1  0.13404031  0.12900605  0.87857611  1
  O  O408  1  0.13101293  0.63604402  0.38911285  1
  O  O409  1  0.13286571  0.65040730  0.86104159  1
  O  O410  1  0.63295472  0.13185121  0.38290202  1
  O  O411  1  0.62605655  0.15204207  0.83764661  1
  O  O412  1  0.62998786  0.63260741  0.38038612  1
  O  O413  1  0.64943709  0.62336250  0.86845869  1
