# generated using pymatgen
data_V79Zn79O256
_symmetry_space_group_name_H-M   'P 1'
_cell_length_a   16.89136148
_cell_length_b   16.88887931
_cell_length_c   16.91052831
_cell_angle_alpha   90.00407764
_cell_angle_beta   89.94019217
_cell_angle_gamma   90.11061699
_symmetry_Int_Tables_number   1
_chemical_formula_structural   V79Zn79O256
_chemical_formula_sum   'V79 Zn79 O256'
_cell_volume   4824.15904172
_cell_formula_units_Z   1
loop_
 _symmetry_equiv_pos_site_id
 _symmetry_equiv_pos_as_xyz
  1  'x, y, z'
loop_
 _atom_site_type_symbol
 _atom_site_label
 _atom_site_symmetry_multiplicity
 _atom_site_fract_x
 _atom_site_fract_y
 _atom_site_fract_z
 _atom_site_occupancy
  V  V0  1  0.87984889  0.87375921  0.49961416  1
  V  V1  1  0.25174638  0.63443523  0.37861628  1
  V  V2  1  0.61838476  -0.00323780  0.62945224  1
  V  V3  1  0.24983360  0.11692558  0.87605971  1
  V  V4  1  0.62185674  0.12198030  0.50323213  1
  V  V5  1  0.87432033  0.37019155  -0.00377655  1
  V  V6  1  0.25617102  0.87858866  0.62534397  1
  V  V7  1  0.74532064  -0.01072091  0.25059283  1
  V  V8  1  0.75724421  0.25551938  0.51323277  1
  V  V9  1  0.75358204  0.61949306  0.86869767  1
  V  V10  1  0.24536238  0.50864362  0.76372814  1
  V  V11  1  0.62953606  0.75358366  0.36619557  1
  V  V12  1  0.25054402  0.12630489  0.37808303  1
  V  V13  1  0.12762938  -0.00843505  0.13369692  1
  V  V14  1  0.87994998  0.75965191  0.13819609  1
  V  V15  1  0.25609078  0.25818546  0.00333741  1
  V  V16  1  0.37262647  0.75134137  0.60674587  1
  V  V17  1  -0.00051797  0.49430548  -0.00678699  1
  V  V18  1  0.88372539  0.49577202  0.36626789  1
  V  V19  1  0.12405927  0.37006943  0.25044004  1
  V  V20  1  0.62438043  0.61885886  0.50566451  1
  V  V21  1  0.74958471  0.87057572  0.62659008  1
  V  V22  1  0.37275544  0.62392688  0.75388388  1
  V  V23  1  0.37575153  0.37675535  0.50206978  1
  V  V24  1  0.77315043  0.75216853  0.00024281  1
  V  V25  1  0.37821661  -0.00799744  0.87561754  1
  V  V26  1  -0.00030800  0.61502276  0.62433792  1
  V  V27  1  0.87286257  -0.00141402  0.37778725  1
  V  V28  1  0.50423478  0.75614769  0.24064622  1
  V  V29  1  0.51279005  0.12717377  0.12186483  1
  V  V30  1  0.12443672  -0.00792573  0.64542197  1
  V  V31  1  0.61789493  0.74079041  0.88661454  1
  V  V32  1  0.62725206  -0.02132696  0.12840403  1
  V  V33  1  -0.01257581  -0.00767472  0.00143046  1
  V  V34  1  0.24817045  -0.00614541  0.25233821  1
  V  V35  1  0.12689093  0.12172468  0.00359767  1
  V  V36  1  0.24672006  0.25200000  0.50303716  1
  V  V37  1  0.87531787  0.49983017  0.86113481  1
  V  V38  1  0.37282101  0.87602268  0.01107996  1
  V  V39  1  0.61875379  0.51467077  0.10342162  1
  V  V40  1  0.74822371  0.12365796  0.37819536  1
  V  V41  1  0.12246473  0.36997958  0.75750589  1
  V  V42  1  0.87820531  0.74416024  0.63033825  1
  V  V43  1  0.61937962  0.86734899  0.75655523  1
  V  V44  1  0.76287929  -0.00579377  0.75787990  1
  V  V45  1  0.38342248  -0.00194471  0.39122461  1
  V  V46  1  0.87626341  0.25109156  0.12487529  1
  V  V47  1  0.13064144  0.49704421  0.12105036  1
  V  V48  1  0.74882912  0.11766956  0.88594232  1
  V  V49  1  0.37534095  0.26661947  0.12121684  1
  V  V50  1  0.00175110  0.12877662  0.13309337  1
  V  V51  1  0.12737643  0.62726421  0.50285645  1
  V  V52  1  0.50325933  0.37756031  0.37427238  1
  V  V53  1  0.12659173  0.62639213  -0.01348887  1
  V  V54  1  0.12210848  0.75617901  0.36225853  1
  V  V55  1  0.50473088  -0.00157012  -0.00223654  1
  V  V56  1  0.38154400  0.63560755  0.24314884  1
  V  V57  1  0.00368497  0.87493433  0.36319259  1
  V  V58  1  0.01124728  0.75350762  0.74883432  1
  V  V59  1  0.75204076  0.74549805  0.50167720  1
  V  V60  1  0.45809568  0.40994088  0.88125189  1
  V  V61  1  0.24481925  0.38723477  0.62563194  1
  V  V62  1  0.25253583  0.74924594  -0.00309779  1
  V  V63  1  0.25491306  0.49749264  0.24507841  1
  V  V64  1  0.50000283  0.25363781  0.24791815  1
  V  V65  1  0.37754287  0.50343956  0.37543999  1
  V  V66  1  -0.00840214  0.62499316  0.13132323  1
  V  V67  1  0.12054258  0.12108264  0.51293295  1
  V  V68  1  0.61869769  0.24745484  0.86479705  1
  V  V69  1  0.87786614  0.13155193  0.25452215  1
  V  V70  1  0.50471544  0.50088869  0.51514949  1
  V  V71  1  0.37183845  0.11967047  0.75352095  1
  V  V72  1  0.87901186  0.15232255  0.74762193  1
  V  V73  1  0.49900696  0.12630499  0.63080175  1
  V  V74  1  0.62661827  0.38143753  0.24183022  1
  V  V75  1  0.37689757  0.25174326  0.63581060  1
  V  V76  1  0.37662525  0.12457428  0.24630132  1
  V  V77  1  0.75777899  0.61974046  0.36447132  1
  V  V78  1  0.49746418  0.74555838  0.74280572  1
  Zn  Zn79  1  0.11857504  0.24860332  0.37447993  1
  Zn  Zn80  1  0.89052916  0.36765513  0.50997276  1
  Zn  Zn81  1  -0.01037375  0.35050008  0.36332238  1
  Zn  Zn82  1  0.73683494  0.24005256  0.00707474  1
  Zn  Zn83  1  -0.00233169  0.00399355  0.50670121  1
  Zn  Zn84  1  0.11688425  0.24900116  0.87693067  1
  Zn  Zn85  1  0.62559812  0.25114837  0.37581902  1
  Zn  Zn86  1  -0.00474374  0.88359183  0.87220579  1
  Zn  Zn87  1  0.49660182  0.87430989  0.38461807  1
  Zn  Zn88  1  0.13131263  0.76347000  0.86513348  1
  Zn  Zn89  1  0.74823884  0.37652027  0.12116735  1
  Zn  Zn90  1  0.24982295  0.86177442  0.13749902  1
  Zn  Zn91  1  0.75518943  0.50481257  0.23622290  1
  Zn  Zn92  1  -0.04844353  0.31180708  0.81991736  1
  Zn  Zn93  1  0.00633951  0.49242821  0.49468595  1
  Zn  Zn94  1  0.19268487  0.18516964  0.18463747  1
  Zn  Zn95  1  0.18941074  0.18858004  0.69043509  1
  Zn  Zn96  1  0.18605480  0.68328067  0.18287026  1
  Zn  Zn97  1  0.19300437  0.69227253  0.67901845  1
  Zn  Zn98  1  0.69013376  0.19038552  0.19271755  1
  Zn  Zn99  1  0.69579337  0.18076810  0.68934109  1
  Zn  Zn100  1  0.68909088  0.68923097  0.17803853  1
  Zn  Zn101  1  0.66387720  0.64159266  0.71108506  1
  Zn  Zn102  1  0.31233169  0.31384412  0.31206235  1
  Zn  Zn103  1  0.30835494  0.31363257  0.81709120  1
  Zn  Zn104  1  0.31750073  0.81516165  0.32381827  1
  Zn  Zn105  1  0.30900353  0.81478716  0.80867032  1
  Zn  Zn106  1  0.80740261  0.31314795  0.31443468  1
  Zn  Zn107  1  0.77731195  0.31990380  0.82126181  1
  Zn  Zn108  1  0.81702161  0.80835290  0.31337943  1
  Zn  Zn109  1  0.81561567  0.80835003  0.81594409  1
  Zn  Zn110  1  0.18742197  0.44200326  0.43404851  1
  Zn  Zn111  1  0.19519885  0.43916261  0.93634231  1
  Zn  Zn112  1  0.19271335  0.93479014  0.44270682  1
  Zn  Zn113  1  0.18288845  0.93285875  0.93648728  1
  Zn  Zn114  1  0.69115430  0.43754983  0.43705537  1
  Zn  Zn115  1  0.68242245  0.43023043  0.93062895  1
  Zn  Zn116  1  0.66176017  0.92295128  0.45088378  1
  Zn  Zn117  1  0.68996262  0.92890822  0.94083018  1
  Zn  Zn118  1  0.31410889  0.06216996  0.06361064  1
  Zn  Zn119  1  0.30620108  0.06013915  0.56945638  1
  Zn  Zn120  1  0.30898313  0.57726003  0.06639431  1
  Zn  Zn121  1  0.31675312  0.56758709  0.56354476  1
  Zn  Zn122  1  0.81015996  0.05785752  0.07190708  1
  Zn  Zn123  1  0.81028067  0.06390587  0.57008158  1
  Zn  Zn124  1  0.80616369  0.56206470  0.05378212  1
  Zn  Zn125  1  0.82227098  0.56108630  0.54803941  1
  Zn  Zn126  1  0.44312052  0.44796075  0.18420358  1
  Zn  Zn127  1  0.43653473  0.43478323  0.70003968  1
  Zn  Zn128  1  0.44012015  0.93725951  0.19332714  1
  Zn  Zn129  1  0.43650728  0.93328849  0.68913109  1
  Zn  Zn130  1  0.94151394  0.43876547  0.18484272  1
  Zn  Zn131  1  0.93594529  0.42731783  0.67959334  1
  Zn  Zn132  1  0.93408441  0.94435877  0.18636609  1
  Zn  Zn133  1  0.94336024  0.93415047  0.68364581  1
  Zn  Zn134  1  0.06203380  0.06153937  0.31985594  1
  Zn  Zn135  1  0.05223064  0.07017994  0.81705905  1
  Zn  Zn136  1  0.06965292  0.56486581  0.30929840  1
  Zn  Zn137  1  0.06055460  0.55899244  0.80565339  1
  Zn  Zn138  1  0.56392108  0.06199506  0.31016590  1
  Zn  Zn139  1  0.56378335  0.06484444  0.81270029  1
  Zn  Zn140  1  0.56735087  0.56534024  0.30984503  1
  Zn  Zn141  1  0.55593116  0.55106360  0.81447462  1
  Zn  Zn142  1  0.43727498  0.18775444  0.44142170  1
  Zn  Zn143  1  0.44127964  0.18774998  0.93917502  1
  Zn  Zn144  1  0.44601859  0.68597664  0.43116072  1
  Zn  Zn145  1  0.42777843  0.69096097  0.92940887  1
  Zn  Zn146  1  0.94104885  0.18977508  0.43998520  1
  Zn  Zn147  1  0.93294147  0.17370372  0.93803948  1
  Zn  Zn148  1  0.94351576  0.68663661  0.43386323  1
  Zn  Zn149  1  0.94124005  0.68075133  0.93516038  1
  Zn  Zn150  1  0.06331228  0.31135409  0.06140478  1
  Zn  Zn151  1  0.05106107  0.32906403  0.56998178  1
  Zn  Zn152  1  0.06446240  0.80916885  0.06346180  1
  Zn  Zn153  1  0.07063413  0.80986110  0.55957456  1
  Zn  Zn154  1  0.55914454  0.31893377  0.04793630  1
  Zn  Zn155  1  0.56064026  0.30526867  0.55947765  1
  Zn  Zn156  1  0.55775150  0.81290227  0.05967366  1
  Zn  Zn157  1  0.55821263  0.81047051  0.55977823  1
  O  O158  1  0.11888003  0.11850790  0.12406917  1
  O  O159  1  0.13593624  0.11384611  0.61827454  1
  O  O160  1  0.11723846  0.61451732  0.11302639  1
  O  O161  1  0.11793574  0.63093327  0.60896291  1
  O  O162  1  0.61468095  0.12756008  0.12852833  1
  O  O163  1  0.61747656  0.11762475  0.62484814  1
  O  O164  1  0.62951870  0.61444051  0.11732214  1
  O  O165  1  0.63161248  0.63419939  0.60258922  1
  O  O166  1  0.38293107  0.38125265  0.38065028  1
  O  O167  1  0.35755966  0.38729137  0.88720002  1
  O  O168  1  0.37564957  0.89331620  0.38406671  1
  O  O169  1  0.36945154  0.88747242  0.88368238  1
  O  O170  1  0.87541792  0.38537024  0.37293831  1
  O  O171  1  0.86879813  0.38246519  0.87769437  1
  O  O172  1  0.88249768  0.87741275  0.38276252  1
  O  O173  1  0.88491683  0.87124382  0.87351425  1
  O  O174  1  0.26048782  0.00899496  0.37195793  1
  O  O175  1  0.26065827  0.01005940  0.88615526  1
  O  O176  1  0.25773413  0.51109542  0.36504877  1
  O  O177  1  0.25058144  0.50870617  0.86266099  1
  O  O178  1  0.75177530  0.00985111  0.37130837  1
  O  O179  1  0.74185641  0.00059848  0.86497785  1
  O  O180  1  0.75915973  0.50991808  0.37342454  1
  O  O181  1  0.76254982  0.50937122  0.87742938  1
  O  O182  1  0.24316731  0.51030742  0.13174633  1
  O  O183  1  0.25311729  0.48967428  0.62287051  1
  O  O184  1  0.24310899  1.00475254  0.13774654  1
  O  O185  1  0.23867230  0.99276876  0.63093130  1
  O  O186  1  0.73907591  0.49631137  0.12183977  1
  O  O187  1  0.75657879  0.49389319  0.62837902  1
  O  O188  1  0.73319645  1.00330533  0.13404928  1
  O  O189  1  0.74128902  0.99275025  0.64098031  1
  O  O190  1  0.01942713  0.38165647  0.25107494  1
  O  O191  1  0.01922061  0.38109250  0.75483243  1
  O  O192  1  -0.00181689  0.88642584  0.26471057  1
  O  O193  1  0.00052733  0.85599434  0.74529697  1
  O  O194  1  0.50544283  0.37391337  0.25744331  1
  O  O195  1  0.48523275  0.37894322  0.78466619  1
  O  O196  1  0.49413124  0.86032592  0.26043212  1
  O  O197  1  0.51024621  0.86316994  0.74916177  1
  O  O198  1  0.49416595  0.13288339  0.24342540  1
  O  O199  1  0.48948396  0.12343643  0.73912230  1
  O  O200  1  0.48777848  0.63376274  0.25832567  1
  O  O201  1  0.48241051  0.63279539  0.74683182  1
  O  O202  1  0.98983910  0.11570134  0.24370943  1
  O  O203  1  0.97804905  0.13579731  0.75890368  1
  O  O204  1  1.00709379  0.61886059  0.22966272  1
  O  O205  1  1.00667421  0.62909368  0.72880040  1
  O  O206  1  0.36510292  0.24429671  0.00712410  1
  O  O207  1  0.36582356  0.25553668  0.50917978  1
  O  O208  1  0.36317745  0.76044912  -0.00451754  1
  O  O209  1  0.38706612  0.74870207  0.50783406  1
  O  O210  1  0.87441396  0.25274105  0.01087627  1
  O  O211  1  0.86039277  0.24822039  0.49507604  1
  O  O212  1  0.87612625  0.75125590  0.00184061  1
  O  O213  1  0.87007473  0.75545610  0.50203926  1
  O  O214  1  0.13602407  0.23998845  0.50754354  1
  O  O215  1  0.13770554  0.23628476  1.00911395  1
  O  O216  1  0.12315992  0.73528804  0.48605700  1
  O  O217  1  0.13072200  0.74168506  0.99542277  1
  O  O218  1  0.63463034  0.23892680  0.49861567  1
  O  O219  1  0.62819233  0.25677971  0.98005100  1
  O  O220  1  0.63635262  0.73800268  0.48775647  1
  O  O221  1  0.61887215  0.74829142  0.98775672  1
  O  O222  1  0.49270006  0.24456774  0.12561331  1
  O  O223  1  0.48664772  0.24311210  0.62277885  1
  O  O224  1  0.50221929  0.75402865  0.14104877  1
  O  O225  1  0.48780566  0.75604773  0.63160628  1
  O  O226  1  0.99221689  0.23810827  0.12277871  1
  O  O227  1  0.94314672  0.34085056  0.61051368  1
  O  O228  1  0.99076275  0.73547598  0.11747608  1
  O  O229  1  0.99690187  0.74240269  0.62904092  1
  O  O230  1  0.00657112  0.23790976  0.36343037  1
  O  O231  1  0.00486626  0.24889300  0.89408387  1
  O  O232  1  0.01210836  0.75768657  0.37326114  1
  O  O233  1  -0.00221146  0.73614258  0.85135903  1
  O  O234  1  0.49811746  0.26219350  0.37087162  1
  O  O235  1  0.51727342  0.23628855  0.87084303  1
  O  O236  1  0.51563057  0.75204559  0.36839068  1
  O  O237  1  0.51240883  0.73847078  0.86631105  1
  O  O238  1  0.24563288  0.13364566  0.49639930  1
  O  O239  1  0.24407663  0.12792184  0.99626336  1
  O  O240  1  0.24035446  0.62003275  0.48938540  1
  O  O241  1  0.24304754  0.63899933  0.99809938  1
  O  O242  1  0.74469994  0.13281185  0.49611358  1
  O  O243  1  0.75673032  0.11412701  0.98866659  1
  O  O244  1  0.74416100  0.62762811  0.49064512  1
  O  O245  1  0.75694408  0.63967684  0.98437825  1
  O  O246  1  0.24172394  0.35628692  0.00139028  1
  O  O247  1  0.25306384  0.37053939  0.50471682  1
  O  O248  1  0.25535552  0.86768215  0.00619086  1
  O  O249  1  0.25085169  0.88023381  0.52000451  1
  O  O250  1  0.76747195  0.37104021  0.00072842  1
  O  O251  1  0.74788876  0.35741973  0.49420827  1
  O  O252  1  0.74667750  0.85017821  -0.00108080  1
  O  O253  1  0.75694058  0.86387279  0.50371181  1
  O  O254  1  0.13676495  0.49545676  0.24155580  1
  O  O255  1  0.13823359  0.49087815  0.75086769  1
  O  O256  1  0.13724415  1.00913192  0.24727420  1
  O  O257  1  0.11665013  1.00689614  0.74345168  1
  O  O258  1  0.62796012  0.49268844  0.24238428  1
  O  O259  1  0.63566122  0.53604907  0.74334173  1
  O  O260  1  0.62993864  1.00126798  0.23872688  1
  O  O261  1  0.62847070  0.98768949  0.74627016  1
  O  O262  1  0.36901252  0.01130146  0.25724029  1
  O  O263  1  0.38163183  0.00904730  0.76103530  1
  O  O264  1  0.37326235  0.51313384  0.25383989  1
  O  O265  1  0.36108945  0.51610766  0.73966105  1
  O  O266  1  0.86570437  0.01248685  0.25547567  1
  O  O267  1  0.86246945  -0.01229606  0.74853366  1
  O  O268  1  0.87139193  0.49479048  0.26013828  1
  O  O269  1  0.88457247  0.48950030  0.76240733  1
  O  O270  1  0.13451008  0.37305982  0.35691345  1
  O  O271  1  0.13735336  0.37195809  0.86181617  1
  O  O272  1  0.12013676  0.86396480  0.38266948  1
  O  O273  1  0.10787135  0.87391715  0.87953336  1
  O  O274  1  0.61595359  0.37698341  0.36618880  1
  O  O275  1  0.66835610  0.35214106  0.85118865  1
  O  O276  1  0.65070271  0.85221135  0.35988803  1
  O  O277  1  0.63284125  0.85435940  0.86465150  1
  O  O278  1  0.38402251  0.12672204  0.13653197  1
  O  O279  1  0.37816284  0.12981396  0.63363338  1
  O  O280  1  0.37153135  0.63459348  0.14506523  1
  O  O281  1  0.36730296  0.64503120  0.63128850  1
  O  O282  1  0.88154795  0.13051289  0.13510851  1
  O  O283  1  0.86328028  0.12756432  0.64951057  1
  O  O284  1  0.88924289  0.62090949  0.11901301  1
  O  O285  1  0.89076593  0.63245858  0.60988281  1
  O  O286  1  0.26304834  0.24127144  0.11291360  1
  O  O287  1  0.25872260  0.25710432  0.61859247  1
  O  O288  1  0.24152375  0.75037222  0.10801015  1
  O  O289  1  0.26319261  0.76060775  0.61879741  1
  O  O290  1  0.76214524  0.24891333  0.12278190  1
  O  O291  1  0.74690518  0.24837093  0.61289016  1
  O  O292  1  0.77077024  0.73745061  0.11178318  1
  O  O293  1  0.75994792  0.74969890  0.61174589  1
  O  O294  1  0.25071178  0.24329610  0.38542395  1
  O  O295  1  0.25035419  0.23658776  0.89082657  1
  O  O296  1  0.24081875  0.74313273  0.37298288  1
  O  O297  1  0.24622795  0.75919457  0.88994234  1
  O  O298  1  0.74692159  0.23477552  0.37898481  1
  O  O299  1  0.74587076  0.22534310  0.88313847  1
  O  O300  1  0.75416672  0.73567197  0.38200666  1
  O  O301  1  0.74555156  0.74122625  0.88476298  1
  O  O302  1  0.00789341  0.11553347  0.01478766  1
  O  O303  1  0.01753736  0.12774275  0.50397007  1
  O  O304  1  0.00829950  0.61335375  0.00540243  1
  O  O305  1  0.01084757  0.62370347  0.50557298  1
  O  O306  1  0.49163471  0.11012638  0.01347207  1
  O  O307  1  0.51086970  0.13128943  0.51364880  1
  O  O308  1  0.45949192  0.60604672  0.00836463  1
  O  O309  1  0.51638504  0.61515054  0.49138859  1
  O  O310  1  0.49833635  0.38081089  0.49319147  1
  O  O311  1  0.50489218  0.37268451  0.96419976  1
  O  O312  1  0.55205134  0.88808413  0.48140213  1
  O  O313  1  0.48851189  0.88765934  1.00532124  1
  O  O314  1  1.01387993  0.37852823  0.47364303  1
  O  O315  1  0.99204414  0.38442862  1.00377401  1
  O  O316  1  0.98833073  0.87176930  0.49505415  1
  O  O317  1  1.00489537  0.89205992  1.01038561  1
  O  O318  1  0.49755481  0.49161544  0.38054798  1
  O  O319  1  0.47674626  0.51191519  0.87817728  1
  O  O320  1  0.48528109  1.00448014  0.36964684  1
  O  O321  1  0.49238246  1.00787527  0.88702308  1
  O  O322  1  0.98655998  0.50988693  0.36817553  1
  O  O323  1  0.98824357  0.50452034  0.88254439  1
  O  O324  1  0.99282589  0.99337337  0.38516878  1
  O  O325  1  1.00049183  1.00734411  0.89866300  1
  O  O326  1  0.00893668  0.00944671  0.12322905  1
  O  O327  1  0.01810313  -0.00591333  0.62080071  1
  O  O328  1  0.00804853  0.50713148  0.11344327  1
  O  O329  1  -0.00383080  0.51339950  0.61964044  1
  O  O330  1  0.51342947  0.00522394  0.12463427  1
  O  O331  1  0.51071378  0.00682279  0.63069390  1
  O  O332  1  0.51930085  0.49840276  0.12208605  1
  O  O333  1  0.49484942  0.49132019  0.61368085  1
  O  O334  1  0.24876069  0.39109235  0.25090108  1
  O  O335  1  0.24771437  0.38954158  0.74371502  1
  O  O336  1  0.25995357  0.88932151  0.25318301  1
  O  O337  1  0.25065511  0.86983209  0.73002731  1
  O  O338  1  0.73698632  0.37610378  0.24750923  1
  O  O339  1  0.62005980  0.40358201  0.69786409  1
  O  O340  1  0.76216266  0.89132114  0.25501984  1
  O  O341  1  0.74210712  0.87789540  0.74721458  1
  O  O342  1  0.25864236  0.12109054  0.25998780  1
  O  O343  1  0.25961522  0.12769950  0.76328643  1
  O  O344  1  0.26005689  0.62076681  0.25833455  1
  O  O345  1  0.25220400  0.61414522  0.73938470  1
  O  O346  1  0.75635980  0.11851885  0.25997770  1
  O  O347  1  0.75800613  0.10647019  0.75871777  1
  O  O348  1  0.74878575  0.62613604  0.26285893  1
  O  O349  1  0.76286094  0.63978188  0.77008227  1
  O  O350  1  0.36919373  0.12305215  0.36766016  1
  O  O351  1  0.37006495  0.11771742  0.87043342  1
  O  O352  1  0.36772361  0.62248907  0.37216997  1
  O  O353  1  0.36219465  0.63675869  0.85203770  1
  O  O354  1  0.86802380  0.11846650  0.37225887  1
  O  O355  1  0.85907616  0.12356660  0.86096261  1
  O  O356  1  0.86523937  0.61436072  0.38205334  1
  O  O357  1  0.86994070  0.60832603  0.87664123  1
  O  O358  1  0.12184575  0.38912622  0.13185340  1
  O  O359  1  0.13657415  0.36719892  0.63857350  1
  O  O360  1  0.12723990  0.88839077  0.12673285  1
  O  O361  1  0.13311937  0.88559121  0.62402635  1
  O  O362  1  0.62327511  0.37693770  0.13172429  1
  O  O363  1  0.63519835  0.37686060  0.63056864  1
  O  O364  1  0.62367154  0.88017083  0.13140290  1
  O  O365  1  0.63052774  0.87761479  0.63539714  1
  O  O366  1  0.13922341  0.26812051  0.24286140  1
  O  O367  1  0.13390927  0.26341179  0.75547897  1
  O  O368  1  0.12980032  0.74787293  0.26255372  1
  O  O369  1  0.11554429  0.74303103  0.74672931  1
  O  O370  1  0.61745184  0.26051889  0.25287027  1
  O  O371  1  0.63320341  0.23606410  0.76311506  1
  O  O372  1  0.61276444  0.73621941  0.25270804  1
  O  O373  1  0.61495761  0.74837261  0.75199114  1
  O  O374  1  0.37813591  0.24394985  0.24250052  1
  O  O375  1  0.36536679  0.24071699  0.74198181  1
  O  O376  1  0.38628979  0.74233265  0.26243993  1
  O  O377  1  0.38133752  0.74576540  0.74288434  1
  O  O378  1  0.86873289  0.23903239  0.24322286  1
  O  O379  1  0.86180351  0.25773862  0.75959324  1
  O  O380  1  0.87253135  0.74439612  0.23716116  1
  O  O381  1  0.88263518  0.74924158  0.73341944  1
  O  O382  1  0.38461383  0.49734460  0.49542366  1
  O  O383  1  0.40944145  0.54727531  1.01067650  1
  O  O384  1  0.37602555  1.01687391  0.48908269  1
  O  O385  1  0.38183430  0.99427999  0.99540498  1
  O  O386  1  0.88069593  0.48756682  0.48527024  1
  O  O387  1  0.88300820  0.48873807  0.99297231  1
  O  O388  1  0.87116911  0.98954842  0.49948606  1
  O  O389  1  0.88859050  1.00000293  1.01572745  1
  O  O390  1  0.12498000  0.01075120  0.01448358  1
  O  O391  1  0.12800390  0.01511571  0.50264455  1
  O  O392  1  0.12207545  0.50331236  0.00244585  1
  O  O393  1  0.12169640  0.52031622  0.48465552  1
  O  O394  1  0.61803976  -0.01188048  0.01514025  1
  O  O395  1  0.64256364  0.01524349  0.51867603  1
  O  O396  1  0.62970687  0.49609807  0.00384623  1
  O  O397  1  0.62217153  0.51022628  0.49670802  1
  O  O398  1  0.38168007  0.36576262  0.12923007  1
  O  O399  1  0.36779166  0.36847094  0.62257372  1
  O  O400  1  0.36998763  0.88497105  0.11567892  1
  O  O401  1  0.36919905  0.86705723  0.62449643  1
  O  O402  1  0.87796567  0.36481342  0.11911332  1
  O  O403  1  0.78927400  0.43039417  0.65296921  1
  O  O404  1  0.88379214  0.85911778  0.12981801  1
  O  O405  1  0.87080933  0.86534147  0.61577628  1
  O  O406  1  0.13848700  0.12497651  0.38642504  1
  O  O407  1  0.13340530  0.12335954  0.88682433  1
  O  O408  1  0.13181536  0.63724249  0.37708398  1
  O  O409  1  0.11817720  0.62408188  0.88499398  1
  O  O410  1  0.63047835  0.12225262  0.38558853  1
  O  O411  1  0.63937407  0.12670321  0.87334828  1
  O  O412  1  0.64063152  0.62902650  0.37996750  1
  O  O413  1  0.63888870  0.63531913  0.87323879  1
