# generated using pymatgen
data_V79Zn79O256
_symmetry_space_group_name_H-M   'P 1'
_cell_length_a   16.93194225
_cell_length_b   16.94553190
_cell_length_c   16.95540954
_cell_angle_alpha   90.02741710
_cell_angle_beta   90.00551513
_cell_angle_gamma   89.63667979
_symmetry_Int_Tables_number   1
_chemical_formula_structural   V79Zn79O256
_chemical_formula_sum   'V79 Zn79 O256'
_cell_volume   4864.76073421
_cell_formula_units_Z   1
loop_
 _symmetry_equiv_pos_site_id
 _symmetry_equiv_pos_as_xyz
  1  'x, y, z'
loop_
 _atom_site_type_symbol
 _atom_site_label
 _atom_site_symmetry_multiplicity
 _atom_site_fract_x
 _atom_site_fract_y
 _atom_site_fract_z
 _atom_site_occupancy
  V  V0  1  0.74587006  0.37615834  0.12295868  1
  V  V1  1  0.11664689  0.02817157  0.61773801  1
  V  V2  1  0.87061333  0.37545150  0.51297149  1
  V  V3  1  0.75010607  0.12214345  0.87576782  1
  V  V4  1  0.62385922  0.00340764  0.62334295  1
  V  V5  1  0.49730242  0.00537947  0.49764725  1
  V  V6  1  0.74570073  0.88072512  0.12129744  1
  V  V7  1  0.36579720  0.62143371  0.75745104  1
  V  V8  1  0.62248750  0.88036809  0.24346629  1
  V  V9  1  0.75362742  0.87879582  0.61803723  1
  V  V10  1  0.13155361  0.63814148  -0.00898618  1
  V  V11  1  0.85038988  0.73386610  0.66137058  1
  V  V12  1  0.50786022  0.00922171  0.00472581  1
  V  V13  1  0.63052076  0.24852744  0.87063146  1
  V  V14  1  0.75511586  -0.00043002  0.25161274  1
  V  V15  1  0.87543762  0.62298787  0.24805538  1
  V  V16  1  -0.00030648  0.00211319  0.00870407  1
  V  V17  1  0.64323155  0.37869818  0.74792140  1
  V  V18  1  0.62917044  0.61974995  -0.00482808  1
  V  V19  1  0.88315543  0.87463458  -0.00462962  1
  V  V20  1  0.63926526  0.49723837  0.63021922  1
  V  V21  1  0.00663544  0.63461817  0.62735948  1
  V  V22  1  0.87126546  0.49844459  0.37325568  1
  V  V23  1  0.86412876  0.51809341  0.86840784  1
  V  V24  1  0.37632152  0.25377589  0.12558811  1
  V  V25  1  0.74812855  0.24487755  -0.00091026  1
  V  V26  1  0.25449742  0.86279148  0.13179752  1
  V  V27  1  0.00940601  0.61645356  0.12715236  1
  V  V28  1  0.13362150  0.62464853  0.49028554  1
  V  V29  1  0.49747658  0.87853647  0.37208592  1
  V  V30  1  0.37149770  0.86990173  -0.00227640  1
  V  V31  1  0.23839020  0.87055827  0.62010971  1
  V  V32  1  0.12561457  0.87821481  0.76659561  1
  V  V33  1  0.37384542  0.75114850  0.62615032  1
  V  V34  1  0.62654138  0.74601105  0.87209476  1
  V  V35  1  0.88444355  0.88343395  0.47974584  1
  V  V36  1  -0.00246611  0.24601635  0.24345859  1
  V  V37  1  0.12215581  0.12246431  -0.00031958  1
  V  V38  1  0.36795404  0.37783213  -0.00259107  1
  V  V39  1  0.00546756  0.76060973  0.25656546  1
  V  V40  1  0.88658528  -0.00692659  0.87444828  1
  V  V41  1  0.12538833  0.23652742  0.38408493  1
  V  V42  1  0.49127849  0.49550764  0.49902924  1
  V  V43  1  0.25508624  0.01722592  0.75464502  1
  V  V44  1  0.62219198  0.87516985  0.74853778  1
  V  V45  1  0.51082650  0.24617817  0.26060334  1
  V  V46  1  0.36507978  0.12254778  0.24888279  1
  V  V47  1  0.01096852  0.75459250  0.76283848  1
  V  V48  1  -0.00546596  0.50604250  0.50650767  1
  V  V49  1  0.00064385  0.37674296  0.37538811  1
  V  V50  1  0.75731418  0.12277593  0.37444487  1
  V  V51  1  0.13293971  0.76298528  0.37809947  1
  V  V52  1  0.00779018  0.49449278  -0.00415360  1
  V  V53  1  0.75194270  -0.00190104  0.74913106  1
  V  V54  1  0.25282735  0.24147653  -0.00249181  1
  V  V55  1  0.12267574  0.25700457  0.87756042  1
  V  V56  1  0.75214372  0.74413816  -0.00445898  1
  V  V57  1  0.87716701  0.24024474  0.12427814  1
  V  V58  1  0.48818088  0.13098061  0.62684348  1
  V  V59  1  0.48768253  0.24947971  0.74647439  1
  V  V60  1  0.87793603  0.37547318  -0.00800561  1
  V  V61  1  0.75273336  0.75398143  0.49073862  1
  V  V62  1  0.74830436  0.25271191  0.49816942  1
  V  V63  1  0.61932747  0.75029675  0.36932847  1
  V  V64  1  0.62216162  0.37250352  0.26619103  1
  V  V65  1  0.13761443  0.00046182  0.13407287  1
  V  V66  1  0.74384154  0.49971404  0.24647492  1
  V  V67  1  0.35922786  0.00547418  0.37069409  1
  V  V68  1  0.49983581  0.37808632  0.87417221  1
  V  V69  1  0.49298412  0.63707137  0.11989671  1
  V  V70  1  -0.00036329  0.25261294  0.76027819  1
  V  V71  1  0.62432188  0.62621119  0.49796587  1
  V  V72  1  0.87800351  0.24304668  0.62474388  1
  V  V73  1  0.87732453  0.74940713  0.12424092  1
  V  V74  1  0.37032567  0.87308689  0.49931363  1
  V  V75  1  0.62491473  0.13155457  0.49370225  1
  V  V76  1  0.88402944  0.11733247  0.74426557  1
  V  V77  1  0.28775506  0.36809281  0.60713219  1
  V  V78  1  0.34724350  0.62538887  0.28873370  1
  Zn  Zn79  1  0.49848474  0.75098634  0.74991754  1
  Zn  Zn80  1  0.11793133  0.37683495  0.24292293  1
  Zn  Zn81  1  0.34668554  0.50197121  0.86358061  1
  Zn  Zn82  1  0.49592727  0.50238374  -0.00481363  1
  Zn  Zn83  1  0.17575313  0.48878623  0.14484375  1
  Zn  Zn84  1  0.74565565  0.62636484  0.36869499  1
  Zn  Zn85  1  0.61022959  0.49724954  0.12407472  1
  Zn  Zn86  1  0.47980712  0.37236814  0.38688096  1
  Zn  Zn87  1  0.49695881  0.88234525  0.87514410  1
  Zn  Zn88  1  0.16732899  0.42713778  0.70180585  1
  Zn  Zn89  1  0.49824604  0.62453038  0.62818627  1
  Zn  Zn90  1  0.51612973  0.12503574  0.12327976  1
  Zn  Zn91  1  0.48639575  0.75449228  0.23656099  1
  Zn  Zn92  1  0.87998077  0.11577712  0.24798984  1
  Zn  Zn93  1  0.37485462  0.01566232  0.87619604  1
  Zn  Zn94  1  0.18439043  0.19349220  0.18296244  1
  Zn  Zn95  1  0.19963492  0.21009764  0.68951841  1
  Zn  Zn96  1  0.18813669  0.68423100  0.18923085  1
  Zn  Zn97  1  0.19510355  0.69345603  0.82149391  1
  Zn  Zn98  1  0.69170266  0.18810096  0.18928272  1
  Zn  Zn99  1  0.69035217  0.18736977  0.68421860  1
  Zn  Zn100  1  0.68195267  0.68894211  0.18080401  1
  Zn  Zn101  1  0.68255578  0.68840554  0.68320215  1
  Zn  Zn102  1  0.32378802  0.28563797  0.34049611  1
  Zn  Zn103  1  0.29309920  0.33586074  0.80959616  1
  Zn  Zn104  1  0.31327405  0.81206785  0.31049222  1
  Zn  Zn105  1  0.31602790  0.82289151  0.81231314  1
  Zn  Zn106  1  0.81048132  0.31154263  0.31414029  1
  Zn  Zn107  1  0.82102029  0.31300005  0.81057555  1
  Zn  Zn108  1  0.81348830  0.81440021  0.30944113  1
  Zn  Zn109  1  0.81010515  0.80859178  0.81292567  1
  Zn  Zn110  1  0.16212044  0.41023482  0.49141456  1
  Zn  Zn111  1  0.18279453  0.43815227  0.92524773  1
  Zn  Zn112  1  0.17710911  0.94440630  0.44103066  1
  Zn  Zn113  1  0.19351855  0.93748527  0.93985645  1
  Zn  Zn114  1  0.68770600  0.43985927  0.44129886  1
  Zn  Zn115  1  0.69044373  0.43709861  0.93276316  1
  Zn  Zn116  1  0.68516406  0.94140273  0.43312817  1
  Zn  Zn117  1  0.69064292  0.93312328  0.93225158  1
  Zn  Zn118  1  0.31906101  0.06230500  0.06236546  1
  Zn  Zn119  1  0.30604524  0.05459455  0.56711642  1
  Zn  Zn120  1  0.31405143  0.57649051  0.05096742  1
  Zn  Zn121  1  0.30521970  0.55567180  0.58001231  1
  Zn  Zn122  1  0.68583582  0.06130683  0.05948460  1
  Zn  Zn123  1  0.81467584  0.06281404  0.55936934  1
  Zn  Zn124  1  0.81581662  0.55954495  0.06129570  1
  Zn  Zn125  1  0.81317574  0.56767265  0.56276506  1
  Zn  Zn126  1  0.38950587  0.47463425  0.16406256  1
  Zn  Zn127  1  0.44917404  0.44187330  0.68466159  1
  Zn  Zn128  1  0.43484220  0.94011573  0.18043958  1
  Zn  Zn129  1  0.43530965  0.94262638  0.68362899  1
  Zn  Zn130  1  0.93605900  0.43349832  0.18309857  1
  Zn  Zn131  1  0.97548074  0.45643162  0.71166114  1
  Zn  Zn132  1  0.93721435  0.93825064  0.18093893  1
  Zn  Zn133  1  0.94319552  0.93371900  0.67651320  1
  Zn  Zn134  1  0.06857384  0.06608593  0.30927803  1
  Zn  Zn135  1  0.07093564  0.06336561  0.81332121  1
  Zn  Zn136  1  0.07142468  0.56025764  0.31350009  1
  Zn  Zn137  1  0.06216817  0.56176503  0.81605577  1
  Zn  Zn138  1  0.56056898  0.06334992  0.31106629  1
  Zn  Zn139  1  0.55874214  0.06452904  0.81349037  1
  Zn  Zn140  1  0.52134212  0.54281533  0.29185619  1
  Zn  Zn141  1  0.55795672  0.56556866  0.80815732  1
  Zn  Zn142  1  0.43807278  0.19266384  0.43494572  1
  Zn  Zn143  1  0.43829192  0.18618909  0.93192682  1
  Zn  Zn144  1  0.43652445  0.68704616  0.43918533  1
  Zn  Zn145  1  0.44132248  0.69012595  0.93175560  1
  Zn  Zn146  1  0.93743933  0.18967659  0.43145710  1
  Zn  Zn147  1  0.93476305  0.17963510  0.94047845  1
  Zn  Zn148  1  0.93676049  0.69061913  0.43429174  1
  Zn  Zn149  1  0.94308713  0.68407153  0.93913783  1
  Zn  Zn150  1  0.07184485  0.32035381  0.06725699  1
  Zn  Zn151  1  0.06039519  0.29750485  0.57227354  1
  Zn  Zn152  1  0.06721022  0.81520306  0.07085321  1
  Zn  Zn153  1  0.05845901  0.80640302  0.55929278  1
  Zn  Zn154  1  0.56042703  0.30816096  0.06145793  1
  Zn  Zn155  1  0.56388015  0.31549694  0.56829329  1
  Zn  Zn156  1  0.56119604  0.81777579  0.05347052  1
  Zn  Zn157  1  0.55884179  0.81507242  0.55967762  1
  O  O158  1  0.13022984  0.11399460  0.11314331  1
  O  O159  1  0.12694567  0.12612760  0.63562066  1
  O  O160  1  0.11937118  0.61800039  0.11647951  1
  O  O161  1  0.10455294  0.63224371  0.60527181  1
  O  O162  1  0.62873245  0.13877842  0.11371073  1
  O  O163  1  0.62124183  0.12056940  0.61425192  1
  O  O164  1  0.62130872  0.62161969  0.10821948  1
  O  O165  1  0.62543167  0.61949654  0.61586422  1
  O  O166  1  0.39942786  0.29851239  0.42034148  1
  O  O167  1  0.38831304  0.36274265  0.88369621  1
  O  O168  1  0.37806291  0.88344455  0.37985146  1
  O  O169  1  0.37679978  0.89090894  0.88504303  1
  O  O170  1  0.87860891  0.38352508  0.38102715  1
  O  O171  1  0.87365390  0.37616417  0.88992031  1
  O  O172  1  0.87321929  0.87994758  0.37942862  1
  O  O173  1  0.86689247  0.88289853  0.88425913  1
  O  O174  1  0.26064236  -0.00346281  0.37717722  1
  O  O175  1  0.24499921  0.00044069  0.85684056  1
  O  O176  1  0.28255899  0.45840295  0.35152435  1
  O  O177  1  0.25154733  0.44549979  0.83801100  1
  O  O178  1  0.74550604  0.00810940  0.36244925  1
  O  O179  1  0.75940630  0.00531433  0.86934036  1
  O  O180  1  0.75732878  0.50184018  0.36677286  1
  O  O181  1  0.76419420  0.50086274  0.87775787  1
  O  O182  1  0.28406087  0.50221509  0.12761676  1
  O  O183  1  0.26151377  0.46772190  0.63861211  1
  O  O184  1  0.24058265  0.99958967  0.12362965  1
  O  O185  1  0.23829297  0.99262762  0.63627863  1
  O  O186  1  0.75092276  0.48937917  0.12947405  1
  O  O187  1  0.73868663  0.50850026  0.62395870  1
  O  O188  1  0.74446844  0.98651145  0.13050375  1
  O  O189  1  0.74482628  0.99381025  0.62865453  1
  O  O190  1  -0.00665902  0.36760149  0.26041848  1
  O  O191  1  -0.01371903  0.34952257  0.75368062  1
  O  O192  1  -0.00466800  0.85854306  0.24139136  1
  O  O193  1  0.02049260  0.86813807  0.73907545  1
  O  O194  1  0.50527777  0.35809999  0.26608646  1
  O  O195  1  0.51275283  0.36352256  0.75477681  1
  O  O196  1  0.50504974  0.87309555  0.25111010  1
  O  O197  1  0.51429161  0.87841590  0.74516007  1
  O  O198  1  0.50002619  0.13424853  0.24239253  1
  O  O199  1  0.50806348  0.14048208  0.74116278  1
  O  O200  1  0.51789827  0.63515813  0.22452200  1
  O  O201  1  0.49062181  0.63403199  0.74551989  1
  O  O202  1  0.99546880  0.14175087  0.25421053  1
  O  O203  1  0.98694378  0.12645773  0.75769588  1
  O  O204  1  0.99066057  0.62519944  0.24355739  1
  O  O205  1  1.00910965  0.64346780  0.73778375  1
  O  O206  1  0.37156088  0.25488247  0.00523646  1
  O  O207  1  0.28625504  0.21296904  0.51971405  1
  O  O208  1  0.38368960  0.77107887  -0.01021182  1
  O  O209  1  0.37984575  0.76688541  0.50600012  1
  O  O210  1  0.86868099  0.25471325  0.00418640  1
  O  O211  1  0.87364580  0.25408344  0.50597194  1
  O  O212  1  0.87142807  0.75511358  0.00265774  1
  O  O213  1  0.85984238  0.76155323  0.48849084  1
  O  O214  1  0.10201780  0.24094780  0.48288903  1
  O  O215  1  0.12898847  0.24271781  0.99692560  1
  O  O216  1  0.11835777  0.73669226  0.48713846  1
  O  O217  1  0.11266077  0.73551576  1.00287376  1
  O  O218  1  0.63630789  0.24217551  0.50983609  1
  O  O219  1  0.63776171  0.25866080  0.98279327  1
  O  O220  1  0.63105569  0.74800050  0.49164390  1
  O  O221  1  0.63437858  0.74457185  0.99078240  1
  O  O222  1  0.48928393  0.24901922  0.12996587  1
  O  O223  1  0.50617631  0.24559071  0.63870122  1
  O  O224  1  0.50820831  0.74234163  0.11923934  1
  O  O225  1  0.48764654  0.75144905  0.62390415  1
  O  O226  1  0.99282853  0.26100696  0.13709356  1
  O  O227  1  0.98650210  0.24275568  0.63984659  1
  O  O228  1  0.99855955  0.73805302  0.13648126  1
  O  O229  1  0.98854029  0.74217040  0.62968040  1
  O  O230  1  0.00153602  0.25778164  0.36266653  1
  O  O231  1  0.00137326  0.24032557  0.86771894  1
  O  O232  1  0.00145091  0.74793168  0.35996648  1
  O  O233  1  0.00012159  0.74747969  0.86084093  1
  O  O234  1  0.52215641  0.23105490  0.35744020  1
  O  O235  1  0.51393863  0.25368764  0.86322462  1
  O  O236  1  0.50850159  0.75854762  0.37592213  1
  O  O237  1  0.51622730  0.76125284  0.87269777  1
  O  O238  1  0.25204578  0.14318262  0.50863228  1
  O  O239  1  0.24372490  0.13584791  1.00244038  1
  O  O240  1  0.22949833  0.60946166  0.50939357  1
  O  O241  1  0.23106676  0.62559910  0.99622947  1
  O  O242  1  0.74461068  0.12996826  0.49314034  1
  O  O243  1  0.75356810  0.13400834  0.98741609  1
  O  O244  1  0.74263630  0.63741425  0.49513393  1
  O  O245  1  0.74491213  0.63680576  1.00773611  1
  O  O246  1  0.26478037  0.36245548  -0.00889774  1
  O  O247  1  0.27035093  0.37796190  0.50630565  1
  O  O248  1  0.26567998  0.88457147  0.00908758  1
  O  O249  1  0.25961242  0.88732217  0.51226249  1
  O  O250  1  0.75688982  0.36531740  0.00468717  1
  O  O251  1  0.75952010  0.36454556  0.49324208  1
  O  O252  1  0.75751259  0.86667297  0.00542868  1
  O  O253  1  0.75082911  0.87152790  0.50243810  1
  O  O254  1  0.12636308  0.48973300  0.24902757  1
  O  O255  1  0.08264828  0.48355234  0.74301831  1
  O  O256  1  0.11895731  1.00261744  0.23259740  1
  O  O257  1  0.13169384  0.99273844  0.74108772  1
  O  O258  1  0.62339601  0.48690994  0.24514106  1
  O  O259  1  0.62279162  0.49640264  0.73705569  1
  O  O260  1  0.63173091  0.98626262  0.25264683  1
  O  O261  1  0.63148565  0.99369276  0.74408736  1
  O  O262  1  0.38015129  0.01555523  0.25400969  1
  O  O263  1  0.35792687  -0.00488376  0.74801352  1
  O  O264  1  0.40089277  0.53847634  0.25982217  1
  O  O265  1  0.38488118  0.51785231  0.74637685  1
  O  O266  1  0.86068267  -0.00071294  0.24052214  1
  O  O267  1  0.87352141  -0.00131939  0.75360945  1
  O  O268  1  0.86805396  0.50458234  0.25471661  1
  O  O269  1  0.88721706  0.49708480  0.77213635  1
  O  O270  1  0.10381245  0.37503369  0.38717215  1
  O  O271  1  0.10836607  0.35444735  0.88742858  1
  O  O272  1  0.11872401  0.86253029  0.38853824  1
  O  O273  1  0.12016937  0.88766960  0.86395189  1
  O  O274  1  0.63033455  0.37419818  0.36615307  1
  O  O275  1  0.62133184  0.36821105  0.86620971  1
  O  O276  1  0.61788222  0.86990539  0.36621699  1
  O  O277  1  0.62938653  0.86715142  0.86043684  1
  O  O278  1  0.38094685  0.13330845  0.13674157  1
  O  O279  1  0.38983741  0.12172350  0.61722061  1
  O  O280  1  0.39312353  0.63707324  0.10834305  1
  O  O281  1  0.37176610  0.63788984  0.63308818  1
  O  O282  1  0.87226596  0.14148776  0.12762493  1
  O  O283  1  0.87209594  0.12792069  0.63426601  1
  O  O284  1  0.88311872  0.62882611  0.13165055  1
  O  O285  1  0.87969525  0.64365851  0.61848430  1
  O  O286  1  0.26596955  0.24879997  0.11499373  1
  O  O287  1  0.26902585  0.24636556  0.59475630  1
  O  O288  1  0.24135716  0.76372551  0.12573351  1
  O  O289  1  0.26241696  0.76972865  0.62440772  1
  O  O290  1  0.75768803  0.25821095  0.11620430  1
  O  O291  1  0.76492241  0.24254507  0.61177554  1
  O  O292  1  0.75666571  0.75806853  0.11568176  1
  O  O293  1  0.75089848  0.76035351  0.60752077  1
  O  O294  1  0.21918585  0.26946646  0.36827389  1
  O  O295  1  0.23042592  0.25494318  0.88156325  1
  O  O296  1  0.23202968  0.75676521  0.36975245  1
  O  O297  1  0.24191304  0.77499769  0.87802927  1
  O  O298  1  0.75436285  0.24060380  0.38817687  1
  O  O299  1  0.75052566  0.24226399  0.87977722  1
  O  O300  1  0.73796145  0.75215882  0.37670866  1
  O  O301  1  0.74107678  0.75512453  0.88661295  1
  O  O302  1  0.00538943  0.11217469  0.00198712  1
  O  O303  1  -0.00430158  0.08545114  0.46013480  1
  O  O304  1  0.00817311  0.61473726  0.00950362  1
  O  O305  1  -0.00594875  0.62169346  0.50559968  1
  O  O306  1  0.50081562  0.11371937  -0.00042727  1
  O  O307  1  0.50623591  0.12766715  0.50525419  1
  O  O308  1  0.51266747  0.62675160  0.00163571  1
  O  O309  1  0.51193328  0.61873694  0.50066739  1
  O  O310  1  0.51371545  0.39191561  0.50218370  1
  O  O311  1  0.49399529  0.37244442  0.98799189  1
  O  O312  1  0.49117482  0.88552184  0.49380027  1
  O  O313  1  0.49152665  0.88900975  0.99860493  1
  O  O314  1  0.98512600  0.38746257  0.49380903  1
  O  O315  1  0.99228754  0.38834470  1.01078811  1
  O  O316  1  0.98110292  0.86631577  0.50180218  1
  O  O317  1  0.98850281  0.87838104  1.00667032  1
  O  O318  1  0.50059245  0.49375358  0.39197541  1
  O  O319  1  0.50268629  0.48408185  0.87225486  1
  O  O320  1  0.49162692  0.99606315  0.37923163  1
  O  O321  1  0.50020746  1.00052894  0.88451512  1
  O  O322  1  0.98483977  0.49691488  0.38132938  1
  O  O323  1  0.98832873  0.50648802  0.89500047  1
  O  O324  1  0.99920390  1.03271090  0.40439897  1
  O  O325  1  0.99039075  1.00190794  0.88152456  1
  O  O326  1  0.01297767  -0.00734967  0.11400596  1
  O  O327  1  0.01826073  0.00270840  0.62814623  1
  O  O328  1  -0.00844396  0.50904390  0.11344002  1
  O  O329  1  -0.01981057  0.52257861  0.61431594  1
  O  O330  1  0.50230352  0.00287225  0.11031147  1
  O  O331  1  0.50506176  0.01084148  0.61859973  1
  O  O332  1  0.49386143  0.51601301  0.11414016  1
  O  O333  1  0.51799998  0.50583106  0.61406952  1
  O  O334  1  0.29049690  0.40925438  0.29689299  1
  O  O335  1  0.23898903  0.32538090  0.70679528  1
  O  O336  1  0.26448823  0.87780756  0.23104996  1
  O  O337  1  0.23620142  0.88179009  0.73666130  1
  O  O338  1  0.74234379  0.37740843  0.24199979  1
  O  O339  1  0.74244658  0.37381288  0.75458931  1
  O  O340  1  0.74407949  0.88043168  0.24099657  1
  O  O341  1  0.74211128  0.87770655  0.73848771  1
  O  O342  1  0.26706494  0.13734643  0.24613309  1
  O  O343  1  0.24694607  0.11565800  0.74203581  1
  O  O344  1  0.25108999  0.61967925  0.25877784  1
  O  O345  1  0.26519339  0.62904796  0.75467700  1
  O  O346  1  0.74916125  0.11710032  0.25817090  1
  O  O347  1  0.76109379  0.11755018  0.75550755  1
  O  O348  1  0.75887401  0.62043528  0.24487495  1
  O  O349  1  0.78709698  0.69433276  0.73131505  1
  O  O350  1  0.37993413  0.11957260  0.36049366  1
  O  O351  1  0.37057642  0.12729655  0.87002764  1
  O  O352  1  0.35579677  0.62571512  0.38948806  1
  O  O353  1  0.37951730  0.62192927  0.86350795  1
  O  O354  1  0.86128501  0.12622733  0.37016269  1
  O  O355  1  0.86688462  0.11307200  0.86706561  1
  O  O356  1  0.87206950  0.61620579  0.36415900  1
  O  O357  1  0.87303617  0.61830834  0.87954441  1
  O  O358  1  0.14229913  0.37780353  0.13019114  1
  O  O359  1  0.12892348  0.37908758  0.59846128  1
  O  O360  1  0.14190763  0.88917574  0.11620690  1
  O  O361  1  0.13577424  0.87172370  0.61734030  1
  O  O362  1  0.63652995  0.37554808  0.12283716  1
  O  O363  1  0.62914677  0.38955846  0.63223258  1
  O  O364  1  0.63546696  0.86427578  0.13272783  1
  O  O365  1  0.63380839  0.88036812  0.62733837  1
  O  O366  1  0.10918755  0.25584635  0.25301696  1
  O  O367  1  0.10877213  0.24044674  0.76622088  1
  O  O368  1  0.11194709  0.74411322  0.26156187  1
  O  O369  1  0.12000907  0.76481246  0.75516352  1
  O  O370  1  0.61603013  0.26160700  0.23768940  1
  O  O371  1  0.63092681  0.25898189  0.75689827  1
  O  O372  1  0.62764294  0.76163025  0.25792271  1
  O  O373  1  0.62620145  0.75858201  0.75458607  1
  O  O374  1  0.38880203  0.24231470  0.24711322  1
  O  O375  1  0.39181272  0.25736821  0.75645975  1
  O  O376  1  0.37778103  0.72567604  0.26462999  1
  O  O377  1  0.37684984  0.74803007  0.74227208  1
  O  O378  1  0.88273269  0.25288436  0.24258151  1
  O  O379  1  0.87930553  0.23647511  0.74566652  1
  O  O380  1  0.88232585  0.74080946  0.24592640  1
  O  O381  1  0.90126594  0.77700617  0.74651852  1
  O  O382  1  0.39447194  0.50861899  0.51525399  1
  O  O383  1  0.37202692  0.48561226  0.98267853  1
  O  O384  1  0.37821563  0.99564515  0.49119642  1
  O  O385  1  0.38874086  0.99699687  0.99822742  1
  O  O386  1  0.87302023  0.49548330  0.49226278  1
  O  O387  1  0.88130483  0.49320910  0.99329178  1
  O  O388  1  0.86830099  0.98013836  0.50695586  1
  O  O389  1  0.88497681  0.98970947  0.99098492  1
  O  O390  1  0.11788173  0.00537389  0.00351702  1
  O  O391  1  0.13744545  0.01513211  0.51851102  1
  O  O392  1  0.11356871  0.50178113  -0.00529361  1
  O  O393  1  0.10262905  0.51462315  0.49078860  1
  O  O394  1  0.61666582  -0.00559086  -0.00520186  1
  O  O395  1  0.61787282  0.00918391  0.50376688  1
  O  O396  1  0.62546846  0.51007009  -0.00313814  1
  O  O397  1  0.62706647  0.51086404  0.50916069  1
  O  O398  1  0.38412927  0.36908842  0.10429779  1
  O  O399  1  0.38690631  0.36788902  0.62318059  1
  O  O400  1  0.36642572  0.87759190  0.11235578  1
  O  O401  1  0.36884384  0.87393231  0.61678514  1
  O  O402  1  0.86332642  0.36887247  0.11542942  1
  O  O403  1  0.87884788  0.36322088  0.61396243  1
  O  O404  1  0.86580340  0.86915957  0.11457050  1
  O  O405  1  0.85996373  0.86066442  0.62494208  1
  O  O406  1  0.13198587  0.13800891  0.36612765  1
  O  O407  1  0.11983898  0.13296682  0.89221551  1
  O  O408  1  0.12086787  0.63330799  0.38573747  1
  O  O409  1  0.12213125  0.62699037  0.88444283  1
  O  O410  1  0.63354908  0.11935221  0.38876765  1
  O  O411  1  0.64113723  0.13483775  0.86331551  1
  O  O412  1  0.62498017  0.63766564  0.38391878  1
  O  O413  1  0.62154159  0.63557532  0.88047109  1
