# generated using pymatgen
data_V79Zn79O256
_symmetry_space_group_name_H-M   'P 1'
_cell_length_a   16.88747000
_cell_length_b   16.93894561
_cell_length_c   16.94150194
_cell_angle_alpha   89.92483580
_cell_angle_beta   90.06408469
_cell_angle_gamma   90.13838834
_symmetry_Int_Tables_number   1
_chemical_formula_structural   V79Zn79O256
_chemical_formula_sum   'V79 Zn79 O256'
_cell_volume   4846.19587251
_cell_formula_units_Z   1
loop_
 _symmetry_equiv_pos_site_id
 _symmetry_equiv_pos_as_xyz
  1  'x, y, z'
loop_
 _atom_site_type_symbol
 _atom_site_label
 _atom_site_symmetry_multiplicity
 _atom_site_fract_x
 _atom_site_fract_y
 _atom_site_fract_z
 _atom_site_occupancy
  V  V0  1  0.62816910  0.87206028  0.26125968  1
  V  V1  1  0.85839046  0.75585221  0.62902367  1
  V  V2  1  0.74885658  0.12463217  0.87535739  1
  V  V3  1  -0.00635640  0.87330819  0.37663945  1
  V  V4  1  0.74663781  0.50012229  0.25015498  1
  V  V5  1  0.75137092  -0.01484349  0.75024308  1
  V  V6  1  0.25255416  0.74921751  0.00211147  1
  V  V7  1  0.37745107  0.00252300  0.86943751  1
  V  V8  1  0.49695730  0.00529883  0.00523495  1
  V  V9  1  0.25886496  -0.00264492  0.24468441  1
  V  V10  1  0.12443431  0.62435519  -0.00112897  1
  V  V11  1  0.00641825  -0.00055644  0.50890359  1
  V  V12  1  0.50145642  0.37288046  0.85142837  1
  V  V13  1  0.75831611  0.25010011  0.50058704  1
  V  V14  1  0.00407207  0.62599818  0.62531321  1
  V  V15  1  0.51191306  0.86695227  0.86314182  1
  V  V16  1  0.38121802  0.00467295  0.37572720  1
  V  V17  1  0.74647766  0.25275225  0.01131983  1
  V  V18  1  -0.00721350  0.62689938  0.12491110  1
  V  V19  1  0.50231007  0.13766043  0.63054576  1
  V  V20  1  0.25432669  0.87603028  0.62326325  1
  V  V21  1  0.25659357  0.50296540  0.73984240  1
  V  V22  1  0.00152275  0.37286149  0.35039700  1
  V  V23  1  0.74471398  0.75049833  0.47666518  1
  V  V24  1  0.00076390  0.75346529  0.74700266  1
  V  V25  1  0.11373072  0.38742765  0.74586441  1
  V  V26  1  0.48999807  0.49758343  0.49577833  1
  V  V27  1  0.62603464  0.25023035  0.37724798  1
  V  V28  1  0.12851221  0.75228608  0.87568590  1
  V  V29  1  0.50576294  0.75054924  0.26163901  1
  V  V30  1  0.37279594  0.75287366  0.12555330  1
  V  V31  1  0.37531211  0.61864482  0.25454151  1
  V  V32  1  0.87937868  0.00055458  0.88486558  1
  V  V33  1  0.62383482  0.37560609  0.25425156  1
  V  V34  1  0.11553268  0.26077528  0.87444476  1
  V  V35  1  0.00216999  0.50601880  0.50355329  1
  V  V36  1  0.19440355  0.32513210  0.17827693  1
  V  V37  1  0.38157504  0.87120044  0.49490693  1
  V  V38  1  0.12929678  0.88232230  0.74647977  1
  V  V39  1  0.75078392  0.37509883  0.62738637  1
  V  V40  1  0.62259676  0.49301701  0.11769455  1
  V  V41  1  -0.01195762  0.25531218  0.75055732  1
  V  V42  1  0.87617770  0.37556168  0.50138510  1
  V  V43  1  0.38963702  0.38309063  0.00598642  1
  V  V44  1  0.63680179  0.63951713  -0.00436465  1
  V  V45  1  0.62194550  0.12286650  -0.00083757  1
  V  V46  1  0.63196615  0.62184073  0.48504594  1
  V  V47  1  -0.00800492  0.12315585  0.12686739  1
  V  V48  1  0.87631939  0.86731174  0.00739163  1
  V  V49  1  0.86884766  0.37347243  -0.01048907  1
  V  V50  1  0.25054613  0.36309768  0.61118145  1
  V  V51  1  0.23572595  0.12355738  0.38043356  1
  V  V52  1  0.38267889  0.14453639  0.74879732  1
  V  V53  1  0.63250778  -0.01596004  0.63128798  1
  V  V54  1  -0.00475542  0.75121051  0.24702476  1
  V  V55  1  0.86755454  0.62871193  0.25000912  1
  V  V56  1  0.87091391  0.02465137  0.37268721  1
  V  V57  1  0.24627331  0.62171284  0.37473792  1
  V  V58  1  0.24939936  0.49790273  0.24838651  1
  V  V59  1  0.50712169  -0.00575531  0.49797437  1
  V  V60  1  0.25931623  0.62341636  0.87004026  1
  V  V61  1  0.75748063  0.50566861  0.76461953  1
  V  V62  1  0.49910725  0.62018358  0.11673495  1
  V  V63  1  0.62789670  0.50038558  0.62933889  1
  V  V64  1  0.38490698  0.74391394  0.63783883  1
  V  V65  1  -0.00943042  0.49447134  -0.01363386  1
  V  V66  1  0.00426554  0.88251900  0.88416737  1
  V  V67  1  0.74929412  0.85951531  0.11751329  1
  V  V68  1  0.62912117  -0.00287085  0.12442042  1
  V  V69  1  0.25084303  0.13245771  0.87298470  1
  V  V70  1  0.13219232  0.87518632  0.24488542  1
  V  V71  1  0.24683768  0.26637559  -0.00500393  1
  V  V72  1  0.38958857  0.23440608  0.12584267  1
  V  V73  1  0.87648948  0.12511575  0.74292157  1
  V  V74  1  0.48867512  0.37259450  0.37786343  1
  V  V75  1  0.86747369  0.50898662  0.37584831  1
  V  V76  1  0.63414305  0.12614953  0.50225702  1
  V  V77  1  0.12370684  0.49838367  0.12851088  1
  V  V78  1  0.37308080  0.87575954  0.00173079  1
  Zn  Zn79  1  0.25459544  0.00700845  0.74475324  1
  Zn  Zn80  1  0.12464307  0.74971518  0.37856614  1
  Zn  Zn81  1  0.00776620  0.14149034  0.62070825  1
  Zn  Zn82  1  0.49902000  0.62481144  0.62745514  1
  Zn  Zn83  1  0.25185332  0.74720032  0.49885906  1
  Zn  Zn84  1  0.87715069  0.25382144  0.13369406  1
  Zn  Zn85  1  0.11526519  0.11741142  -0.00613981  1
  Zn  Zn86  1  0.86557457  0.87775967  0.50234906  1
  Zn  Zn87  1  0.11252472  -0.00567713  0.10853955  1
  Zn  Zn88  1  0.13511867  0.01187759  0.61674716  1
  Zn  Zn89  1  0.38100275  0.50294530  0.87698606  1
  Zn  Zn90  1  0.12721017  0.62633374  0.50397892  1
  Zn  Zn91  1  0.60904764  0.24683708  0.85119234  1
  Zn  Zn92  1  0.87204588  0.62610197  0.75818722  1
  Zn  Zn93  1  0.16847218  0.18739380  0.53222301  1
  Zn  Zn94  1  0.14428621  0.15272200  0.21517176  1
  Zn  Zn95  1  0.18487892  0.19484478  0.69887091  1
  Zn  Zn96  1  0.18467436  0.68599943  0.18821646  1
  Zn  Zn97  1  0.19102221  0.69167114  0.68676425  1
  Zn  Zn98  1  0.67500954  0.17882663  0.19563653  1
  Zn  Zn99  1  0.69052931  0.18288505  0.68663930  1
  Zn  Zn100  1  0.68484605  0.68487269  0.18228243  1
  Zn  Zn101  1  0.67923450  0.67872622  0.69006034  1
  Zn  Zn102  1  0.31777074  0.29783421  0.31091933  1
  Zn  Zn103  1  0.31063093  0.32462963  0.81240412  1
  Zn  Zn104  1  0.31675207  0.80864912  0.31519124  1
  Zn  Zn105  1  0.31765804  0.81374696  0.81410804  1
  Zn  Zn106  1  0.81098324  0.31843665  0.32053334  1
  Zn  Zn107  1  0.78694817  0.30302927  0.80597075  1
  Zn  Zn108  1  0.81309374  0.81933210  0.30469684  1
  Zn  Zn109  1  0.81661632  0.80817733  0.82246568  1
  Zn  Zn110  1  0.17974714  0.43665192  0.43066711  1
  Zn  Zn111  1  0.18451543  0.44320955  0.93269275  1
  Zn  Zn112  1  0.18954145  0.93490837  0.43288174  1
  Zn  Zn113  1  0.19314038  0.93918890  0.93444026  1
  Zn  Zn114  1  0.68621834  0.43873640  0.43797657  1
  Zn  Zn115  1  0.67880240  0.43060584  0.93609862  1
  Zn  Zn116  1  0.69627896  0.94199717  0.43740223  1
  Zn  Zn117  1  0.68938222  0.93489832  0.93849284  1
  Zn  Zn118  1  0.28961960  0.06072258  0.05390861  1
  Zn  Zn119  1  0.32136387  0.06806614  0.55971442  1
  Zn  Zn120  1  0.31137586  0.56198274  0.06415065  1
  Zn  Zn121  1  0.31069434  0.56261989  0.56545519  1
  Zn  Zn122  1  0.81178123  0.06004422  0.06885213  1
  Zn  Zn123  1  0.81753516  0.05743780  0.55968325  1
  Zn  Zn124  1  0.80891921  0.55848440  0.06240424  1
  Zn  Zn125  1  0.81549088  0.57016128  0.56533047  1
  Zn  Zn126  1  0.43821036  0.43151675  0.18838838  1
  Zn  Zn127  1  0.43304535  0.43089724  0.67837677  1
  Zn  Zn128  1  0.44263791  0.93495430  0.18930727  1
  Zn  Zn129  1  0.44200802  0.93969287  0.68412231  1
  Zn  Zn130  1  0.92495663  0.44031085  0.17348171  1
  Zn  Zn131  1  0.93144400  0.44301179  0.68999129  1
  Zn  Zn132  1  0.93135921  0.94674972  0.18970541  1
  Zn  Zn133  1  0.93374563  0.93533052  0.69007792  1
  Zn  Zn134  1  0.05360127  0.05267419  0.31295911  1
  Zn  Zn135  1  0.06238913  0.06794741  0.80994463  1
  Zn  Zn136  1  0.05915596  0.55806974  0.31381254  1
  Zn  Zn137  1  0.06494459  0.56855594  0.81091031  1
  Zn  Zn138  1  0.56855529  0.05913531  0.31409070  1
  Zn  Zn139  1  0.56262931  0.05548434  0.81142694  1
  Zn  Zn140  1  0.55594281  0.55908530  0.31100427  1
  Zn  Zn141  1  0.56872339  0.55582703  0.81981375  1
  Zn  Zn142  1  0.43963688  0.18589833  0.44135315  1
  Zn  Zn143  1  0.43540726  0.19526095  0.94058243  1
  Zn  Zn144  1  0.43625131  0.68264565  0.44169063  1
  Zn  Zn145  1  0.44456942  0.68785127  0.93558293  1
  Zn  Zn146  1  0.98771891  0.19383685  0.43494045  1
  Zn  Zn147  1  0.93431368  0.18667063  0.94286960  1
  Zn  Zn148  1  0.93324862  0.69108188  0.43854068  1
  Zn  Zn149  1  0.94028520  0.69172048  0.94076256  1
  Zn  Zn150  1  0.04934604  0.30774163  0.05850076  1
  Zn  Zn151  1  0.05859834  0.32145798  0.56638530  1
  Zn  Zn152  1  0.06408498  0.81043724  0.06474530  1
  Zn  Zn153  1  0.06512904  0.81188958  0.55996839  1
  Zn  Zn154  1  0.56289095  0.30888288  0.05978652  1
  Zn  Zn155  1  0.56476081  0.31643972  0.56080362  1
  Zn  Zn156  1  0.55713178  0.81303279  0.06057657  1
  Zn  Zn157  1  0.56671222  0.80735285  0.55953894  1
  O  O158  1  0.11633035  0.11692145  0.11255525  1
  O  O159  1  0.12500703  0.12555551  0.62829441  1
  O  O160  1  0.11488882  0.61800809  0.11908903  1
  O  O161  1  0.10910502  0.63358030  0.62665240  1
  O  O162  1  0.63237846  0.11104704  0.10352237  1
  O  O163  1  0.61885215  0.11927862  0.62080416  1
  O  O164  1  0.61686602  0.61425023  0.11888247  1
  O  O165  1  0.62202518  0.61078455  0.61122927  1
  O  O166  1  0.38985428  0.36384507  0.37293123  1
  O  O167  1  0.38562039  0.37582412  0.88441688  1
  O  O168  1  0.37222165  0.88167403  0.38901220  1
  O  O169  1  0.37976692  0.88668697  0.88119928  1
  O  O170  1  0.87931346  0.39064068  0.38266505  1
  O  O171  1  0.85479923  0.36447704  0.88965646  1
  O  O172  1  0.88458480  0.87515920  0.37595032  1
  O  O173  1  0.88594938  0.88072761  0.88561526  1
  O  O174  1  0.26128930  0.00341776  0.37121879  1
  O  O175  1  0.26227998  0.01382096  0.87025636  1
  O  O176  1  0.24203518  0.50553142  0.35750977  1
  O  O177  1  0.25184176  0.50900658  0.86429973  1
  O  O178  1  0.76963736  0.01330147  0.39075942  1
  O  O179  1  0.75830560  0.00541473  0.87064091  1
  O  O180  1  0.75872513  0.50107429  0.36831392  1
  O  O181  1  0.73893719  0.49286240  0.86112858  1
  O  O182  1  0.23552525  0.50555462  0.13259227  1
  O  O183  1  0.24460760  0.50032479  0.63723760  1
  O  O184  1  0.26388949  0.99315872  0.14579262  1
  O  O185  1  0.25561718  0.98920196  0.62603183  1
  O  O186  1  0.73254968  0.50299960  0.13725387  1
  O  O187  1  0.74075891  0.49615052  0.62136553  1
  O  O188  1  0.73439837  0.99072949  0.12274948  1
  O  O189  1  0.74067362  1.00009555  0.63254328  1
  O  O190  1  -0.00880024  0.39229310  0.25246954  1
  O  O191  1  0.00667065  0.37597194  0.74829630  1
  O  O192  1  0.00534393  0.86800020  0.25488913  1
  O  O193  1  0.00891579  0.86949661  0.75786909  1
  O  O194  1  0.50954709  0.38504578  0.26927308  1
  O  O195  1  0.49356565  0.36784127  0.75138245  1
  O  O196  1  0.50988797  0.85738164  0.24646869  1
  O  O197  1  0.49900713  0.88391575  0.76416610  1
  O  O198  1  0.57891656  0.13568213  0.23876462  1
  O  O199  1  0.50048192  0.12524248  0.73918717  1
  O  O200  1  0.49381176  0.63210008  0.24321111  1
  O  O201  1  0.52994003  0.64312176  0.74610348  1
  O  O202  1  1.02438788  0.12554353  0.23204291  1
  O  O203  1  0.99211685  0.13590234  0.74945254  1
  O  O204  1  0.99234049  0.63070697  0.24332591  1
  O  O205  1  0.99771205  0.63856040  0.74722880  1
  O  O206  1  0.36621684  0.26405708  0.00617453  1
  O  O207  1  0.37112143  0.23048472  0.51450945  1
  O  O208  1  0.37330937  0.75575572  0.00755003  1
  O  O209  1  0.37498365  0.75813753  0.50582164  1
  O  O210  1  0.85959267  0.25298238  0.00473305  1
  O  O211  1  0.86832762  0.26752884  0.49512352  1
  O  O212  1  0.88733527  0.76822778  0.00862708  1
  O  O213  1  0.85628104  0.74515542  0.51151325  1
  O  O214  1  0.07939516  0.24082131  0.49259954  1
  O  O215  1  0.13075229  0.25767226  0.98764287  1
  O  O216  1  0.13252742  0.74490898  0.49643204  1
  O  O217  1  0.13149184  0.74535848  0.99575034  1
  O  O218  1  0.63520574  0.24528349  0.49792693  1
  O  O219  1  0.63378931  0.23944308  0.99539312  1
  O  O220  1  0.63499492  0.73563335  0.50058131  1
  O  O221  1  0.62188663  0.73890512  1.00479521  1
  O  O222  1  0.49042558  0.23827308  0.11217262  1
  O  O223  1  0.50888398  0.23624331  0.62091101  1
  O  O224  1  0.48997969  0.73970604  0.13200326  1
  O  O225  1  0.48834158  0.74917611  0.61913819  1
  O  O226  1  0.99430090  0.23596661  0.12456939  1
  O  O227  1  0.99461946  0.25705313  0.64633433  1
  O  O228  1  1.00516676  0.73758168  0.13415355  1
  O  O229  1  0.99445566  0.74791668  0.63377843  1
  O  O230  1  -0.02271413  0.27494144  0.35748099  1
  O  O231  1  0.00735694  0.24734817  0.86854515  1
  O  O232  1  -0.00031408  0.75527795  0.36489586  1
  O  O233  1  0.00717714  0.76071103  0.86723964  1
  O  O234  1  0.51342280  0.26238541  0.38747457  1
  O  O235  1  0.49818207  0.26286164  0.87456259  1
  O  O236  1  0.49675210  0.74189842  0.36009171  1
  O  O237  1  0.49303050  0.76853190  0.87651871  1
  O  O238  1  0.24515264  0.11377016  0.48815555  1
  O  O239  1  0.25711970  0.14895962  0.97982923  1
  O  O240  1  0.24983769  0.61881905  0.48615226  1
  O  O241  1  0.24445236  0.62879782  0.99144614  1
  O  O242  1  0.74513333  0.13914748  0.51836354  1
  O  O243  1  0.74216437  0.12226642  0.99248762  1
  O  O244  1  0.73977218  0.63353875  0.50007640  1
  O  O245  1  0.73595897  0.62502599  1.01097546  1
  O  O246  1  0.25857813  0.36995240  -0.01318429  1
  O  O247  1  0.23484758  0.38713029  0.51488125  1
  O  O248  1  0.26542581  0.86513369  -0.00860120  1
  O  O249  1  0.26156226  0.87533195  0.50876473  1
  O  O250  1  0.74533779  0.35729983  0.00018296  1
  O  O251  1  0.75707483  0.37290949  0.50564174  1
  O  O252  1  0.75897664  0.87429566  0.00895882  1
  O  O253  1  0.74607429  0.85429033  0.49537028  1
  O  O254  1  0.13084603  0.50462354  0.23704442  1
  O  O255  1  0.12811239  0.49052265  0.75629461  1
  O  O256  1  0.13678230  0.98412948  0.25111992  1
  O  O257  1  0.12733441  0.99026094  0.74745101  1
  O  O258  1  0.63057809  0.49603182  0.24837424  1
  O  O259  1  0.63496091  0.50343901  0.73323260  1
  O  O260  1  0.61170817  0.97552585  0.23745331  1
  O  O261  1  0.63467009  1.00145657  0.73761986  1
  O  O262  1  0.36822578  -0.01746907  0.26287040  1
  O  O263  1  0.37865045  0.01026579  0.75975385  1
  O  O264  1  0.36390237  0.50939119  0.23807230  1
  O  O265  1  0.35876140  0.49718308  0.74809072  1
  O  O266  1  0.88115480  0.00227889  0.27391905  1
  O  O267  1  0.87105163  0.00349414  0.76074168  1
  O  O268  1  0.86490110  0.50887130  0.25465102  1
  O  O269  1  0.86406929  0.50685703  0.75664592  1
  O  O270  1  0.10051411  0.38202914  0.37071680  1
  O  O271  1  0.12786383  0.36948819  0.86119090  1
  O  O272  1  0.11303662  0.87329042  0.36323919  1
  O  O273  1  0.12294472  0.87384239  0.86823859  1
  O  O274  1  0.61833468  0.37025718  0.37302764  1
  O  O275  1  0.60512044  0.37235385  0.87328841  1
  O  O276  1  0.63381396  0.87977689  0.35965073  1
  O  O277  1  0.61145704  0.87971131  0.87873577  1
  O  O278  1  0.36097394  0.13886564  0.10785176  1
  O  O279  1  0.39443864  0.11757019  0.63474340  1
  O  O280  1  0.38070100  0.63065163  0.13289622  1
  O  O281  1  0.37750293  0.63908233  0.62364869  1
  O  O282  1  0.88560757  0.12412310  0.12571995  1
  O  O283  1  0.87946581  0.11617491  0.64048221  1
  O  O284  1  0.88509493  0.61540412  0.13471195  1
  O  O285  1  0.88330717  0.64148208  0.63085471  1
  O  O286  1  0.24750287  0.26504095  0.11290709  1
  O  O287  1  0.23197654  0.25990338  0.61401377  1
  O  O288  1  0.26346572  0.74011887  0.11946973  1
  O  O289  1  0.26325282  0.75918775  0.62368018  1
  O  O290  1  0.74270431  0.23594167  0.11145725  1
  O  O291  1  0.74622295  0.26940089  0.61568741  1
  O  O292  1  0.74954086  0.76082200  0.12335143  1
  O  O293  1  0.75822226  0.74694967  0.63812391  1
  O  O294  1  0.25755634  0.22127463  0.36772247  1
  O  O295  1  0.23966997  0.25056772  0.87395595  1
  O  O296  1  0.24979027  0.73511000  0.37403955  1
  O  O297  1  0.24768723  0.74315899  0.87900281  1
  O  O298  1  0.73860876  0.25920855  0.39179481  1
  O  O299  1  0.75715433  0.22866880  0.89520618  1
  O  O300  1  0.75489634  0.74668586  0.37896796  1
  O  O301  1  0.78851231  0.71138244  0.87730251  1
  O  O302  1  0.00097162  0.12568073  0.01099589  1
  O  O303  1  -0.00250252  0.10258102  0.50917959  1
  O  O304  1  0.00160613  0.61841797  0.00641981  1
  O  O305  1  -0.00431973  0.62277726  0.50843461  1
  O  O306  1  0.50770409  0.11376275  -0.01238487  1
  O  O307  1  0.51187078  0.11422918  0.51379007  1
  O  O308  1  0.50380927  0.62520099  0.01315247  1
  O  O309  1  0.51068260  0.61257456  0.49957201  1
  O  O310  1  0.50546333  0.38749857  0.49122751  1
  O  O311  1  0.49102971  0.37673220  0.99599403  1
  O  O312  1  0.49639784  0.88476201  0.50569756  1
  O  O313  1  0.48874707  0.88417741  0.99134087  1
  O  O314  1  0.98675081  0.39105569  0.50424683  1
  O  O315  1  0.99143443  0.38880117  0.99441758  1
  O  O316  1  0.99554345  0.87536713  0.49049384  1
  O  O317  1  1.00145553  0.87564266  0.98988353  1
  O  O318  1  0.49965650  0.48921284  0.38704497  1
  O  O319  1  0.49357761  0.48307445  0.86132339  1
  O  O320  1  0.50033090  1.00537434  0.38845540  1
  O  O321  1  0.49196180  0.99414412  0.88360217  1
  O  O322  1  0.98598212  0.49693756  0.38255459  1
  O  O323  1  0.99923891  0.51260770  0.88883259  1
  O  O324  1  0.99324450  0.99028760  0.38816737  1
  O  O325  1  0.99384801  0.99142964  0.86814748  1
  O  O326  1  -0.00232457  0.01041719  0.12379487  1
  O  O327  1  0.00289396  -0.01308753  0.61362748  1
  O  O328  1  0.00670511  0.50908556  0.11547993  1
  O  O329  1  -0.01348899  0.51582218  0.61684852  1
  O  O330  1  0.50782692  -0.00801922  0.11187014  1
  O  O331  1  0.51663719  0.00475625  0.61825838  1
  O  O332  1  0.51233958  0.50955843  0.13722146  1
  O  O333  1  0.51182240  0.49554884  0.61555009  1
  O  O334  1  0.25520920  0.38136022  0.24490595  1
  O  O335  1  0.23809097  0.38726690  0.74282064  1
  O  O336  1  0.23834533  0.87697120  0.25904077  1
  O  O337  1  0.24437416  0.87690522  0.74326517  1
  O  O338  1  0.74085089  0.39122466  0.25687572  1
  O  O339  1  0.75949645  0.39285435  0.73123153  1
  O  O340  1  0.73481462  0.86678577  0.23566397  1
  O  O341  1  0.75690489  0.88579600  0.76383647  1
  O  O342  1  0.24392854  0.10086884  0.26077803  1
  O  O343  1  0.26131470  0.12874591  0.75833032  1
  O  O344  1  0.25625977  0.61825424  0.25394105  1
  O  O345  1  0.24011829  0.61304162  0.75716613  1
  O  O346  1  0.78388237  0.16717848  0.25452074  1
  O  O347  1  0.75974130  0.10993014  0.75788019  1
  O  O348  1  0.75928388  0.61954255  0.24340381  1
  O  O349  1  0.75002611  0.60884286  0.74659826  1
  O  O350  1  0.37474981  0.10772656  0.37817096  1
  O  O351  1  0.37265875  0.12260907  0.86720549  1
  O  O352  1  0.36724740  0.62560946  0.36132892  1
  O  O353  1  0.36350384  0.62477574  0.88040003  1
  O  O354  1  0.89818954  0.12016862  0.38583509  1
  O  O355  1  0.87039815  0.11434700  0.86968579  1
  O  O356  1  0.88016713  0.61870005  0.36257141  1
  O  O357  1  0.85185232  0.65718113  0.87314404  1
  O  O358  1  0.12376661  0.38120725  0.12215475  1
  O  O359  1  0.12908741  0.37744802  0.64138157  1
  O  O360  1  0.12043583  0.87692794  0.14001164  1
  O  O361  1  0.13736280  0.87355361  0.63315187  1
  O  O362  1  0.61180344  0.38670496  0.13678833  1
  O  O363  1  0.63858607  0.38980563  0.61445308  1
  O  O364  1  0.63481283  0.87723919  0.12171144  1
  O  O365  1  0.62512201  0.88594849  0.62260303  1
  O  O366  1  0.14474064  0.26447571  0.23831032  1
  O  O367  1  0.11246720  0.26448059  0.75831798  1
  O  O368  1  0.11649833  0.75921854  0.25046369  1
  O  O369  1  0.11977959  0.76176853  0.75471769  1
  O  O370  1  0.63848951  0.27061356  0.26456931  1
  O  O371  1  0.68035223  0.25720583  0.76711775  1
  O  O372  1  0.61349472  0.75402414  0.24567220  1
  O  O373  1  0.58337135  0.70504923  0.74982183  1
  O  O374  1  0.37422490  0.25218884  0.22443504  1
  O  O375  1  0.37119209  0.24266423  0.75232329  1
  O  O376  1  0.38448405  0.74339077  0.24352861  1
  O  O377  1  0.37644803  0.75439105  0.73685921  1
  O  O378  1  0.83374770  0.22923637  0.24676018  1
  O  O379  1  0.87757154  0.23762242  0.76160185  1
  O  O380  1  0.88487021  0.74242997  0.25139724  1
  O  O381  1  0.88537539  0.75494896  0.74075972  1
  O  O382  1  0.39198437  0.50389617  0.50814330  1
  O  O383  1  0.36927619  0.48641461  1.00084575  1
  O  O384  1  0.38893436  0.99210111  0.49614828  1
  O  O385  1  0.37776514  0.99551582  0.99202702  1
  O  O386  1  0.87682022  0.50049037  0.49176240  1
  O  O387  1  0.88418799  0.49425860  1.00191379  1
  O  O388  1  0.88638093  0.99268560  0.49409540  1
  O  O389  1  0.87033196  0.99133387  0.98853523  1
  O  O390  1  0.17358075  0.01499742  0.01262857  1
  O  O391  1  0.11140483  -0.01257023  0.50050599  1
  O  O392  1  0.11359755  0.50347547  0.00611413  1
  O  O393  1  0.10514669  0.50698560  0.49418938  1
  O  O394  1  0.61553220  0.00260128  0.00340429  1
  O  O395  1  0.62737097  0.00525047  0.51115690  1
  O  O396  1  0.62713883  0.49756409  0.01733079  1
  O  O397  1  0.62183612  0.50940731  0.50477177  1
  O  O398  1  0.38245056  0.36677551  0.11109606  1
  O  O399  1  0.34998513  0.37364582  0.62604832  1
  O  O400  1  0.38372967  0.86338569  0.11493428  1
  O  O401  1  0.37238862  0.86846318  0.61785448  1
  O  O402  1  0.87252485  0.36900648  0.10551578  1
  O  O403  1  0.86072532  0.38847165  0.61278835  1
  O  O404  1  0.85727106  0.88488165  0.12208505  1
  O  O405  1  0.87631090  0.85907244  0.62203617  1
  O  O406  1  0.13473738  0.11699975  0.37168674  1
  O  O407  1  0.13468688  0.13673647  0.87176147  1
  O  O408  1  0.13492297  0.62569227  0.37145289  1
  O  O409  1  0.13402149  0.63343522  0.88020684  1
  O  O410  1  0.62290392  0.13361908  0.39689039  1
  O  O411  1  0.63335941  0.11988152  0.88061393  1
  O  O412  1  0.62330995  0.61726228  0.38617490  1
  O  O413  1  0.61942474  0.61605746  0.89926652  1
