# generated using pymatgen
data_V79Zn79O256
_symmetry_space_group_name_H-M   'P 1'
_cell_length_a   16.89759161
_cell_length_b   16.92581414
_cell_length_c   16.90908366
_cell_angle_alpha   90.09243687
_cell_angle_beta   90.05953584
_cell_angle_gamma   90.08300158
_symmetry_Int_Tables_number   1
_chemical_formula_structural   V79Zn79O256
_chemical_formula_sum   'V79 Zn79 O256'
_cell_volume   4836.07685113
_cell_formula_units_Z   1
loop_
 _symmetry_equiv_pos_site_id
 _symmetry_equiv_pos_as_xyz
  1  'x, y, z'
loop_
 _atom_site_type_symbol
 _atom_site_label
 _atom_site_symmetry_multiplicity
 _atom_site_fract_x
 _atom_site_fract_y
 _atom_site_fract_z
 _atom_site_occupancy
  V  V0  1  0.63326920  0.74953961  0.87408439  1
  V  V1  1  -0.00233645  0.12834215  0.12040545  1
  V  V2  1  0.25223276  0.50095782  0.75492094  1
  V  V3  1  0.12015679  -0.00262202  0.61862585  1
  V  V4  1  0.12085924  0.50413551  0.61178846  1
  V  V5  1  0.12163407  0.12309598  0.49400833  1
  V  V6  1  0.38598198  0.75673559  0.13316571  1
  V  V7  1  0.12706418  0.23631839  0.88065727  1
  V  V8  1  0.50198330  0.00432413  0.00447147  1
  V  V9  1  0.87350605  0.37314992  0.00433968  1
  V  V10  1  0.24955808  0.62297895  0.87761298  1
  V  V11  1  0.62835531  0.12922035  0.50172610  1
  V  V12  1  0.12628549  0.37156557  0.25021136  1
  V  V13  1  0.24525648  0.24835338  0.49668860  1
  V  V14  1  0.12020671  0.62670113  0.00727734  1
  V  V15  1  0.24810174  0.87535228  0.62717372  1
  V  V16  1  0.38770588  0.63031858  0.25105664  1
  V  V17  1  0.85978162  0.75979464  0.61885844  1
  V  V18  1  0.37557846  0.26141140  0.14876722  1
  V  V19  1  0.63575736  0.38254500  0.74476404  1
  V  V20  1  0.36869388  0.00339515  0.87439678  1
  V  V21  1  0.62877618  -0.00327227  0.62571105  1
  V  V22  1  0.62667763  0.87533824  0.74989940  1
  V  V23  1  -0.00106186  0.74661899  0.75292626  1
  V  V24  1  0.00041236  -0.00135968  -0.00277073  1
  V  V25  1  0.00197967  0.62483698  0.61043994  1
  V  V26  1  0.37639413  0.87489017  0.49540746  1
  V  V27  1  0.49891313  0.87541061  0.87810535  1
  V  V28  1  0.36611129  0.12515146  0.75369573  1
  V  V29  1  0.26323327  0.24715506  -0.00116689  1
  V  V30  1  0.24045423  0.74671134  0.50034214  1
  V  V31  1  0.87679559  -0.00771526  0.87638493  1
  V  V32  1  0.00200805  0.37703391  0.87301627  1
  V  V33  1  0.11113268  0.74986621  0.37419625  1
  V  V34  1  0.37436573  0.00347741  0.37168307  1
  V  V35  1  0.74996720  0.25242608  0.00648786  1
  V  V36  1  -0.00448118  0.12002808  0.62032967  1
  V  V37  1  0.63030850  0.24802850  0.87499851  1
  V  V38  1  0.75292259  0.12248129  0.37210291  1
  V  V39  1  0.12521524  0.87062610  0.24153954  1
  V  V40  1  0.24868861  0.75733208  0.01348929  1
  V  V41  1  0.62671352  0.12830951  0.00210990  1
  V  V42  1  0.50878434  0.62057578  0.62282098  1
  V  V43  1  0.87014383  0.12429803  0.75657475  1
  V  V44  1  0.37377090  0.74640245  0.62944553  1
  V  V45  1  0.62308781  0.26045438  0.37264417  1
  V  V46  1  0.25088128  0.12365909  0.36831005  1
  V  V47  1  0.60948822  0.62026263  -0.00639512  1
  V  V48  1  0.88042633  0.49693539  0.38675599  1
  V  V49  1  0.11607914  0.50882173  0.13369082  1
  V  V50  1  0.00439485  0.24807162  0.25342269  1
  V  V51  1  0.74851643  0.62726502  0.38021584  1
  V  V52  1  0.87200341  0.11835966  0.25159656  1
  V  V53  1  0.25071654  0.37665379  0.61896189  1
  V  V54  1  0.61966989  0.51512427  0.12241446  1
  V  V55  1  0.24100254  0.62587809  0.37902952  1
  V  V56  1  -0.00209101  0.37275416  0.38548038  1
  V  V57  1  0.87244994  0.87362336  0.00801365  1
  V  V58  1  0.12294071  0.37455318  0.75201309  1
  V  V59  1  0.49924275  0.12612418  0.62657634  1
  V  V60  1  0.24994364  0.49746309  0.24727707  1
  V  V61  1  0.75142411  0.74191847  0.00709764  1
  V  V62  1  0.12249117  0.75582855  0.87691822  1
  V  V63  1  0.62744996  0.37735344  0.23756749  1
  V  V64  1  0.49821783  0.25386164  0.75105257  1
  V  V65  1  0.13347128  0.00800405  0.12208672  1
  V  V66  1  0.49323187  0.12781341  0.13749472  1
  V  V67  1  0.86353591  0.61881964  0.75737078  1
  V  V68  1  -0.00326247  0.89539487  0.38302557  1
  V  V69  1  0.86814605  0.25903809  0.62014396  1
  V  V70  1  0.50045659  -0.00167771  0.49818826  1
  V  V71  1  0.37473919  0.49807892  0.38342658  1
  V  V72  1  0.11927163  0.87504813  0.75229360  1
  V  V73  1  0.50563183  0.49350982  0.50218823  1
  V  V74  1  0.48921569  0.37929443  0.88471106  1
  V  V75  1  0.89364457  0.72860752  0.11933971  1
  V  V76  1  0.37288433  0.25283569  0.61935878  1
  V  V77  1  0.74512566  0.00323272  0.76382878  1
  V  V78  1  0.00127570  0.50069788  -0.00210325  1
  Zn  Zn79  1  0.65430097  0.49548609  0.62103284  1
  Zn  Zn80  1  0.71312258  -0.07748114  0.17220989  1
  Zn  Zn81  1  0.75330538  0.28079735  0.50316886  1
  Zn  Zn82  1  0.37754561  0.62196658  0.75693013  1
  Zn  Zn83  1  0.36899348  0.88490777  0.01654171  1
  Zn  Zn84  1  0.84761449  0.49522034  0.86814963  1
  Zn  Zn85  1  0.40242642  0.51762393  0.91950258  1
  Zn  Zn86  1  0.86922752  0.25340318  0.12948935  1
  Zn  Zn87  1  0.24325495  0.00517486  0.75510040  1
  Zn  Zn88  1  -0.00254813  0.24863470  0.74922352  1
  Zn  Zn89  1  0.49070887  0.36528062  0.37667947  1
  Zn  Zn90  1  0.50004750  0.74529974  0.75373813  1
  Zn  Zn91  1  0.89230959  0.61313267  0.24359199  1
  Zn  Zn92  1  0.26048494  -0.00095651  0.23958641  1
  Zn  Zn93  1  0.76103392  0.49723137  0.23686487  1
  Zn  Zn94  1  0.19130886  0.18965795  0.18183731  1
  Zn  Zn95  1  0.18317796  0.18748083  0.68574484  1
  Zn  Zn96  1  0.18852971  0.68635581  0.19398587  1
  Zn  Zn97  1  0.18509878  0.68535541  0.68789223  1
  Zn  Zn98  1  0.68201717  0.18924954  0.18720769  1
  Zn  Zn99  1  0.68836346  0.19009058  0.69006406  1
  Zn  Zn100  1  0.70096345  0.67916307  0.18861053  1
  Zn  Zn101  1  0.68704219  0.68784613  0.68686361  1
  Zn  Zn102  1  0.30943577  0.31428697  0.31689440  1
  Zn  Zn103  1  0.30802939  0.31246968  0.81329052  1
  Zn  Zn104  1  0.30572246  0.81487770  0.31131131  1
  Zn  Zn105  1  0.30925599  0.81471332  0.81610879  1
  Zn  Zn106  1  0.81101386  0.31134685  0.31285604  1
  Zn  Zn107  1  0.81420295  0.30967441  0.81458108  1
  Zn  Zn108  1  0.81316620  0.79278773  0.29089123  1
  Zn  Zn109  1  0.81332261  0.81341593  0.80950883  1
  Zn  Zn110  1  0.18452901  0.43388487  0.43222279  1
  Zn  Zn111  1  0.23546237  0.44612345  0.97112868  1
  Zn  Zn112  1  0.18746013  0.93455113  0.43457874  1
  Zn  Zn113  1  0.18717790  0.93852554  0.94094146  1
  Zn  Zn114  1  0.69517082  0.45079450  0.43882066  1
  Zn  Zn115  1  0.68164617  0.43267493  0.93510519  1
  Zn  Zn116  1  0.81922407  0.95039896  0.33288394  1
  Zn  Zn117  1  0.70253582  0.95086652  0.97233611  1
  Zn  Zn118  1  0.31475601  0.07582889  0.05698417  1
  Zn  Zn119  1  0.30900692  0.06244096  0.56395679  1
  Zn  Zn120  1  0.31233430  0.57179356  0.07234188  1
  Zn  Zn121  1  0.31204447  0.56214241  0.56493635  1
  Zn  Zn122  1  0.80805602  0.06359328  0.06716649  1
  Zn  Zn123  1  0.80088168  0.07199130  0.57223644  1
  Zn  Zn124  1  0.80140504  0.55282736  0.04695857  1
  Zn  Zn125  1  0.81988063  0.56402618  0.56224068  1
  Zn  Zn126  1  0.44578090  0.44064651  0.19435752  1
  Zn  Zn127  1  0.43699277  0.43654285  0.69082648  1
  Zn  Zn128  1  0.45172561  0.93809679  0.19384867  1
  Zn  Zn129  1  0.43791995  0.93715377  0.68867520  1
  Zn  Zn130  1  0.94286781  0.43719066  0.18861209  1
  Zn  Zn131  1  0.93436437  0.44396576  0.68292948  1
  Zn  Zn132  1  0.94387672  0.93289594  0.18718355  1
  Zn  Zn133  1  0.93530337  0.93729666  0.68690728  1
  Zn  Zn134  1  0.06411040  0.06023594  0.30733821  1
  Zn  Zn135  1  0.05550277  0.05941932  0.80799820  1
  Zn  Zn136  1  0.05559569  0.56273239  0.31885001  1
  Zn  Zn137  1  0.06450698  0.56394625  0.81026648  1
  Zn  Zn138  1  0.56858050  0.06046825  0.31752386  1
  Zn  Zn139  1  0.55726682  0.06420197  0.81698726  1
  Zn  Zn140  1  0.56898880  0.56112085  0.31581132  1
  Zn  Zn141  1  0.56716861  0.56056203  0.80955325  1
  Zn  Zn142  1  0.43762949  0.18434992  0.43567153  1
  Zn  Zn143  1  0.43899909  0.18832360  0.93817644  1
  Zn  Zn144  1  0.43272261  0.68099093  0.44443821  1
  Zn  Zn145  1  0.43366443  0.69688601  0.94210384  1
  Zn  Zn146  1  0.93667602  0.18994611  0.43857602  1
  Zn  Zn147  1  0.93941998  0.18816493  0.93602952  1
  Zn  Zn148  1  0.90625274  0.70449782  0.42381808  1
  Zn  Zn149  1  0.93762534  0.68618534  0.93439516  1
  Zn  Zn150  1  0.09727218  0.33231787  0.04538324  1
  Zn  Zn151  1  0.06200234  0.30665322  0.56854932  1
  Zn  Zn152  1  0.06151326  0.82011182  0.05925962  1
  Zn  Zn153  1  0.05207265  0.81243609  0.56104375  1
  Zn  Zn154  1  0.55428710  0.30962335  0.06441075  1
  Zn  Zn155  1  0.56291052  0.31547509  0.56106512  1
  Zn  Zn156  1  0.55945452  0.80772032  0.06100242  1
  Zn  Zn157  1  0.55842683  0.81325329  0.56413958  1
  O  O158  1  0.11530061  0.11352089  0.12929621  1
  O  O159  1  0.11642809  0.11619213  0.61977478  1
  O  O160  1  0.12731807  0.62250240  0.11656595  1
  O  O161  1  0.11309557  0.61865942  0.62825815  1
  O  O162  1  0.60910809  0.13721149  0.11206339  1
  O  O163  1  0.62035555  0.12003806  0.62066472  1
  O  O164  1  0.62407341  0.62148157  0.11340783  1
  O  O165  1  0.61167643  0.61721483  0.63184738  1
  O  O166  1  0.37713117  0.39293226  0.36728156  1
  O  O167  1  0.38778895  0.37314224  0.86901680  1
  O  O168  1  0.36610772  0.88210947  0.38998030  1
  O  O169  1  0.38561189  0.88174980  0.87585767  1
  O  O170  1  0.88841818  0.37863841  0.37206584  1
  O  O171  1  0.88755659  0.37504286  0.87949896  1
  O  O172  1  0.89805271  0.86902836  0.35882468  1
  O  O173  1  0.87337408  0.88605081  0.88133808  1
  O  O174  1  0.25864247  0.00834456  0.37868365  1
  O  O175  1  0.26368448  -0.00614626  0.87453390  1
  O  O176  1  0.25506528  0.50754943  0.37161142  1
  O  O177  1  0.23881899  0.51200324  0.86855452  1
  O  O178  1  0.74176838  0.02342265  0.37338658  1
  O  O179  1  0.75717854  -0.00076994  0.87080582  1
  O  O180  1  0.76663767  0.50692322  0.36894288  1
  O  O181  1  0.74170465  0.51245661  0.89115312  1
  O  O182  1  0.23605527  0.51089523  0.14251692  1
  O  O183  1  0.24282359  0.49419119  0.63149052  1
  O  O184  1  0.23797622  1.01027481  0.11974243  1
  O  O185  1  0.23892819  0.99382676  0.62961839  1
  O  O186  1  0.72990519  0.49977675  0.11979051  1
  O  O187  1  0.76464255  0.47936313  0.61174008  1
  O  O188  1  0.72937369  0.98554046  0.08468462  1
  O  O189  1  0.73399314  1.00275539  0.63882138  1
  O  O190  1  0.00702388  0.36337352  0.25509100  1
  O  O191  1  0.00799952  0.37857178  0.75558183  1
  O  O192  1  0.01896102  0.88320874  0.26067047  1
  O  O193  1  0.01156471  0.86361621  0.74503733  1
  O  O194  1  0.52320142  0.38679691  0.26567622  1
  O  O195  1  0.50445109  0.36479476  0.75489203  1
  O  O196  1  0.51126911  0.86939470  0.27137727  1
  O  O197  1  0.50862446  0.87546367  0.76019633  1
  O  O198  1  0.51223729  0.11866385  0.23522873  1
  O  O199  1  0.49199079  0.13626673  0.74611274  1
  O  O200  1  0.48604482  0.62532787  0.26267556  1
  O  O201  1  0.49473171  0.62335135  0.73893027  1
  O  O202  1  0.99342349  0.13024316  0.24488874  1
  O  O203  1  0.98747080  0.12332853  0.73800342  1
  O  O204  1  1.00520879  0.60449659  0.23054564  1
  O  O205  1  0.99641776  0.63580930  0.74793672  1
  O  O206  1  0.36455025  0.25648866  -0.00539325  1
  O  O207  1  0.36594117  0.24242602  0.51331752  1
  O  O208  1  0.36685671  0.75207601  0.01825696  1
  O  O209  1  0.36672791  0.75704361  0.50870678  1
  O  O210  1  0.86650707  0.25506764  -0.00256993  1
  O  O211  1  0.87134483  0.24536981  0.51524574  1
  O  O212  1  0.86758417  0.75279996  -0.00219782  1
  O  O213  1  0.88339500  0.75394280  0.52171174  1
  O  O214  1  0.13562606  0.23564336  0.50928194  1
  O  O215  1  0.11157254  0.23603134  0.98145767  1
  O  O216  1  0.13554949  0.75674435  0.49344780  1
  O  O217  1  0.12929915  0.74801231  0.99518353  1
  O  O218  1  0.62744755  0.24137073  0.49808313  1
  O  O219  1  0.62962894  0.24877120  0.99388100  1
  O  O220  1  0.58770595  0.75230519  0.46318315  1
  O  O221  1  0.63316858  0.74314720  0.99526416  1
  O  O222  1  0.48479044  0.23900742  0.12309252  1
  O  O223  1  0.49092749  0.24793566  0.63158283  1
  O  O224  1  0.48407030  0.74558968  0.12351749  1
  O  O225  1  0.49328371  0.73666585  0.62482072  1
  O  O226  1  0.99942033  0.23560174  0.13338280  1
  O  O227  1  0.99013127  0.23688568  0.62883542  1
  O  O228  1  0.99202841  0.74145935  0.10139455  1
  O  O229  1  1.00078911  0.73955276  0.63589162  1
  O  O230  1  -0.00353057  0.25621112  0.36227196  1
  O  O231  1  0.00710870  0.25788889  0.86886629  1
  O  O232  1  0.01081425  0.74621993  0.38055471  1
  O  O233  1  0.01313085  0.74713525  0.86798442  1
  O  O234  1  0.51648550  0.24962275  0.38498902  1
  O  O235  1  0.50423370  0.25871259  0.86666480  1
  O  O236  1  0.52971148  0.74849852  0.41152436  1
  O  O237  1  0.50599972  0.76036938  0.87649779  1
  O  O238  1  0.24148904  0.13037448  0.49568316  1
  O  O239  1  0.24554877  0.14647817  1.00004177  1
  O  O240  1  0.25687719  0.63627016  0.49119195  1
  O  O241  1  0.23832980  0.63629428  0.99517416  1
  O  O242  1  0.73935733  0.12567862  0.49118337  1
  O  O243  1  0.73616515  0.13557257  1.00136892  1
  O  O244  1  0.75624084  0.61523608  0.48146610  1
  O  O245  1  0.73743570  0.63872084  0.99536909  1
  O  O246  1  0.21348788  0.34459372  0.01260381  1
  O  O247  1  0.24100746  0.36459771  0.51036617  1
  O  O248  1  0.25345355  0.86239417  -0.00277357  1
  O  O249  1  0.25629978  0.86663173  0.50719302  1
  O  O250  1  0.76184217  0.36488102  -0.00750773  1
  O  O251  1  0.73876394  0.39164237  0.52177774  1
  O  O252  1  0.76079670  0.85464691  -0.00795725  1
  O  O253  1  0.81856847  0.93270102  0.48225696  1
  O  O254  1  0.13195271  0.49493939  0.24938710  1
  O  O255  1  0.13309197  0.49266695  0.74199238  1
  O  O256  1  0.12820787  0.99455510  0.23415080  1
  O  O257  1  0.12349943  0.99081569  0.74218651  1
  O  O258  1  0.63066513  0.49531692  0.23794175  1
  O  O259  1  0.62487036  0.48639541  0.74465439  1
  O  O260  1  0.60204141  0.96819071  0.25106781  1
  O  O261  1  0.62655725  0.99736364  0.74854747  1
  O  O262  1  0.37669991  -0.00946028  0.26683456  1
  O  O263  1  0.37413484  0.00832635  0.75603893  1
  O  O264  1  0.36960176  0.51309188  0.25713447  1
  O  O265  1  0.35720940  0.50000255  0.74861767  1
  O  O266  1  0.87855319  0.01434460  0.24749056  1
  O  O267  1  0.86569316  0.00258166  0.75751818  1
  O  O268  1  0.87571486  0.49341512  0.25664929  1
  O  O269  1  0.88164673  0.51414528  0.75486103  1
  O  O270  1  0.11245845  0.37791501  0.36152699  1
  O  O271  1  0.11629715  0.36231698  0.86390511  1
  O  O272  1  0.11532982  0.86971378  0.36842819  1
  O  O273  1  0.13121044  0.86588073  0.86614184  1
  O  O274  1  0.62790108  0.36396009  0.38310598  1
  O  O275  1  0.61161861  0.36618314  0.86444413  1
  O  O276  1  0.58000359  0.89851870  0.29491902  1
  O  O277  1  0.61378545  0.86798067  0.86960916  1
  O  O278  1  0.38735166  0.13072208  0.12911032  1
  O  O279  1  0.37876643  0.13245453  0.63277059  1
  O  O280  1  0.37238400  0.63482557  0.14471475  1
  O  O281  1  0.37791331  0.63534892  0.62892855  1
  O  O282  1  0.87966189  0.12631274  0.13325168  1
  O  O283  1  0.88030978  0.12677047  0.63347760  1
  O  O284  1  0.87518664  0.62887433  0.10500748  1
  O  O285  1  0.88766678  0.63251477  0.63579714  1
  O  O286  1  0.27039706  0.24330608  0.11855373  1
  O  O287  1  0.25426627  0.25652785  0.61896840  1
  O  O288  1  0.25603499  0.74485813  0.11877179  1
  O  O289  1  0.25407104  0.75266155  0.61934588  1
  O  O290  1  0.74951361  0.24866409  0.11199943  1
  O  O291  1  0.76340850  0.24480505  0.62408586  1
  O  O292  1  0.76558164  0.74561370  0.10913013  1
  O  O293  1  0.75933348  0.74599974  0.62253024  1
  O  O294  1  0.25689033  0.24110617  0.38928791  1
  O  O295  1  0.23663785  0.25487082  0.88374271  1
  O  O296  1  0.24091466  0.74422435  0.38257613  1
  O  O297  1  0.24242020  0.74213003  0.88291549  1
  O  O298  1  0.73902858  0.24725285  0.38576350  1
  O  O299  1  0.73649675  0.25200858  0.88327307  1
  O  O300  1  0.79182598  0.72454972  0.37727711  1
  O  O301  1  0.73742792  0.75318078  0.87809266  1
  O  O302  1  -0.01113215  0.11233228  0.00973189  1
  O  O303  1  0.00835585  0.12949628  0.50900192  1
  O  O304  1  0.01313089  0.61413059  -0.01322817  1
  O  O305  1  -0.00494645  0.63219563  0.51446718  1
  O  O306  1  0.50357235  0.12133877  0.00799837  1
  O  O307  1  0.50773480  0.12003747  0.50766627  1
  O  O308  1  0.50941508  0.62914404  -0.00139906  1
  O  O309  1  0.49467499  0.61557539  0.51705893  1
  O  O310  1  0.49599436  0.38894664  0.50042864  1
  O  O311  1  0.50236342  0.37082834  0.98350456  1
  O  O312  1  0.48824715  0.88758335  0.50770717  1
  O  O313  1  0.50035883  0.88491380  0.99576349  1
  O  O314  1  1.00850011  0.36047237  0.48361615  1
  O  O315  1  0.99987604  0.38092627  0.99002715  1
  O  O316  1  1.00438271  0.87754601  0.48315987  1
  O  O317  1  0.98926738  0.88946939  1.00026952  1
  O  O318  1  0.49419299  0.50787938  0.39147354  1
  O  O319  1  0.49867889  0.48651372  0.86948518  1
  O  O320  1  0.49062606  1.01160708  0.39101960  1
  O  O321  1  0.48903734  0.99355697  0.88187071  1
  O  O322  1  0.99535850  0.48098017  0.37475907  1
  O  O323  1  1.01200372  0.48932773  0.88419193  1
  O  O324  1  0.99985648  0.99592590  0.37730562  1
  O  O325  1  0.99054159  1.00478109  0.88495996  1
  O  O326  1  0.00686952  0.00880668  0.11812072  1
  O  O327  1  0.00791067  0.00692209  0.62871143  1
  O  O328  1  0.00675436  0.49668131  0.10778264  1
  O  O329  1  0.00670744  0.51504392  0.62739774  1
  O  O330  1  0.49339581  0.01185552  0.11402720  1
  O  O331  1  0.50598558  0.00691871  0.62050638  1
  O  O332  1  0.51932142  0.49689940  0.12716452  1
  O  O333  1  0.48960705  0.50901181  0.61676216  1
  O  O334  1  0.24043539  0.38750640  0.26017298  1
  O  O335  1  0.24131573  0.38112391  0.74200923  1
  O  O336  1  0.23157670  0.88482987  0.25876859  1
  O  O337  1  0.23664489  0.87397147  0.74433175  1
  O  O338  1  0.73225163  0.37786885  0.25837096  1
  O  O339  1  0.73421112  0.36860798  0.75739552  1
  O  O340  1  0.75786792  0.88360135  0.26398202  1
  O  O341  1  0.73438555  0.88623364  0.75779460  1
  O  O342  1  0.24054756  0.12199679  0.26505408  1
  O  O343  1  0.26190716  0.12566445  0.74413202  1
  O  O344  1  0.25494422  0.61736161  0.26329055  1
  O  O345  1  0.24847698  0.61920008  0.76081285  1
  O  O346  1  0.75577293  0.13598841  0.26127705  1
  O  O347  1  0.75692654  0.11388259  0.74805412  1
  O  O348  1  0.76835002  0.61902217  0.25668773  1
  O  O349  1  0.76461620  0.62440458  0.74305509  1
  O  O350  1  0.36385636  0.11480304  0.38292506  1
  O  O351  1  0.38318864  0.11606949  0.86443040  1
  O  O352  1  0.36530736  0.62239633  0.36769256  1
  O  O353  1  0.36435198  0.62573677  0.87889964  1
  O  O354  1  0.86110712  0.13225199  0.36987986  1
  O  O355  1  0.88024584  0.11528176  0.86287727  1
  O  O356  1  0.88906688  0.60299918  0.36992528  1
  O  O357  1  0.87552761  0.62593948  0.86064578  1
  O  O358  1  0.11743430  0.39337429  0.14115771  1
  O  O359  1  0.13001236  0.38117544  0.63247408  1
  O  O360  1  0.12070525  0.88478851  0.13538025  1
  O  O361  1  0.12638131  0.88019687  0.63078155  1
  O  O362  1  0.62117804  0.37333551  0.13556389  1
  O  O363  1  0.61883371  0.37289636  0.64214278  1
  O  O364  1  0.63251791  0.83026320  0.15124700  1
  O  O365  1  0.61475392  0.88396436  0.63645572  1
  O  O366  1  0.11804077  0.25888543  0.24002291  1
  O  O367  1  0.12357827  0.26137731  0.75120269  1
  O  O368  1  0.12955322  0.76328692  0.25769816  1
  O  O369  1  0.11994892  0.75514841  0.75765846  1
  O  O370  1  0.62762893  0.26205147  0.26428934  1
  O  O371  1  0.61536007  0.25303690  0.75595510  1
  O  O372  1  0.63141744  0.77316405  0.20854324  1
  O  O373  1  0.62306219  0.75790975  0.75650183  1
  O  O374  1  0.37202721  0.24806017  0.24804832  1
  O  O375  1  0.37932362  0.24439550  0.74295583  1
  O  O376  1  0.36956662  0.74158370  0.24657657  1
  O  O377  1  0.37551866  0.75173473  0.73999440  1
  O  O378  1  0.88397468  0.24113196  0.24757611  1
  O  O379  1  0.87313160  0.23843986  0.74334325  1
  O  O380  1  0.88601453  0.73732224  0.22193260  1
  O  O381  1  0.88162564  0.74152691  0.74643841  1
  O  O382  1  0.38022563  0.50673387  0.49038557  1
  O  O383  1  0.33678558  0.48982989  1.00230212  1
  O  O384  1  0.38020420  0.99416207  0.49810703  1
  O  O385  1  0.38215603  1.00200739  0.99265090  1
  O  O386  1  0.88193961  0.49667471  0.48551026  1
  O  O387  1  0.88620697  0.49058815  0.99173322  1
  O  O388  1  0.86380814  0.98467383  0.51230200  1
  O  O389  1  0.87777684  0.99260408  0.99421484  1
  O  O390  1  0.11564268  -0.00872800  0.01317806  1
  O  O391  1  0.13125158  0.00694694  0.51155645  1
  O  O392  1  0.12478899  0.50903230  0.01380504  1
  O  O393  1  0.13091866  0.49704138  0.51273397  1
  O  O394  1  0.60805818  0.01488394  -0.01703724  1
  O  O395  1  0.61451436  0.01103667  0.51142233  1
  O  O396  1  0.62164661  0.51444486  0.00635426  1
  O  O397  1  0.60802429  0.50131786  0.50570392  1
  O  O398  1  0.38453547  0.36112103  0.13888585  1
  O  O399  1  0.36146884  0.36487767  0.63285072  1
  O  O400  1  0.38061225  0.86313338  0.13544569  1
  O  O401  1  0.37010276  0.86694036  0.61934345  1
  O  O402  1  0.88672180  0.37104357  0.10744918  1
  O  O403  1  0.88481392  0.35630179  0.63260053  1
  O  O404  1  0.88166995  0.86348924  0.11285944  1
  O  O405  1  0.87222376  0.85883645  0.63952102  1
  O  O406  1  0.13243728  0.11555019  0.38711587  1
  O  O407  1  0.12205889  0.13927484  0.85547244  1
  O  O408  1  0.13436805  0.63249243  0.37134758  1
  O  O409  1  0.13250665  0.63560611  0.88318369  1
  O  O410  1  0.63317478  0.13692213  0.38024180  1
  O  O411  1  0.61082546  0.14019917  0.88587534  1
  O  O412  1  0.64839580  0.62832250  0.36196558  1
  O  O413  1  0.61551534  0.63621887  0.88404850  1
