# generated using pymatgen
data_V79Zn79O256
_symmetry_space_group_name_H-M   'P 1'
_cell_length_a   16.89586898
_cell_length_b   16.91568791
_cell_length_c   16.89263680
_cell_angle_alpha   90.07505758
_cell_angle_beta   89.95282244
_cell_angle_gamma   90.04774389
_symmetry_Int_Tables_number   1
_chemical_formula_structural   V79Zn79O256
_chemical_formula_sum   'V79 Zn79 O256'
_cell_volume   4827.99677746
_cell_formula_units_Z   1
loop_
 _symmetry_equiv_pos_site_id
 _symmetry_equiv_pos_as_xyz
  1  'x, y, z'
loop_
 _atom_site_type_symbol
 _atom_site_label
 _atom_site_symmetry_multiplicity
 _atom_site_fract_x
 _atom_site_fract_y
 _atom_site_fract_z
 _atom_site_occupancy
  V  V0  1  0.73996977  0.62771769  0.90518128  1
  V  V1  1  0.74542298  0.38819664  0.63152741  1
  V  V2  1  0.88472432  0.49840721  0.87377244  1
  V  V3  1  0.49349172  0.24567273  0.25436655  1
  V  V4  1  0.37711348  0.50042061  0.37744502  1
  V  V5  1  0.86723464  0.12043287  0.75106225  1
  V  V6  1  0.86656259  0.86965620  0.00458648  1
  V  V7  1  0.61580891  -0.00333835  0.63430595  1
  V  V8  1  0.37891768  -0.00213626  0.87027225  1
  V  V9  1  0.12795727  0.87363723  0.25888559  1
  V  V10  1  0.74550837  0.36772885  0.12303802  1
  V  V11  1  -0.01092316  0.37565268  0.37526185  1
  V  V12  1  0.50307110  0.37864787  0.37642116  1
  V  V13  1  0.13525893  0.13369853  0.50512078  1
  V  V14  1  0.37609566  0.88710335  0.49580713  1
  V  V15  1  0.50219479  -0.00193310  -0.00489401  1
  V  V16  1  0.49922478  0.36753593  0.87819328  1
  V  V17  1  0.63438472  0.40195259  0.75895868  1
  V  V18  1  0.50556067  0.76137369  0.25197432  1
  V  V19  1  0.75257738  0.12531506  0.87836551  1
  V  V20  1  0.38094419  0.73888023  0.62867984  1
  V  V21  1  0.37161827  0.48781248  0.89157738  1
  V  V22  1  0.87377663  0.74907191  0.62699604  1
  V  V23  1  0.62673843  0.49755843  0.13610865  1
  V  V24  1  -0.00289176  0.12331938  0.61991046  1
  V  V25  1  0.12312918  0.12642861  0.00358388  1
  V  V26  1  0.37886375  0.75253430  0.12688842  1
  V  V27  1  0.26242456  0.61905956  0.87849289  1
  V  V28  1  0.12147054  -0.00770184  0.62547999  1
  V  V29  1  0.24742693  0.88348876  0.12609446  1
  V  V30  1  0.87343453  -0.00505512  0.87103089  1
  V  V31  1  0.00424685  0.00003844  0.00563510  1
  V  V32  1  0.55472668  0.80841150  0.82701058  1
  V  V33  1  0.63371189  -0.01968620  0.12139652  1
  V  V34  1  0.24638391  -0.00767810  0.74335168  1
  V  V35  1  0.88919441  0.38126241  -0.00107812  1
  V  V36  1  -0.00135626  0.25024930  0.25021531  1
  V  V37  1  0.62846845  0.25395253  0.37038633  1
  V  V38  1  0.76440759  0.50677454  0.25498485  1
  V  V39  1  0.11776287  0.48855419  0.12575936  1
  V  V40  1  0.25039270  0.49662722  0.25067069  1
  V  V41  1  0.25521300  0.74692183  0.00243437  1
  V  V42  1  0.00839403  0.74436051  0.25019046  1
  V  V43  1  0.24492509  0.35740038  0.61915545  1
  V  V44  1  0.87793881  0.24508848  0.11821579  1
  V  V45  1  0.86180870  0.62109190  0.75125214  1
  V  V46  1  0.24985954  0.74813179  0.48246314  1
  V  V47  1  0.50285754  0.13033256  0.12831610  1
  V  V48  1  0.62135083  0.61398016  0.50434322  1
  V  V49  1  0.74884656  0.88224947  0.63815477  1
  V  V50  1  0.61679064  0.10922617  0.49877945  1
  V  V51  1  0.63234620  0.13379303  0.00121365  1
  V  V52  1  0.50912950  0.49448408  0.00097088  1
  V  V53  1  0.12889532  0.62815237  0.47958237  1
  V  V54  1  0.01295681  0.62112070  0.63042640  1
  V  V55  1  0.88090049  0.12157222  0.24543674  1
  V  V56  1  0.11850326  0.61945516  0.00489944  1
  V  V57  1  0.86733859  0.74536301  0.12491890  1
  V  V58  1  0.74772945  0.24634607  0.50263345  1
  V  V59  1  0.13115909  0.75282078  0.87202990  1
  V  V60  1  0.75816434  0.11751004  0.37168805  1
  V  V61  1  0.00076464  0.50187966  0.50290323  1
  V  V62  1  0.86740239  0.24915158  0.62563475  1
  V  V63  1  0.25226781  0.50332819  0.74153527  1
  V  V64  1  0.75595086  -0.02006174  0.24625303  1
  V  V65  1  0.27204314  0.37205872  0.12151610  1
  V  V66  1  0.87893753  0.88473958  0.49296613  1
  V  V67  1  0.37286393  0.62549408  0.25489117  1
  V  V68  1  0.50663956  0.62287760  0.12293702  1
  V  V69  1  0.62787146  0.24584425  0.86099242  1
  V  V70  1  0.25059923  0.13007565  0.86977464  1
  V  V71  1  0.36339150  0.36682141  0.50115341  1
  V  V72  1  -0.00052424  0.25459098  0.75586196  1
  V  V73  1  0.26478197  0.25332127  0.00033442  1
  V  V74  1  0.38422909  0.13479547  0.72880116  1
  V  V75  1  0.12857333  0.25712311  0.37860467  1
  V  V76  1  0.63097673  0.75218369  0.37897410  1
  V  V77  1  0.00698195  0.75106765  0.75334346  1
  V  V78  1  0.12229109  0.37817004  0.75227023  1
  Zn  Zn79  1  0.12687294  0.01161505  0.12918888  1
  Zn  Zn80  1  0.50049265  0.60035896  0.61941848  1
  Zn  Zn81  1  0.42478818  0.05096813  0.36643151  1
  Zn  Zn82  1  0.34929490  0.12023410  0.22338455  1
  Zn  Zn83  1  0.37916692  0.87457779  -0.00414222  1
  Zn  Zn84  1  0.00673416  0.87587528  0.87285553  1
  Zn  Zn85  1  0.50160339  0.88679710  0.37963615  1
  Zn  Zn86  1  0.12092070  0.25551491  0.87798863  1
  Zn  Zn87  1  -0.00691022  0.61990004  0.12819052  1
  Zn  Zn88  1  0.74995536  0.74710217  0.50050137  1
  Zn  Zn89  1  0.87376527  0.53971695  0.37271496  1
  Zn  Zn90  1  0.86780440  0.38665042  0.50221837  1
  Zn  Zn91  1  0.25670769  0.12001750  0.36681930  1
  Zn  Zn92  1  -0.00420956  0.88426153  0.37708817  1
  Zn  Zn93  1  0.24768016  0.85992511  0.63030861  1
  Zn  Zn94  1  0.18321306  0.19931574  0.18840598  1
  Zn  Zn95  1  0.18640601  0.18495701  0.69126645  1
  Zn  Zn96  1  0.19006044  0.68603638  0.18956389  1
  Zn  Zn97  1  0.19795281  0.68633395  0.68759710  1
  Zn  Zn98  1  0.68965791  0.18498677  0.18826808  1
  Zn  Zn99  1  0.55723851  0.19401159  0.66986928  1
  Zn  Zn100  1  0.68776361  0.68698407  0.18976864  1
  Zn  Zn101  1  0.67878502  0.69590969  0.68569619  1
  Zn  Zn102  1  0.31592516  0.31070794  0.30832809  1
  Zn  Zn103  1  0.31450088  0.31294402  0.80619237  1
  Zn  Zn104  1  0.29857403  0.94252548  0.31334431  1
  Zn  Zn105  1  0.35145469  0.79276837  0.82420943  1
  Zn  Zn106  1  0.81068615  0.31393477  0.30791318  1
  Zn  Zn107  1  0.81210529  0.31140986  0.81587128  1
  Zn  Zn108  1  0.83809197  0.75087720  0.33032113  1
  Zn  Zn109  1  0.80861710  0.80618628  0.81827157  1
  Zn  Zn110  1  0.18233001  0.43970193  0.43513835  1
  Zn  Zn111  1  0.18309325  0.43306159  0.94165693  1
  Zn  Zn112  1  0.18652121  0.93797576  0.45097291  1
  Zn  Zn113  1  0.19363588  0.93860288  0.93678395  1
  Zn  Zn114  1  0.69052334  0.43845618  0.43726948  1
  Zn  Zn115  1  0.69686035  0.44217037  0.94146268  1
  Zn  Zn116  1  0.69518261  0.92723073  0.43562400  1
  Zn  Zn117  1  0.68787289  0.93603444  0.93154925  1
  Zn  Zn118  1  0.31521807  0.06717395  0.05342397  1
  Zn  Zn119  1  0.34982153  0.09979581  0.52217477  1
  Zn  Zn120  1  0.31560894  0.56079023  0.06662242  1
  Zn  Zn121  1  0.31115128  0.56371125  0.55740043  1
  Zn  Zn122  1  0.81525477  0.05725057  0.06125432  1
  Zn  Zn123  1  0.81000270  0.05938163  0.56236740  1
  Zn  Zn124  1  0.81236206  0.55840742  0.06397232  1
  Zn  Zn125  1  0.81230574  0.57312444  0.55635977  1
  Zn  Zn126  1  0.44266172  0.43477191  0.19479608  1
  Zn  Zn127  1  0.46181461  0.48630854  0.72890952  1
  Zn  Zn128  1  0.43823103  0.94790956  0.18689913  1
  Zn  Zn129  1  0.43544242  0.92435386  0.68634194  1
  Zn  Zn130  1  0.93467888  0.43285019  0.18916937  1
  Zn  Zn131  1  0.93492645  0.43910033  0.68743609  1
  Zn  Zn132  1  0.94150155  0.93393214  0.18909450  1
  Zn  Zn133  1  0.93916176  0.93386206  0.68711234  1
  Zn  Zn134  1  0.10356236  0.03841575  0.33481573  1
  Zn  Zn135  1  0.05946401  0.06516833  0.81284626  1
  Zn  Zn136  1  0.06142722  0.55563177  0.30891271  1
  Zn  Zn137  1  0.06657832  0.56291104  0.81523647  1
  Zn  Zn138  1  0.58308299  0.06184025  0.30284373  1
  Zn  Zn139  1  0.56198811  0.06100245  0.80856114  1
  Zn  Zn140  1  0.56459215  0.56724472  0.31480309  1
  Zn  Zn141  1  0.57295341  0.62352840  0.80059595  1
  Zn  Zn142  1  0.47713260  0.23172130  0.49447004  1
  Zn  Zn143  1  0.44261782  0.18083386  0.93236014  1
  Zn  Zn144  1  0.44012682  0.68962380  0.44041332  1
  Zn  Zn145  1  0.46598105  0.69168685  0.94244149  1
  Zn  Zn146  1  0.93775598  0.18354480  0.43589449  1
  Zn  Zn147  1  0.93751892  0.18683975  0.94013357  1
  Zn  Zn148  1  0.95270943  0.69659738  0.44125350  1
  Zn  Zn149  1  0.93565123  0.68640265  0.93591260  1
  Zn  Zn150  1  0.06396796  0.30671764  0.06196162  1
  Zn  Zn151  1  0.05873748  0.31648351  0.56650339  1
  Zn  Zn152  1  0.05796638  0.81191192  0.06162972  1
  Zn  Zn153  1  0.06112515  0.80696870  0.56054155  1
  Zn  Zn154  1  0.56300368  0.30981905  0.06262391  1
  Zn  Zn155  1  0.52517013  0.37803351  0.59837290  1
  Zn  Zn156  1  0.56875240  0.80623292  0.04117261  1
  Zn  Zn157  1  0.55916614  0.81322029  0.56372934  1
  O  O158  1  0.13336851  0.12755912  0.10842713  1
  O  O159  1  0.11543355  0.12578420  0.61939518  1
  O  O160  1  0.12957631  0.61735256  0.11298083  1
  O  O161  1  0.11423377  0.62442612  0.62779857  1
  O  O162  1  0.62356796  0.12156395  0.11581071  1
  O  O163  1  0.62241129  0.11063274  0.60823863  1
  O  O164  1  0.61417175  0.61549644  0.13016260  1
  O  O165  1  0.61910586  0.63248525  0.61110490  1
  O  O166  1  0.37785015  0.38297831  0.37714758  1
  O  O167  1  0.38757153  0.37540416  0.87178038  1
  O  O168  1  0.37002603  0.88733889  0.38974940  1
  O  O169  1  0.36355475  0.89452941  0.87684805  1
  O  O170  1  0.88340842  0.36731085  0.38400239  1
  O  O171  1  0.86748752  0.38577108  0.88751455  1
  O  O172  1  0.87035294  0.85808340  0.39302640  1
  O  O173  1  0.87783348  0.88011805  0.88257443  1
  O  O174  1  0.22039885  0.00787566  0.36958369  1
  O  O175  1  0.25466222  0.01080747  0.86499242  1
  O  O176  1  0.25534332  0.48943240  0.35786324  1
  O  O177  1  0.25564527  0.50211368  0.88178295  1
  O  O178  1  0.74262327  0.00519638  0.35589586  1
  O  O179  1  0.76491082  0.00857192  0.87784897  1
  O  O180  1  0.75859843  0.48821033  0.35875723  1
  O  O181  1  0.76944246  0.51572756  0.88975358  1
  O  O182  1  0.24627657  0.48658086  0.12768040  1
  O  O183  1  0.25596142  0.50275436  0.64079172  1
  O  O184  1  0.25317602  0.98561444  0.11258369  1
  O  O185  1  0.23568192  1.00244430  0.63765389  1
  O  O186  1  0.74493276  0.49163323  0.13332796  1
  O  O187  1  0.76218701  0.48478987  0.62076054  1
  O  O188  1  0.74117963  0.99740933  0.12755209  1
  O  O189  1  0.74601536  0.98647597  0.62450599  1
  O  O190  1  -0.00913927  0.36303192  0.26233574  1
  O  O191  1  0.00991347  0.36730923  0.73871421  1
  O  O192  1  0.01693521  0.86534680  0.24204635  1
  O  O193  1  -0.00188541  0.85591598  0.75208271  1
  O  O194  1  0.49447252  0.35992438  0.26414170  1
  O  O195  1  0.52316400  0.38836344  0.76832874  1
  O  O196  1  0.49613944  0.86107053  0.24091509  1
  O  O197  1  0.50291259  0.86937852  0.76273566  1
  O  O198  1  0.50973302  0.13086320  0.24061055  1
  O  O199  1  0.48993996  0.12524675  0.74155301  1
  O  O200  1  0.49208364  0.63017932  0.23975912  1
  O  O201  1  0.49072701  0.59674738  0.73654708  1
  O  O202  1  0.98436495  0.13623780  0.25413049  1
  O  O203  1  0.99260832  0.13512738  0.74079938  1
  O  O204  1  1.01173430  0.63973764  0.24733934  1
  O  O205  1  0.99454311  0.62911892  0.74630586  1
  O  O206  1  0.36370618  0.24020004  -0.00412361  1
  O  O207  1  0.36336627  0.26817875  0.48848091  1
  O  O208  1  0.37256775  0.74886731  0.01164894  1
  O  O209  1  0.36122745  0.75228950  0.50191428  1
  O  O210  1  0.87914708  0.25852162  0.00916205  1
  O  O211  1  0.86484375  0.24622265  0.50984847  1
  O  O212  1  0.88320995  0.76233224  0.00722296  1
  O  O213  1  0.87851081  0.75075409  0.52068719  1
  O  O214  1  0.11510450  0.24296314  0.49345382  1
  O  O215  1  0.13350735  0.24274209  0.99595509  1
  O  O216  1  0.13190060  0.73687342  0.50076041  1
  O  O217  1  0.13684077  0.73733454  0.99593835  1
  O  O218  1  0.63975740  0.23124210  0.48983846  1
  O  O219  1  0.62489472  0.23759682  0.99044287  1
  O  O220  1  0.62334397  0.74734989  0.48880853  1
  O  O221  1  0.56669657  0.75535855  0.94309915  1
  O  O222  1  0.51199804  0.24220439  0.13943415  1
  O  O223  1  0.51126766  0.26587518  0.59861219  1
  O  O224  1  0.49956209  0.74257879  0.12759406  1
  O  O225  1  0.48249641  0.75370185  0.62576545  1
  O  O226  1  0.99072414  0.25588608  0.13705170  1
  O  O227  1  0.98638029  0.24467187  0.63163946  1
  O  O228  1  0.99674264  0.74495632  0.13109935  1
  O  O229  1  0.99618315  0.74057954  0.63522174  1
  O  O230  1  0.00167195  0.25623439  0.37073657  1
  O  O231  1  -0.00225029  0.24640735  0.85981797  1
  O  O232  1  -0.00056365  0.76282199  0.35431580  1
  O  O233  1  0.01327258  0.74524603  0.86906267  1
  O  O234  1  0.51104395  0.25640128  0.37481260  1
  O  O235  1  0.51180860  0.25863674  0.88151769  1
  O  O236  1  0.49900987  0.75623064  0.35890352  1
  O  O237  1  0.45748784  0.75590944  0.85115863  1
  O  O238  1  0.23331226  0.13497685  0.51196847  1
  O  O239  1  0.24436577  0.13249945  0.98959274  1
  O  O240  1  0.23442358  0.62880372  0.49758342  1
  O  O241  1  0.24736369  0.63148361  0.99896395  1
  O  O242  1  0.75001296  0.12772818  0.49012654  1
  O  O243  1  0.74401604  0.11820521  0.99005769  1
  O  O244  1  0.73309711  0.63326005  0.50301858  1
  O  O245  1  0.74483735  0.62946429  1.00590733  1
  O  O246  1  0.24980150  0.36772947  0.01103851  1
  O  O247  1  0.24813903  0.38130096  0.51008395  1
  O  O248  1  0.25488594  0.86185984  0.00688420  1
  O  O249  1  0.25220482  0.86054437  0.50282256  1
  O  O250  1  0.76282736  0.37965386  0.01732445  1
  O  O251  1  0.74684274  0.36582407  0.51463641  1
  O  O252  1  0.76744437  0.87922381  -0.00468788  1
  O  O253  1  0.76388358  0.86592887  0.51086307  1
  O  O254  1  0.13782650  0.50745149  0.23395631  1
  O  O255  1  0.14027806  0.49111652  0.75853882  1
  O  O256  1  0.12387092  0.97776329  0.23715023  1
  O  O257  1  0.13535638  1.00883241  0.74187615  1
  O  O258  1  0.63019380  0.49819364  0.24053727  1
  O  O259  1  0.64233244  0.49691676  0.76464327  1
  O  O260  1  0.64093431  0.99423967  0.22927953  1
  O  O261  1  0.62854159  1.00896152  0.73298819  1
  O  O262  1  0.37622968  0.01073943  0.25914686  1
  O  O263  1  0.36506240  0.00920773  0.75031825  1
  O  O264  1  0.36947314  0.50625094  0.25430682  1
  O  O265  1  0.35398657  0.48945367  0.77255069  1
  O  O266  1  0.86323740  0.00778249  0.23323360  1
  O  O267  1  0.88745914  0.00810345  0.76116287  1
  O  O268  1  0.86930905  0.50693944  0.24881906  1
  O  O269  1  0.87769217  0.50481281  0.76475382  1
  O  O270  1  0.10714152  0.36339958  0.38562870  1
  O  O271  1  0.13265915  0.37120743  0.85921841  1
  O  O272  1  0.13046067  0.87239307  0.35975192  1
  O  O273  1  0.13121847  0.85629381  0.88202805  1
  O  O274  1  0.61589188  0.36449363  0.38684558  1
  O  O275  1  0.63277606  0.36707298  0.86881957  1
  O  O276  1  0.61811832  0.85842054  0.38142242  1
  O  O277  1  0.62025620  0.87779275  0.86606382  1
  O  O278  1  0.39714250  0.11908251  0.11765022  1
  O  O279  1  0.37371148  0.12545886  0.62966397  1
  O  O280  1  0.38409319  0.63130564  0.13233091  1
  O  O281  1  0.38155212  0.63460664  0.60842152  1
  O  O282  1  0.86745735  0.13590002  0.12965230  1
  O  O283  1  0.87760645  0.12812167  0.63225885  1
  O  O284  1  0.87975984  0.63997385  0.11198196  1
  O  O285  1  0.88378828  0.63159374  0.63328684  1
  O  O286  1  0.24803109  0.26597947  0.11797786  1
  O  O287  1  0.24675303  0.25912367  0.62414023  1
  O  O288  1  0.26049632  0.75390765  0.11892804  1
  O  O289  1  0.25437375  0.74464375  0.60987405  1
  O  O290  1  0.75849138  0.26175996  0.13109958  1
  O  O291  1  0.75883557  0.25531891  0.61802415  1
  O  O292  1  0.76785894  0.74879629  0.13571054  1
  O  O293  1  0.75964686  0.76059881  0.62940027  1
  O  O294  1  0.22894445  0.26190293  0.37059859  1
  O  O295  1  0.25079417  0.24328586  0.87980531  1
  O  O296  1  0.25021372  0.74679865  0.38656393  1
  O  O297  1  0.25272321  0.73873523  0.88436969  1
  O  O298  1  0.74751038  0.24568668  0.38170930  1
  O  O299  1  0.74409151  0.23483308  0.87142637  1
  O  O300  1  0.73179407  0.75288413  0.36990576  1
  O  O301  1  0.75855172  0.72483330  0.87619465  1
  O  O302  1  0.01304460  0.11594547  -0.00932643  1
  O  O303  1  0.00204265  0.12846761  0.51568558  1
  O  O304  1  0.01731518  0.62823457  0.00057894  1
  O  O305  1  0.01376243  0.62371609  0.50863957  1
  O  O306  1  0.51305675  0.11847358  0.00665471  1
  O  O307  1  0.51794118  0.12136756  0.48672229  1
  O  O308  1  0.49278356  0.60779496  0.01474275  1
  O  O309  1  0.51283918  0.62695445  0.50153874  1
  O  O310  1  0.47779834  0.37646412  0.48453535  1
  O  O311  1  0.50851137  0.38027988  0.99015630  1
  O  O312  1  0.47937383  0.86720565  0.49753957  1
  O  O313  1  0.49538637  0.89578683  1.00831922  1
  O  O314  1  0.99472416  0.38723778  0.49873792  1
  O  O315  1  0.98882176  0.37019257  0.99970353  1
  O  O316  1  0.98503787  0.86633577  0.50041727  1
  O  O317  1  0.99569821  0.88330441  0.99288829  1
  O  O318  1  0.48976739  0.48947946  0.36234954  1
  O  O319  1  0.48960552  0.48865944  0.88891070  1
  O  O320  1  0.51729047  0.99565410  0.36267591  1
  O  O321  1  0.49178394  1.01115262  0.88356438  1
  O  O322  1  0.99484201  0.49224935  0.37890388  1
  O  O323  1  0.98568119  0.50641401  0.87800390  1
  O  O324  1  1.00570226  0.99455018  0.36476325  1
  O  O325  1  0.99251167  0.99766482  0.88167807  1
  O  O326  1  0.00405758  -0.00388434  0.10925311  1
  O  O327  1  0.01377031  0.00943596  0.63808363  1
  O  O328  1  0.01451683  0.50131432  0.13468376  1
  O  O329  1  -0.00768598  0.50970902  0.61473927  1
  O  O330  1  0.51782480  0.00835131  0.11983051  1
  O  O331  1  0.51725914  -0.01738744  0.62470594  1
  O  O332  1  0.50728171  0.50084511  0.12338792  1
  O  O333  1  0.48950895  0.48112326  0.61987002  1
  O  O334  1  0.25736101  0.38131640  0.23228477  1
  O  O335  1  0.24446089  0.37968595  0.73576963  1
  O  O336  1  0.24217837  0.87162945  0.23432571  1
  O  O337  1  0.25218424  0.89246684  0.74906067  1
  O  O338  1  0.76191171  0.38660220  0.23187430  1
  O  O339  1  0.74457147  0.37171978  0.74245588  1
  O  O340  1  0.76115912  0.88493158  0.25059189  1
  O  O341  1  0.75847738  0.87239026  0.73784517  1
  O  O342  1  0.24344769  0.13327532  0.25397009  1
  O  O343  1  0.25904663  0.11985332  0.75479418  1
  O  O344  1  0.26377588  0.61297748  0.23913585  1
  O  O345  1  0.24418524  0.60848708  0.76399477  1
  O  O346  1  0.75993759  0.12212581  0.25642189  1
  O  O347  1  0.76625710  0.12220502  0.76069318  1
  O  O348  1  0.74650503  0.60575161  0.24660497  1
  O  O349  1  0.76267364  0.62732470  0.74105638  1
  O  O350  1  0.36125297  0.12647436  0.41179944  1
  O  O351  1  0.36772949  0.11669616  0.86612736  1
  O  O352  1  0.38401044  0.61625614  0.36254064  1
  O  O353  1  0.36493822  0.60914571  0.88654090  1
  O  O354  1  0.86515846  0.12774769  0.36458769  1
  O  O355  1  0.87105439  0.11777944  0.87165823  1
  O  O356  1  0.87242237  0.65167196  0.37789978  1
  O  O357  1  0.87060608  0.61518003  0.87132428  1
  O  O358  1  0.12669029  0.38754180  0.12044185  1
  O  O359  1  0.13633482  0.37440934  0.63253419  1
  O  O360  1  0.14246198  0.87129007  0.11995116  1
  O  O361  1  0.12423657  0.88970147  0.61833192  1
  O  O362  1  0.63961434  0.37824632  0.12206698  1
  O  O363  1  0.63761940  0.38169935  0.64642305  1
  O  O364  1  0.62611246  0.88181669  0.10899593  1
  O  O365  1  0.64007673  0.88182053  0.61884937  1
  O  O366  1  0.10920913  0.24442744  0.26722278  1
  O  O367  1  0.11526027  0.25699399  0.74963548  1
  O  O368  1  0.11919747  0.76040335  0.23886086  1
  O  O369  1  0.12093092  0.73650508  0.76186361  1
  O  O370  1  0.62093982  0.24320980  0.26578548  1
  O  O371  1  0.61863525  0.24299764  0.76105005  1
  O  O372  1  0.61097172  0.74362290  0.25737752  1
  O  O373  1  0.60885230  0.73863671  0.76841724  1
  O  O374  1  0.38975481  0.23405657  0.26005022  1
  O  O375  1  0.37138225  0.23302712  0.74743654  1
  O  O376  1  0.38863406  0.74077592  0.23714418  1
  O  O377  1  0.35111232  0.74293016  0.72540666  1
  O  O378  1  0.87894072  0.24262494  0.24042921  1
  O  O379  1  0.87910505  0.24316805  0.74414826  1
  O  O380  1  0.89463638  0.75918021  0.23136235  1
  O  O381  1  0.88548349  0.73958224  0.74580663  1
  O  O382  1  0.36130576  0.49379147  0.48089561  1
  O  O383  1  0.38352548  0.49383058  0.99798857  1
  O  O384  1  0.36360792  0.98401677  0.51600069  1
  O  O385  1  0.38488493  1.00376501  0.98815747  1
  O  O386  1  0.88688866  0.50810688  0.49165001  1
  O  O387  1  0.88210758  0.48781789  0.99927145  1
  O  O388  1  0.87302168  0.98498381  0.50037899  1
  O  O389  1  0.88447709  0.99125331  0.99325077  1
  O  O390  1  0.12134348  0.00795459  -0.00247353  1
  O  O391  1  0.12679316  0.01654709  0.51893952  1
  O  O392  1  0.13024494  0.50964346  0.01246458  1
  O  O393  1  0.11257260  0.51449680  0.49253374  1
  O  O394  1  0.62285681  0.00762346  0.00669255  1
  O  O395  1  0.63564963  0.00725353  0.50095068  1
  O  O396  1  0.61611988  0.49364591  0.01482980  1
  O  O397  1  0.62752210  0.51352079  0.49373276  1
  O  O398  1  0.37101775  0.37663131  0.12165843  1
  O  O399  1  0.35674667  0.37617486  0.60622061  1
  O  O400  1  0.36567497  0.86819021  0.12503374  1
  O  O401  1  0.36758158  0.86094320  0.61426013  1
  O  O402  1  0.87170562  0.36766809  0.11445294  1
  O  O403  1  0.86401148  0.36582901  0.62722849  1
  O  O404  1  0.88040550  0.86780572  0.11011857  1
  O  O405  1  0.86886663  0.86944459  0.62047416  1
  O  O406  1  0.12384271  0.13898476  0.39395523  1
  O  O407  1  0.13697260  0.12794578  0.87894733  1
  O  O408  1  0.12113032  0.62729345  0.38105512  1
  O  O409  1  0.13801239  0.62740126  0.88967393  1
  O  O410  1  0.64114464  0.13036082  0.38064909  1
  O  O411  1  0.63304598  0.12696757  0.88033208  1
  O  O412  1  0.61525276  0.64074163  0.38534821  1
  O  O413  1  0.64155668  0.60996581  0.88513038  1
