# generated using pymatgen
data_V79Zn79O256
_symmetry_space_group_name_H-M   'P 1'
_cell_length_a   16.90972638
_cell_length_b   16.88727001
_cell_length_c   16.90114643
_cell_angle_alpha   89.95840742
_cell_angle_beta   89.99846659
_cell_angle_gamma   90.06478940
_symmetry_Int_Tables_number   1
_chemical_formula_structural   V79Zn79O256
_chemical_formula_sum   'V79 Zn79 O256'
_cell_volume   4826.27206070
_cell_formula_units_Z   1
loop_
 _symmetry_equiv_pos_site_id
 _symmetry_equiv_pos_as_xyz
  1  'x, y, z'
loop_
 _atom_site_type_symbol
 _atom_site_label
 _atom_site_symmetry_multiplicity
 _atom_site_fract_x
 _atom_site_fract_y
 _atom_site_fract_z
 _atom_site_occupancy
  V  V0  1  -0.00796477  0.48996598  0.50214245  1
  V  V1  1  0.12181257  0.62117948  0.00550757  1
  V  V2  1  0.87479406  0.00195375  0.36337392  1
  V  V3  1  0.49720231  0.74835329  0.75420879  1
  V  V4  1  0.75227439  0.36421111  0.60934372  1
  V  V5  1  0.50315679  0.62345459  0.12959662  1
  V  V6  1  0.37787015  0.38285371  -0.00618916  1
  V  V7  1  0.74731681  -0.00034914  0.75010739  1
  V  V8  1  0.13825938  0.75345804  0.87958117  1
  V  V9  1  0.62257807  0.77159985  0.37424206  1
  V  V10  1  0.50263526  0.49890615  -0.01069460  1
  V  V11  1  0.74170257  0.63297896  0.88756439  1
  V  V12  1  0.63341993  0.37044750  0.75703617  1
  V  V13  1  0.12120637  0.38805156  0.25422697  1
  V  V14  1  0.12552603  0.12802496  -0.00405718  1
  V  V15  1  0.25001282  0.37927245  0.64514448  1
  V  V16  1  0.12187571  0.74870712  0.37236867  1
  V  V17  1  0.37472048  0.00387478  0.86708585  1
  V  V18  1  0.00895647  0.00091262  0.51040929  1
  V  V19  1  0.86502042  0.49874895  0.87585163  1
  V  V20  1  0.12474798  0.12955945  0.50885216  1
  V  V21  1  0.00002355  0.87201143  0.37005160  1
  V  V22  1  0.62910759  0.25826965  0.37162912  1
  V  V23  1  0.63868269  0.12521570  0.50280538  1
  V  V24  1  0.37787373  0.87273149  0.49606171  1
  V  V25  1  0.49286106  0.25364683  0.74641898  1
  V  V26  1  0.87458602  -0.00318684  0.87802107  1
  V  V27  1  0.50436606  0.01704732  0.00826148  1
  V  V28  1  0.49862813  0.76162336  0.25687502  1
  V  V29  1  0.24886819  0.87235114  0.12081112  1
  V  V30  1  0.37428359  0.74998925  0.12315617  1
  V  V31  1  0.37820555  0.24871933  0.12437719  1
  V  V32  1  0.25445565  0.13065531  0.86802559  1
  V  V33  1  0.25007467  0.74809635  0.50400068  1
  V  V34  1  0.25716674  0.60699008  0.88013193  1
  V  V35  1  0.50094670  0.87310344  0.88048353  1
  V  V36  1  0.87532831  0.76346631  0.13337584  1
  V  V37  1  0.38108372  0.12724771  0.24783825  1
  V  V38  1  0.74457011  0.37485510  0.14155178  1
  V  V39  1  0.24529362  0.00402473  0.74503070  1
  V  V40  1  0.49966083  0.61668044  0.62474500  1
  V  V41  1  0.50092723  0.26668329  0.25480160  1
  V  V42  1  0.24036716  0.38707371  0.12780684  1
  V  V43  1  -0.00954057  0.62467605  0.14353947  1
  V  V44  1  0.00154676  -0.00024661  -0.00358465  1
  V  V45  1  0.37620942  -0.00094148  0.37290032  1
  V  V46  1  -0.00115993  0.36492342  0.86628651  1
  V  V47  1  0.74013847  0.12540128  0.87927912  1
  V  V48  1  0.37013796  0.61554153  0.25281738  1
  V  V49  1  0.75540761  0.12073312  0.35715168  1
  V  V50  1  0.87554369  0.87578095  0.50001140  1
  V  V51  1  0.12601468  0.87214268  0.24818784  1
  V  V52  1  0.87257663  0.37501953  0.00316177  1
  V  V53  1  0.86425624  0.62041510  0.75308465  1
  V  V54  1  0.12137479  0.61954399  0.50656581  1
  V  V55  1  0.87432359  0.74844361  0.62526980  1
  V  V56  1  0.24969456  0.61446860  0.37476949  1
  V  V57  1  0.62304554  0.86851675  0.75360305  1
  V  V58  1  0.87222022  0.50433857  0.36650729  1
  V  V59  1  0.88272195  0.24856879  0.61054143  1
  V  V60  1  0.24211606  0.88053550  0.62258159  1
  V  V61  1  0.74076924  0.24646061  0.00137877  1
  V  V62  1  -0.00126828  0.74743562  0.75381494  1
  V  V63  1  0.74863785  0.87173992  0.62309447  1
  V  V64  1  0.49973382  -0.00112009  0.49621795  1
  V  V65  1  0.63361898  0.49729771  0.62781754  1
  V  V66  1  0.00733047  0.24048761  0.25408512  1
  V  V67  1  0.37035884  0.87322848  -0.00259651  1
  V  V68  1  0.48438656  0.12825380  0.62675754  1
  V  V69  1  0.26371454  0.26019413  0.50214890  1
  V  V70  1  0.88006667  0.13353958  0.74600451  1
  V  V71  1  0.87401535  0.24109267  0.13403270  1
  V  V72  1  0.37525201  0.60440614  0.75624636  1
  V  V73  1  0.24252054  0.13380517  0.37075323  1
  V  V74  1  0.38823772  0.49080706  0.39219318  1
  V  V75  1  0.24644409  0.25275300  -0.00479135  1
  V  V76  1  0.74602670  0.52258021  0.25441304  1
  V  V77  1  -0.00642497  0.87307725  0.88023195  1
  V  V78  1  0.62508726  0.61793807  0.48985870  1
  Zn  Zn79  1  0.14875531  0.30454966  0.80191011  1
  Zn  Zn80  1  -0.00347446  0.61814228  0.62911579  1
  Zn  Zn81  1  0.11801755  0.88960060  0.74431504  1
  Zn  Zn82  1  0.25074760  0.00186882  0.24707703  1
  Zn  Zn83  1  0.12631131  0.00101837  0.12399204  1
  Zn  Zn84  1  -0.00346604  0.12074673  0.12707185  1
  Zn  Zn85  1  -0.00447843  0.36702738  0.38002178  1
  Zn  Zn86  1  0.00241476  0.49547226  0.00869122  1
  Zn  Zn87  1  0.62169856  -0.00095917  0.62459757  1
  Zn  Zn88  1  0.61411821  0.66341975  -0.00310546  1
  Zn  Zn89  1  0.62204483  0.49947410  0.13064300  1
  Zn  Zn90  1  0.75417278  0.74419098  0.48431387  1
  Zn  Zn91  1  0.11134825  0.47278013  0.65762637  1
  Zn  Zn92  1  0.61496732  0.25016148  0.88246022  1
  Zn  Zn93  1  0.37405049  0.74373666  0.62552505  1
  Zn  Zn94  1  0.18724656  0.19281419  0.18158422  1
  Zn  Zn95  1  0.20011817  0.18811714  0.67825787  1
  Zn  Zn96  1  0.18787842  0.68485277  0.18729807  1
  Zn  Zn97  1  0.16543399  0.63962247  0.71624012  1
  Zn  Zn98  1  0.68616980  0.18837246  0.19058761  1
  Zn  Zn99  1  0.68896580  0.18907736  0.68806317  1
  Zn  Zn100  1  0.68387239  0.70100063  0.18475993  1
  Zn  Zn101  1  0.68596341  0.68531685  0.68916856  1
  Zn  Zn102  1  0.30810385  0.31741948  0.31208177  1
  Zn  Zn103  1  0.32846596  0.32272221  0.80701176  1
  Zn  Zn104  1  0.30965669  0.80872061  0.31254989  1
  Zn  Zn105  1  0.31364037  0.81607140  0.80460737  1
  Zn  Zn106  1  0.81948929  0.31229864  0.32314729  1
  Zn  Zn107  1  0.80956966  0.31162247  0.81255244  1
  Zn  Zn108  1  0.81548274  0.80625232  0.30995117  1
  Zn  Zn109  1  0.81037583  0.80898448  0.81403686  1
  Zn  Zn110  1  0.18159592  0.43495257  0.43858630  1
  Zn  Zn111  1  0.18324592  0.43625724  0.94020805  1
  Zn  Zn112  1  0.19027932  0.94000695  0.43470778  1
  Zn  Zn113  1  0.18602650  0.93976285  0.93208416  1
  Zn  Zn114  1  0.68814755  0.44155801  0.43643934  1
  Zn  Zn115  1  0.68526986  0.44000921  0.94337518  1
  Zn  Zn116  1  0.68994154  0.94120116  0.43541603  1
  Zn  Zn117  1  0.67764615  0.93924546  0.94116927  1
  Zn  Zn118  1  0.31517476  0.06149200  0.05896734  1
  Zn  Zn119  1  0.30956905  0.06357933  0.55774304  1
  Zn  Zn120  1  0.31262801  0.56541386  0.05946817  1
  Zn  Zn121  1  0.30843168  0.55464782  0.57038723  1
  Zn  Zn122  1  0.80965461  0.05975446  0.06150388  1
  Zn  Zn123  1  0.81980117  0.05979112  0.56152018  1
  Zn  Zn124  1  0.81474766  0.56561744  0.06755999  1
  Zn  Zn125  1  0.80884073  0.56210695  0.56088327  1
  Zn  Zn126  1  0.43008913  0.43854402  0.18596348  1
  Zn  Zn127  1  0.45569108  0.40803697  0.62063601  1
  Zn  Zn128  1  0.43845608  0.93996702  0.18411599  1
  Zn  Zn129  1  0.43416578  0.93677060  0.68242681  1
  Zn  Zn130  1  0.93692091  0.43843733  0.18757156  1
  Zn  Zn131  1  0.92917910  0.43398425  0.68810092  1
  Zn  Zn132  1  0.94142066  0.93742939  0.18458728  1
  Zn  Zn133  1  0.93595734  0.93772276  0.69137944  1
  Zn  Zn134  1  0.06299652  0.05628143  0.31432871  1
  Zn  Zn135  1  0.08501772  0.11171829  0.78320242  1
  Zn  Zn136  1  0.06179449  0.55946917  0.31822173  1
  Zn  Zn137  1  0.04941473  0.55722755  0.82663667  1
  Zn  Zn138  1  0.56097778  0.07188270  0.31345590  1
  Zn  Zn139  1  0.55834379  0.06230276  0.81055218  1
  Zn  Zn140  1  0.55897582  0.55917737  0.31060517  1
  Zn  Zn141  1  0.56604398  0.55763164  0.80837130  1
  Zn  Zn142  1  0.44151284  0.18898771  0.43616751  1
  Zn  Zn143  1  0.43476564  0.19416394  0.93252225  1
  Zn  Zn144  1  0.44024642  0.68157635  0.43727613  1
  Zn  Zn145  1  0.43735090  0.68701086  0.93950399  1
  Zn  Zn146  1  0.93957822  0.18310891  0.43555783  1
  Zn  Zn147  1  0.92932960  0.18512909  0.93909578  1
  Zn  Zn148  1  0.93684873  0.68298475  0.43664083  1
  Zn  Zn149  1  0.93032158  0.69061355  0.94715515  1
  Zn  Zn150  1  0.05928822  0.31011564  0.06471021  1
  Zn  Zn151  1  0.06788285  0.30588752  0.56766886  1
  Zn  Zn152  1  0.05704288  0.80586080  0.06267664  1
  Zn  Zn153  1  0.06117459  0.80860234  0.56226161  1
  Zn  Zn154  1  0.56055969  0.31602162  0.06760310  1
  Zn  Zn155  1  0.57099756  0.30528328  0.55804632  1
  Zn  Zn156  1  0.75376538  0.76985000  0.01209493  1
  Zn  Zn157  1  0.56169084  0.80697789  0.56366071  1
  O  O158  1  0.12740866  0.12185244  0.10898077  1
  O  O159  1  0.13610932  0.11611083  0.60616569  1
  O  O160  1  0.11763376  0.63751332  0.11038105  1
  O  O161  1  0.12046001  0.63384645  0.60993793  1
  O  O162  1  0.62597510  0.08848295  0.15743404  1
  O  O163  1  0.62656021  0.12255856  0.61007481  1
  O  O164  1  0.61132102  0.62990904  0.12472317  1
  O  O165  1  0.61936525  0.61546532  0.62618211  1
  O  O166  1  0.36559435  0.39450171  0.36902338  1
  O  O167  1  0.37266187  0.37760495  0.89417321  1
  O  O168  1  0.36624501  0.88529694  0.38480895  1
  O  O169  1  0.37912698  0.88129481  0.87911697  1
  O  O170  1  0.87964298  0.39191244  0.37550877  1
  O  O171  1  0.87547526  0.37965177  0.88274376  1
  O  O172  1  0.88129060  0.87958948  0.37902881  1
  O  O173  1  0.88042201  0.88524197  0.86920897  1
  O  O174  1  0.26127015  0.01164072  0.37389452  1
  O  O175  1  0.25705215  0.00667350  0.86642485  1
  O  O176  1  0.25159956  0.51263323  0.38164319  1
  O  O177  1  0.25035307  0.50843858  0.87791780  1
  O  O178  1  0.75886727  0.01018158  0.37570341  1
  O  O179  1  0.75450260  0.00349415  0.86926361  1
  O  O180  1  0.75806141  0.49783546  0.36318936  1
  O  O181  1  0.75885065  0.50758694  0.88011772  1
  O  O182  1  0.25515466  0.48566137  0.12285477  1
  O  O183  1  0.23682220  0.48302253  0.62465055  1
  O  O184  1  0.25015834  0.98614098  0.12535393  1
  O  O185  1  0.25842432  0.99180129  0.63156081  1
  O  O186  1  0.75425495  0.49006833  0.14059800  1
  O  O187  1  0.74168577  0.48711124  0.62203337  1
  O  O188  1  0.75417674  0.95920870  0.08408413  1
  O  O189  1  0.75235771  0.98830522  0.63331440  1
  O  O190  1  0.01121771  0.36746365  0.24383622  1
  O  O191  1  -0.00616224  0.37844310  0.76636419  1
  O  O192  1  0.01257139  0.87905748  0.26150982  1
  O  O193  1  0.00135673  0.86683622  0.75849187  1
  O  O194  1  0.49632191  0.36576130  0.25108117  1
  O  O195  1  0.51475100  0.35651727  0.72887515  1
  O  O196  1  0.49170475  0.86073885  0.24729567  1
  O  O197  1  0.50424082  0.86990647  0.75479233  1
  O  O198  1  0.48420741  0.13644434  0.25420514  1
  O  O199  1  0.50657168  0.12960904  0.73240955  1
  O  O200  1  0.48929483  0.63062404  0.24589150  1
  O  O201  1  0.49472999  0.63050966  0.74828450  1
  O  O202  1  1.00872752  0.13521905  0.24814311  1
  O  O203  1  0.97654103  0.11169051  0.75228693  1
  O  O204  1  1.00767271  0.62568976  0.24191885  1
  O  O205  1  0.98320997  0.63475512  0.75530197  1
  O  O206  1  0.36954646  0.25946216  0.00687921  1
  O  O207  1  0.36266061  0.24731846  0.49369047  1
  O  O208  1  0.38313435  0.76097572  0.01173862  1
  O  O209  1  0.36845778  0.75663322  0.49569391  1
  O  O210  1  0.86261577  0.25615660  0.01080313  1
  O  O211  1  0.87526305  0.24067402  0.51078540  1
  O  O212  1  0.86574647  0.74952562  0.01588026  1
  O  O213  1  0.87252653  0.75586433  0.50463035  1
  O  O214  1  0.12915306  0.23328671  0.49801466  1
  O  O215  1  0.13721279  0.24416487  1.00408593  1
  O  O216  1  0.13061351  0.74386500  0.49046328  1
  O  O217  1  0.12063837  0.74362492  0.98400804  1
  O  O218  1  0.62121133  0.23173030  0.48303732  1
  O  O219  1  0.63517963  0.25660674  1.00129173  1
  O  O220  1  0.62305077  0.74617628  0.48463976  1
  O  O221  1  0.64330702  0.77077755  1.00625023  1
  O  O222  1  0.48906013  0.25570057  0.13817650  1
  O  O223  1  0.50839890  0.23262782  0.62878756  1
  O  O224  1  0.48623125  0.73972245  0.14186146  1
  O  O225  1  0.49887859  0.73815053  0.63538441  1
  O  O226  1  0.99030013  0.24415332  0.13204339  1
  O  O227  1  0.98149805  0.25592486  0.62412401  1
  O  O228  1  0.99029229  0.73411790  0.11920556  1
  O  O229  1  0.99278345  0.74919009  0.63670638  1
  O  O230  1  -0.00674645  0.25029963  0.35874281  1
  O  O231  1  -0.01360702  0.26507152  0.87947795  1
  O  O232  1  0.00995704  0.76064670  0.38447076  1
  O  O233  1  -0.00363230  0.75826067  0.87043332  1
  O  O234  1  0.51248542  0.24642325  0.36432344  1
  O  O235  1  0.50303950  0.24209397  0.85468693  1
  O  O236  1  0.50590948  0.74795267  0.36543178  1
  O  O237  1  0.49481329  0.76081165  0.86748764  1
  O  O238  1  0.24298582  0.13104797  0.48950241  1
  O  O239  1  0.24749342  0.13419100  0.99223581  1
  O  O240  1  0.24276509  0.63089063  0.49576217  1
  O  O241  1  0.24111003  0.62510975  0.98973019  1
  O  O242  1  0.73986937  0.11790043  0.49618636  1
  O  O243  1  0.75276327  0.13385722  0.99193556  1
  O  O244  1  0.73046286  0.63246289  0.50984583  1
  O  O245  1  0.74338786  0.61929710  0.99173581  1
  O  O246  1  0.25398145  0.37102048  0.00847979  1
  O  O247  1  0.24605670  0.36111333  0.49608561  1
  O  O248  1  0.25969185  0.88003164  0.00531238  1
  O  O249  1  0.25585849  0.87027256  0.50307879  1
  O  O250  1  0.75663897  0.36746363  0.00864197  1
  O  O251  1  0.74785203  0.37449638  0.51019827  1
  O  O252  1  0.75760809  0.90914197  0.02131473  1
  O  O253  1  0.75493475  0.87556916  0.50918489  1
  O  O254  1  0.12041989  0.48780038  0.24779617  1
  O  O255  1  0.12140892  0.53724352  0.74635355  1
  O  O256  1  0.12915013  0.98663569  0.24624136  1
  O  O257  1  0.13996189  1.00743686  0.75408380  1
  O  O258  1  0.64133078  0.50451063  0.25100722  1
  O  O259  1  0.61952357  0.48176768  0.73929016  1
  O  O260  1  0.61884722  1.03505083  0.21373493  1
  O  O261  1  0.63371624  0.99106080  0.74711368  1
  O  O262  1  0.37492862  0.00838329  0.25656015  1
  O  O263  1  0.36647325  -0.00761557  0.76014447  1
  O  O264  1  0.37507764  0.51233337  0.25809121  1
  O  O265  1  0.38083907  0.50853823  0.75564032  1
  O  O266  1  0.88454305  -0.00273895  0.26372922  1
  O  O267  1  0.86265980  0.00432327  0.75624231  1
  O  O268  1  0.86444972  0.49999121  0.25897347  1
  O  O269  1  0.87800382  0.51052649  0.76107318  1
  O  O270  1  0.12111736  0.37607700  0.35799991  1
  O  O271  1  0.10595075  0.37504741  0.88113855  1
  O  O272  1  0.12142732  0.86861407  0.36924825  1
  O  O273  1  0.11692147  0.86423356  0.86983224  1
  O  O274  1  0.63447555  0.35629277  0.37966113  1
  O  O275  1  0.63043636  0.37501642  0.86076667  1
  O  O276  1  0.61703864  0.87107958  0.37791914  1
  O  O277  1  0.61440448  0.88154684  0.86297926  1
  O  O278  1  0.36179594  0.13873561  0.13495296  1
  O  O279  1  0.38535306  0.12483488  0.61996333  1
  O  O280  1  0.37684503  0.63196174  0.13276397  1
  O  O281  1  0.38144081  0.62212012  0.63591445  1
  O  O282  1  0.87190298  0.13532859  0.12198110  1
  O  O283  1  0.86464809  0.13585124  0.63569225  1
  O  O284  1  0.88610470  0.63070941  0.12966174  1
  O  O285  1  0.87145473  0.62971935  0.63547761  1
  O  O286  1  0.25819378  0.25906425  0.11362940  1
  O  O287  1  0.25147090  0.26033712  0.60879545  1
  O  O288  1  0.26320494  0.75944996  0.13187138  1
  O  O289  1  0.25275255  0.75821490  0.60936454  1
  O  O290  1  0.75217234  0.25649186  0.12338151  1
  O  O291  1  0.75378242  0.25883069  0.62143402  1
  O  O292  1  0.76618742  0.75456553  0.13157235  1
  O  O293  1  0.75394680  0.76192812  0.62873593  1
  O  O294  1  0.25182897  0.23881730  0.38179579  1
  O  O295  1  0.25670321  0.24682575  0.88306267  1
  O  O296  1  0.24200605  0.74324942  0.38615608  1
  O  O297  1  0.23845394  0.75749658  0.87319828  1
  O  O298  1  0.73920294  0.23536767  0.36466825  1
  O  O299  1  0.74836647  0.24212569  0.88560052  1
  O  O300  1  0.72946389  0.75947451  0.36797586  1
  O  O301  1  0.75656829  0.73662081  0.88403399  1
  O  O302  1  0.00965035  0.11872714  -0.00586585  1
  O  O303  1  0.01342314  0.11186747  0.49255025  1
  O  O304  1  0.01490000  0.62355171  -0.00673018  1
  O  O305  1  0.00559265  0.61474513  0.50308522  1
  O  O306  1  0.49089561  0.11658577  -0.00646816  1
  O  O307  1  0.50633120  0.11714935  0.50828139  1
  O  O308  1  0.50185283  0.61745844  0.00834129  1
  O  O309  1  0.51435805  0.63429372  0.51388064  1
  O  O310  1  0.49804164  0.37806490  0.52250848  1
  O  O311  1  0.49194995  0.38870454  1.00985314  1
  O  O312  1  0.49028581  0.88628006  0.50932969  1
  O  O313  1  0.48594712  0.88827549  0.98676829  1
  O  O314  1  1.01060164  0.38745672  0.49901330  1
  O  O315  1  0.98513979  0.37341838  0.99950958  1
  O  O316  1  0.99828038  0.88337699  0.49178414  1
  O  O317  1  1.00834881  0.88466910  0.98858794  1
  O  O318  1  0.48751308  0.50261527  0.37729474  1
  O  O319  1  0.50339485  0.50489429  0.89060450  1
  O  O320  1  0.48895533  1.01040723  0.38387776  1
  O  O321  1  0.49025304  0.99414235  0.87520759  1
  O  O322  1  0.98974367  0.49736141  0.38475194  1
  O  O323  1  0.98289600  0.48760449  0.88762996  1
  O  O324  1  0.99472669  0.98968237  0.38307834  1
  O  O325  1  0.99129399  0.98943875  0.87906499  1
  O  O326  1  0.00257180  0.00296755  0.11047291  1
  O  O327  1  -0.00341052  -0.00685067  0.60967620  1
  O  O328  1  -0.00643428  0.51749971  0.12272352  1
  O  O329  1  -0.00187320  0.49734968  0.61467705  1
  O  O330  1  0.48606686  0.00397822  0.10722104  1
  O  O331  1  0.50053606  0.01056461  0.61662712  1
  O  O332  1  0.50001939  0.51228075  0.12839103  1
  O  O333  1  0.51169777  0.51176049  0.62901673  1
  O  O334  1  0.23442939  0.36624454  0.23587648  1
  O  O335  1  0.23831697  0.36267544  0.75055979  1
  O  O336  1  0.24316798  0.87574457  0.24193748  1
  O  O337  1  0.24557954  0.88385556  0.73951721  1
  O  O338  1  0.75292346  0.36964341  0.24113966  1
  O  O339  1  0.73771250  0.36905751  0.74080705  1
  O  O340  1  0.74010412  0.90063436  0.24432767  1
  O  O341  1  0.74248604  0.87938754  0.74592957  1
  O  O342  1  0.25550628  0.12924408  0.25934200  1
  O  O343  1  0.25453620  0.11833493  0.75771670  1
  O  O344  1  0.25826555  0.63370388  0.26296423  1
  O  O345  1  0.26376611  0.63267355  0.77126092  1
  O  O346  1  0.75311286  0.12028737  0.25827112  1
  O  O347  1  0.75413579  0.11486510  0.75562917  1
  O  O348  1  0.74904309  0.62027533  0.24688479  1
  O  O349  1  0.75840391  0.63238505  0.76365300  1
  O  O350  1  0.36560798  0.11933423  0.36817577  1
  O  O351  1  0.36345989  0.11609561  0.87909014  1
  O  O352  1  0.36800576  0.61678132  0.37187960  1
  O  O353  1  0.36357961  0.62691132  0.87533799  1
  O  O354  1  0.86148051  0.11812755  0.37987083  1
  O  O355  1  0.86252484  0.11766438  0.86419979  1
  O  O356  1  0.87592638  0.60635475  0.37977124  1
  O  O357  1  0.86508412  0.61734009  0.87389396  1
  O  O358  1  0.13521057  0.37555693  0.12528133  1
  O  O359  1  0.13828105  0.36635924  0.62973090  1
  O  O360  1  0.13215319  0.86769191  0.13123233  1
  O  O361  1  0.13677640  0.87009417  0.62536771  1
  O  O362  1  0.64190383  0.37663594  0.12599672  1
  O  O363  1  0.63880473  0.37674992  0.62867733  1
  O  O364  1  0.68343878  0.88193398  0.20124221  1
  O  O365  1  0.63155397  0.87627236  0.63270211  1
  O  O366  1  0.11079998  0.25775036  0.24084904  1
  O  O367  1  0.11649419  0.21574647  0.74708088  1
  O  O368  1  0.13214363  0.75812177  0.26335126  1
  O  O369  1  0.11072915  0.73899703  0.76694252  1
  O  O370  1  0.61080624  0.24522851  0.25772233  1
  O  O371  1  0.62222747  0.25830055  0.75215823  1
  O  O372  1  0.60908512  0.74748199  0.26227212  1
  O  O373  1  0.61349465  0.75956297  0.74617139  1
  O  O374  1  0.38250960  0.24868804  0.24661422  1
  O  O375  1  0.39279936  0.25226434  0.74578043  1
  O  O376  1  0.38232637  0.74154010  0.24956214  1
  O  O377  1  0.38741464  0.74838492  0.74695180  1
  O  O378  1  0.88854619  0.25759812  0.24106192  1
  O  O379  1  0.86973478  0.23614101  0.74729209  1
  O  O380  1  0.88156203  0.75691538  0.23750746  1
  O  O381  1  0.88044662  0.74420208  0.74625844  1
  O  O382  1  0.37346971  0.50371359  0.49193784  1
  O  O383  1  0.39090976  0.49567113  1.01022480  1
  O  O384  1  0.38064103  0.99416085  0.49191425  1
  O  O385  1  0.37790967  0.99295753  0.98647040  1
  O  O386  1  0.88681424  0.50134406  0.49657177  1
  O  O387  1  0.86983064  0.48805024  0.99655380  1
  O  O388  1  0.88810561  0.99592939  0.49101668  1
  O  O389  1  0.88811327  1.01254690  0.98537940  1
  O  O390  1  0.11732585  0.00721858  -0.00228372  1
  O  O391  1  0.11465859  0.00379193  0.49474861  1
  O  O392  1  0.12319386  0.51663831  -0.00221201  1
  O  O393  1  0.11089202  0.50966925  0.49403231  1
  O  O394  1  0.60367882  0.00326921  -0.00345216  1
  O  O395  1  0.61647084  0.00977622  0.49777964  1
  O  O396  1  0.60935822  0.49635618  0.01012996  1
  O  O397  1  0.62764650  0.51230639  0.50722606  1
  O  O398  1  0.36243207  0.36667666  0.12132258  1
  O  O399  1  0.35057146  0.37793314  0.63959436  1
  O  O400  1  0.36783237  0.86929788  0.11773829  1
  O  O401  1  0.36486881  0.87129286  0.61179832  1
  O  O402  1  0.86384504  0.36695153  0.12048094  1
  O  O403  1  0.86112173  0.36129790  0.63047882  1
  O  O404  1  0.88987371  0.86347648  0.12000822  1
  O  O405  1  0.86723396  0.86968028  0.62162402  1
  O  O406  1  0.13997257  0.11707976  0.37909276  1
  O  O407  1  0.14169643  0.12250607  0.88729397  1
  O  O408  1  0.13021320  0.63152120  0.38253000  1
  O  O409  1  0.13858481  0.63561538  0.88373424  1
  O  O410  1  0.63920006  0.12436294  0.38092316  1
  O  O411  1  0.63757704  0.12515278  0.86738658  1
  O  O412  1  0.61984117  0.62434148  0.38903696  1
  O  O413  1  0.63884777  0.62126947  0.87450804  1
