# generated using pymatgen
data_V79Zn79O256
_symmetry_space_group_name_H-M   'P 1'
_cell_length_a   16.93838113
_cell_length_b   16.94557770
_cell_length_c   16.94952936
_cell_angle_alpha   89.98808548
_cell_angle_beta   90.21312443
_cell_angle_gamma   90.10230377
_symmetry_Int_Tables_number   1
_chemical_formula_structural   V79Zn79O256
_chemical_formula_sum   'V79 Zn79 O256'
_cell_volume   4864.99297604
_cell_formula_units_Z   1
loop_
 _symmetry_equiv_pos_site_id
 _symmetry_equiv_pos_as_xyz
  1  'x, y, z'
loop_
 _atom_site_type_symbol
 _atom_site_label
 _atom_site_symmetry_multiplicity
 _atom_site_fract_x
 _atom_site_fract_y
 _atom_site_fract_z
 _atom_site_occupancy
  V  V0  1  0.88633046  0.37983002  0.48419905  1
  V  V1  1  0.36002101  0.37083027  0.00215985  1
  V  V2  1  0.36184355  0.49480509  0.37198147  1
  V  V3  1  0.36313901  0.11026948  0.75851081  1
  V  V4  1  -0.00157925  0.24665417  0.73742480  1
  V  V5  1  -0.00415120  0.87754085  0.88370872  1
  V  V6  1  0.87584822  0.74739787  0.62326054  1
  V  V7  1  0.12695527  0.75387239  0.88274607  1
  V  V8  1  0.01453017  0.52569842  0.48768134  1
  V  V9  1  0.13025100  0.88808713  0.75390078  1
  V  V10  1  0.37746172  0.87906978  0.50168879  1
  V  V11  1  0.76080623  0.50252185  0.25294006  1
  V  V12  1  -0.00150647  0.37344703  0.87088802  1
  V  V13  1  0.62766574  0.74388501  0.88043780  1
  V  V14  1  0.76004283  0.75739320  -0.00267730  1
  V  V15  1  0.62276269  0.60776975  0.50383840  1
  V  V16  1  0.50165736  0.38132747  0.37965934  1
  V  V17  1  0.27305296  0.66934037  0.37607933  1
  V  V18  1  -0.00046342  0.00783175  0.00415283  1
  V  V19  1  0.36954427  0.62327351  0.75101887  1
  V  V20  1  0.62250680  0.37949285  0.73877768  1
  V  V21  1  0.62591144  0.37711407  0.24993544  1
  V  V22  1  0.62292583  0.50400587  0.12047865  1
  V  V23  1  0.50258363  0.74842790  0.74935915  1
  V  V24  1  0.62452975  0.25117796  0.87541235  1
  V  V25  1  0.36933175  0.24528167  0.62374898  1
  V  V26  1  0.37172494  0.75349617  0.62340679  1
  V  V27  1  0.13722525  -0.00247503  0.13274301  1
  V  V28  1  0.00525050  0.26462520  0.25527436  1
  V  V29  1  0.36599821  0.49827083  0.87226977  1
  V  V30  1  0.75386862  0.24915414  0.50452511  1
  V  V31  1  0.37644457  0.00191249  0.37943847  1
  V  V32  1  0.75053174  0.37630446  0.12303240  1
  V  V33  1  0.87288985  0.38112893  -0.00685806  1
  V  V34  1  -0.00342180  0.86332290  0.35773202  1
  V  V35  1  0.13967864  0.86229349  0.24627212  1
  V  V36  1  0.37714337  0.37447954  0.50134850  1
  V  V37  1  0.88108415  0.00443726  0.37383582  1
  V  V38  1  0.25212765  0.88778549  0.62761853  1
  V  V39  1  0.00061106  0.74981027  0.74754114  1
  V  V40  1  0.77058830  0.37797490  0.62649779  1
  V  V41  1  0.49429953  0.88097355  0.87709514  1
  V  V42  1  0.62719364  0.87653415  0.74534592  1
  V  V43  1  0.51472519  0.12157738  0.62256167  1
  V  V44  1  0.50629527  0.60970669  0.62727528  1
  V  V45  1  0.87729660  0.61796517  0.74637930  1
  V  V46  1  0.88146943  0.87968287  0.49859193  1
  V  V47  1  0.74708015  0.00156377  0.74537503  1
  V  V48  1  0.49466165  0.62935338  0.13033103  1
  V  V49  1  0.50105311  0.50313412  -0.00027411  1
  V  V50  1  0.87419968  -0.00200094  0.87967043  1
  V  V51  1  -0.00121912  0.12367979  0.12987278  1
  V  V52  1  0.74446316  0.12154561  0.37853411  1
  V  V53  1  0.75528076  0.62356178  0.37068423  1
  V  V54  1  0.10855293  0.11993484  0.49978015  1
  V  V55  1  -0.00194657  0.50311598  -0.00489850  1
  V  V56  1  0.50334957  0.12017541  0.12450025  1
  V  V57  1  0.24777745  0.63024182  0.87736703  1
  V  V58  1  0.36666801  0.12128328  0.25163175  1
  V  V59  1  0.51524889  0.00066929  0.50308813  1
  V  V60  1  0.62594211  0.24536652  0.38067574  1
  V  V61  1  0.10721115  0.00638495  0.62158189  1
  V  V62  1  0.87632188  0.12818792  0.73628235  1
  V  V63  1  0.87214893  0.75296301  0.14022575  1
  V  V64  1  0.74817995  0.87726245  0.62083010  1
  V  V65  1  0.61163312  0.86862391  0.24940965  1
  V  V66  1  0.12020700  0.62386797  0.00661987  1
  V  V67  1  0.49875625  0.37504300  0.87562518  1
  V  V68  1  0.35748085  0.87045772  0.01753039  1
  V  V69  1  0.24811947  0.11873025  0.38235863  1
  V  V70  1  0.75010863  0.25243593  -0.00006969  1
  V  V71  1  0.75014263  0.12621924  0.87464823  1
  V  V72  1  0.13394530  0.23970896  0.88774846  1
  V  V73  1  0.62442662  0.11830555  0.00418874  1
  V  V74  1  0.49772350  0.24941700  0.24908076  1
  V  V75  1  0.35924807  0.25149153  0.12160713  1
  V  V76  1  -0.01034935  0.62640111  0.13761281  1
  V  V77  1  0.75383674  0.61460928  0.87774228  1
  V  V78  1  0.49750318  0.24672102  0.75073100  1
  Zn  Zn79  1  0.60895519  0.74885818  0.37648495  1
  Zn  Zn80  1  0.13222079  0.52776502  0.63455075  1
  Zn  Zn81  1  0.74352452  0.74873854  0.49653863  1
  Zn  Zn82  1  0.87069802  0.12790986  0.24818700  1
  Zn  Zn83  1  0.73407491  0.00328405  0.24144915  1
  Zn  Zn84  1  0.12345673  0.25949422  0.37491783  1
  Zn  Zn85  1  0.13913791  0.38239711  0.74827447  1
  Zn  Zn86  1  0.24317287  0.24843713  0.50274331  1
  Zn  Zn87  1  0.15323703  0.65758633  0.50102713  1
  Zn  Zn88  1  0.74016950  0.88839137  0.12089012  1
  Zn  Zn89  1  0.37047501  0.60203095  0.24172364  1
  Zn  Zn90  1  0.25271543  0.38792788  0.63192039  1
  Zn  Zn91  1  0.73850500  0.50546268  0.73959753  1
  Zn  Zn92  1  0.87736251  0.25299520  0.12601618  1
  Zn  Zn93  1  0.49803357  -0.00128427  -0.00235943  1
  Zn  Zn94  1  0.18106733  0.18116822  0.18874330  1
  Zn  Zn95  1  0.18259410  0.18709504  0.69483997  1
  Zn  Zn96  1  0.14331638  0.65286633  0.26291194  1
  Zn  Zn97  1  0.18646818  0.69797981  0.68716497  1
  Zn  Zn98  1  0.68894129  0.18829843  0.18844176  1
  Zn  Zn99  1  0.69154815  0.19424041  0.68820375  1
  Zn  Zn100  1  0.68408542  0.69035053  0.18698710  1
  Zn  Zn101  1  0.68966179  0.68695680  0.68640907  1
  Zn  Zn102  1  0.30703293  0.30732162  0.31804008  1
  Zn  Zn103  1  0.30750809  0.31106596  0.80933169  1
  Zn  Zn104  1  0.43113346  0.80866674  0.32404018  1
  Zn  Zn105  1  0.31118977  0.81320715  0.81223818  1
  Zn  Zn106  1  0.81494363  0.31002715  0.31028506  1
  Zn  Zn107  1  0.81456140  0.31231246  0.80902676  1
  Zn  Zn108  1  0.79646524  0.81530774  0.31124886  1
  Zn  Zn109  1  0.81335316  0.81051158  0.81089113  1
  Zn  Zn110  1  0.20488556  0.46508280  0.48149747  1
  Zn  Zn111  1  0.17931542  0.43806967  0.93211346  1
  Zn  Zn112  1  0.18379461  0.84481605  0.43641727  1
  Zn  Zn113  1  0.17983507  0.93758878  0.95130600  1
  Zn  Zn114  1  0.69363034  0.43611812  0.43868177  1
  Zn  Zn115  1  0.68469554  0.43772155  0.93348812  1
  Zn  Zn116  1  0.68510683  0.93243638  0.42830436  1
  Zn  Zn117  1  0.68452357  0.93575700  0.93302107  1
  Zn  Zn118  1  0.32807780  0.04667549  0.06523853  1
  Zn  Zn119  1  0.31419540  0.06474412  0.56618680  1
  Zn  Zn120  1  0.32167647  0.57862342  0.04350390  1
  Zn  Zn121  1  0.32113607  0.56734599  0.55684840  1
  Zn  Zn122  1  0.81475947  0.06659125  0.06211280  1
  Zn  Zn123  1  0.80818196  0.06122128  0.55643557  1
  Zn  Zn124  1  0.81221279  0.56353094  0.06255600  1
  Zn  Zn125  1  0.81733349  0.55785929  0.55599021  1
  Zn  Zn126  1  0.43511017  0.43323479  0.18530712  1
  Zn  Zn127  1  0.43085502  0.43321192  0.69101475  1
  Zn  Zn128  1  0.43911600  0.93805893  0.18857877  1
  Zn  Zn129  1  0.44246121  0.94090573  0.68765192  1
  Zn  Zn130  1  0.94201587  0.44066629  0.18191226  1
  Zn  Zn131  1  0.98090439  0.45188395  0.68396898  1
  Zn  Zn132  1  0.91795215  0.94023802  0.18306319  1
  Zn  Zn133  1  0.93430582  0.93566264  0.69366456  1
  Zn  Zn134  1  0.06296882  0.05729874  0.30982891  1
  Zn  Zn135  1  0.06138626  0.06827516  0.81374868  1
  Zn  Zn136  1  0.08877429  0.48303261  0.32888165  1
  Zn  Zn137  1  0.06078607  0.56242002  0.81541227  1
  Zn  Zn138  1  0.55933570  0.05712031  0.31266780  1
  Zn  Zn139  1  0.56229350  0.06443856  0.81138657  1
  Zn  Zn140  1  0.56162166  0.56966683  0.31401830  1
  Zn  Zn141  1  0.56166239  0.56162167  0.81469098  1
  Zn  Zn142  1  0.44053674  0.18694013  0.44037582  1
  Zn  Zn143  1  0.43230803  0.18735711  0.93878321  1
  Zn  Zn144  1  0.43955015  0.67884902  0.44578659  1
  Zn  Zn145  1  0.43708168  0.69374061  0.94198691  1
  Zn  Zn146  1  0.93602574  0.19554535  0.43657037  1
  Zn  Zn147  1  0.93692614  0.18846767  0.93445066  1
  Zn  Zn148  1  0.92829540  0.69346877  0.43037831  1
  Zn  Zn149  1  0.93538367  0.68809983  0.93096908  1
  Zn  Zn150  1  0.05628369  0.30451696  0.05583978  1
  Zn  Zn151  1  0.06648707  0.31338289  0.56295558  1
  Zn  Zn152  1  0.05841641  0.81205244  0.07161196  1
  Zn  Zn153  1  0.05873814  0.81746473  0.56524814  1
  Zn  Zn154  1  0.55725028  0.31182456  0.06145868  1
  Zn  Zn155  1  0.56148884  0.30984097  0.56265409  1
  Zn  Zn156  1  0.56517642  0.80965455  0.06288993  1
  Zn  Zn157  1  0.56164831  0.80671705  0.55767831  1
  O  O158  1  0.11090323  0.10704240  0.13165189  1
  O  O159  1  0.12624417  0.11457653  0.61712264  1
  O  O160  1  0.10155463  0.63892141  0.10676949  1
  O  O161  1  0.13081508  0.63899505  0.61340487  1
  O  O162  1  0.61586909  0.13533738  0.11519705  1
  O  O163  1  0.61351678  0.13197389  0.62988263  1
  O  O164  1  0.61305512  0.60962599  0.13016867  1
  O  O165  1  0.62055629  0.62556428  0.61726003  1
  O  O166  1  0.38282806  0.37517534  0.38082306  1
  O  O167  1  0.37943239  0.38141131  0.88026492  1
  O  O168  1  0.38705029  0.89286588  0.39105731  1
  O  O169  1  0.39342588  0.86898400  0.86966201  1
  O  O170  1  0.86397676  0.37832875  0.38647549  1
  O  O171  1  0.88154804  0.36982710  0.88515907  1
  O  O172  1  0.87518537  0.88384415  0.37896304  1
  O  O173  1  0.88446936  0.88705359  0.86350732  1
  O  O174  1  0.27025786  0.01169356  0.38033788  1
  O  O175  1  0.24218669  0.04025947  0.91256006  1
  O  O176  1  0.26356399  0.49525642  0.38165408  1
  O  O177  1  0.25849487  0.51339538  0.87770114  1
  O  O178  1  0.75234397  0.01232453  0.37703653  1
  O  O179  1  0.75628645  0.00355434  0.86667816  1
  O  O180  1  0.74134721  0.50953502  0.36430325  1
  O  O181  1  0.74731638  0.51208057  0.87005144  1
  O  O182  1  0.18806633  0.43076432  0.13744028  1
  O  O183  1  0.23753378  0.49808290  0.59117410  1
  O  O184  1  0.23534837  1.00807050  0.12190898  1
  O  O185  1  0.24471068  0.99032266  0.62549498  1
  O  O186  1  0.73997788  0.49731745  0.12956381  1
  O  O187  1  0.75594507  0.48270677  0.62501576  1
  O  O188  1  0.76441979  0.99856040  0.13100254  1
  O  O189  1  0.75418605  0.98994842  0.63537815  1
  O  O190  1  0.00357796  0.36552479  0.24183450  1
  O  O191  1  -0.01275598  0.35866183  0.75900310  1
  O  O192  1  -0.01125491  0.87967803  0.25832628  1
  O  O193  1  0.00872449  0.87077140  0.76173428  1
  O  O194  1  0.50734853  0.36485714  0.25565551  1
  O  O195  1  0.50354242  0.36532885  0.75405472  1
  O  O196  1  0.50183277  0.86820729  0.25107506  1
  O  O197  1  0.50872546  0.86742576  0.75507915  1
  O  O198  1  0.49459639  0.13596641  0.24504423  1
  O  O199  1  0.49822728  0.13156576  0.74055200  1
  O  O200  1  0.49314663  0.61590148  0.23435046  1
  O  O201  1  0.49400579  0.63234245  0.74814366  1
  O  O202  1  0.99463854  0.12655184  0.24151906  1
  O  O203  1  0.98851652  0.13622862  0.75436052  1
  O  O204  1  0.99384140  0.62507936  0.23315928  1
  O  O205  1  0.99301637  0.64483234  0.76159691  1
  O  O206  1  0.37810841  0.25855144  0.00921988  1
  O  O207  1  0.37579003  0.25286958  0.50964986  1
  O  O208  1  0.38266383  0.77170041  -0.00064560  1
  O  O209  1  0.39619964  0.76460500  0.51929252  1
  O  O210  1  0.86728598  0.26033871  0.00039961  1
  O  O211  1  0.85906505  0.25892299  0.49401338  1
  O  O212  1  0.86139787  0.75304337  -0.00824312  1
  O  O213  1  0.86663522  0.76150838  0.50821824  1
  O  O214  1  0.12425685  0.23275993  0.49552935  1
  O  O215  1  0.13030738  0.25940702  0.98834183  1
  O  O216  1  0.13603405  0.77093612  0.50473115  1
  O  O217  1  0.11350827  0.74549114  0.98656883  1
  O  O218  1  0.63531686  0.25953993  0.48719567  1
  O  O219  1  0.62915803  0.24513607  0.99396967  1
  O  O220  1  0.62748897  0.73808626  0.49843116  1
  O  O221  1  0.63472798  0.74719785  0.98539193  1
  O  O222  1  0.49283718  0.24371739  0.13512944  1
  O  O223  1  0.49403102  0.23954021  0.63176280  1
  O  O224  1  0.50485348  0.72649298  0.11484833  1
  O  O225  1  0.49593342  0.74472005  0.63940803  1
  O  O226  1  1.00273526  0.24136009  0.13353371  1
  O  O227  1  0.99988727  0.25016037  0.63987545  1
  O  O228  1  0.98058547  0.74137247  0.11872086  1
  O  O229  1  0.98719559  0.76548241  0.63801421  1
  O  O230  1  0.00304782  0.24923249  0.35956953  1
  O  O231  1  0.00710557  0.26055387  0.87690463  1
  O  O232  1  -0.01288723  0.76460197  0.36596410  1
  O  O233  1  0.00545223  0.76129883  0.86848984  1
  O  O234  1  0.50665937  0.25407849  0.36623328  1
  O  O235  1  0.50371407  0.25464719  0.86669504  1
  O  O236  1  0.49651760  0.73000730  0.36600986  1
  O  O237  1  0.50876171  0.75266899  0.86538783  1
  O  O238  1  0.24363512  0.12460678  0.49522969  1
  O  O239  1  0.25696704  0.09163160  0.96577203  1
  O  O240  1  0.27518444  0.63830272  0.48024125  1
  O  O241  1  0.23578698  0.62371218  0.98984061  1
  O  O242  1  0.75057792  0.13589652  0.49048938  1
  O  O243  1  0.74246597  0.13237002  0.99439559  1
  O  O244  1  0.74001328  0.62079679  0.49195934  1
  O  O245  1  0.75527612  0.63109128  0.98136818  1
  O  O246  1  0.26149482  0.38413808  -0.00638324  1
  O  O247  1  0.26633303  0.36466641  0.50005218  1
  O  O248  1  0.25806706  0.87374589  -0.00278672  1
  O  O249  1  0.26914103  0.87695185  0.51034965  1
  O  O250  1  0.75454196  0.37331890  0.00152390  1
  O  O251  1  0.76056371  0.37203262  0.51078389  1
  O  O252  1  0.74219568  0.86014648  -0.00007104  1
  O  O253  1  0.75378198  0.87596313  0.50959093  1
  O  O254  1  0.12678518  0.54416380  0.24871899  1
  O  O255  1  0.08745363  0.48984592  0.73445468  1
  O  O256  1  0.12017320  0.98889674  0.23715615  1
  O  O257  1  0.11875233  0.99474134  0.74420059  1
  O  O258  1  0.62660358  0.48779665  0.24177860  1
  O  O259  1  0.62304096  0.48492879  0.75644504  1
  O  O260  1  0.61828970  0.98271602  0.25539950  1
  O  O261  1  0.63781816  0.99072606  0.75687695  1
  O  O262  1  0.39043951  0.01522543  0.26428571  1
  O  O263  1  0.37810938  0.01098208  0.74743687  1
  O  O264  1  0.37332234  0.48442425  0.26595846  1
  O  O265  1  0.38211098  0.51207876  0.76262233  1
  O  O266  1  0.86505542  0.00245819  0.26812206  1
  O  O267  1  0.86615573  0.00725480  0.75814058  1
  O  O268  1  0.85907905  0.49547949  0.24113584  1
  O  O269  1  0.89464665  0.51980790  0.73044976  1
  O  O270  1  0.15535962  0.37804602  0.34746619  1
  O  O271  1  0.11352172  0.36834854  0.86738464  1
  O  O272  1  0.10610800  0.87777571  0.35823821  1
  O  O273  1  0.11959490  0.87377991  0.87205881  1
  O  O274  1  0.62144286  0.36722324  0.36739955  1
  O  O275  1  0.61834354  0.36872206  0.86671913  1
  O  O276  1  0.62531552  0.86572771  0.36127600  1
  O  O277  1  0.62053719  0.86372584  0.86218099  1
  O  O278  1  0.38144750  0.13071764  0.13163268  1
  O  O279  1  0.38563907  0.13063433  0.63584165  1
  O  O280  1  0.38679183  0.61024371  0.12587822  1
  O  O281  1  0.38368391  0.63311340  0.63352546  1
  O  O282  1  0.88494698  0.13252587  0.12701609  1
  O  O283  1  0.86684043  0.11828660  0.63733835  1
  O  O284  1  0.88148757  0.63633483  0.11723548  1
  O  O285  1  0.86490703  0.64180311  0.62839743  1
  O  O286  1  0.26045924  0.24113555  0.13090728  1
  O  O287  1  0.26483198  0.24291003  0.62676069  1
  O  O288  1  0.29469291  0.75547892  0.17182274  1
  O  O289  1  0.26709497  0.76567789  0.63483152  1
  O  O290  1  0.74962262  0.25939709  0.11830686  1
  O  O291  1  0.74393133  0.26383438  0.61464116  1
  O  O292  1  0.75787959  0.73668797  0.10609076  1
  O  O293  1  0.75930676  0.76393646  0.62943567  1
  O  O294  1  0.24300422  0.23111269  0.37781665  1
  O  O295  1  0.23255006  0.24994341  0.86707148  1
  O  O296  1  0.32174381  0.75665202  0.36770027  1
  O  O297  1  0.23912205  0.74201726  0.87081400  1
  O  O298  1  0.74266551  0.24365520  0.38055185  1
  O  O299  1  0.74409929  0.24597602  0.87898614  1
  O  O300  1  0.74333646  0.73265353  0.37482529  1
  O  O301  1  0.74594544  0.74523122  0.88031319  1
  O  O302  1  -0.00656498  0.11623158  0.01031829  1
  O  O303  1  0.00985375  0.12622002  0.49425663  1
  O  O304  1  0.00360817  0.61636457  -0.01219072  1
  O  O305  1  -0.01465468  0.62215428  0.49511352  1
  O  O306  1  0.50729828  0.12662463  0.00710317  1
  O  O307  1  0.49939424  0.11898508  0.51574463  1
  O  O308  1  0.49097321  0.60932061  0.00683324  1
  O  O309  1  0.51331949  0.62210951  0.51468266  1
  O  O310  1  0.49140282  0.36225798  0.48885436  1
  O  O311  1  0.49131945  0.38337189  0.99403221  1
  O  O312  1  0.49343894  0.89367963  0.51777360  1
  O  O313  1  0.51024479  0.87352469  0.98162883  1
  O  O314  1  0.98185657  0.34876774  0.49515931  1
  O  O315  1  0.99255221  0.38282152  0.99559143  1
  O  O316  1  0.98509026  0.87292761  0.48738368  1
  O  O317  1  1.00173048  0.88274928  0.98798481  1
  O  O318  1  0.50107052  0.48255094  0.36929659  1
  O  O319  1  0.49045139  0.49679217  0.88230146  1
  O  O320  1  0.49107624  1.01751599  0.39745055  1
  O  O321  1  0.50825966  0.98309130  0.87081176  1
  O  O322  1  1.00067694  0.48010364  0.39632291  1
  O  O323  1  0.99980745  0.48649934  0.88383019  1
  O  O324  1  0.98333847  0.99409634  0.37316514  1
  O  O325  1  0.99414529  0.99658544  0.88239106  1
  O  O326  1  -0.01045024  0.00618832  0.11773865  1
  O  O327  1  0.00829027  -0.00418798  0.62890100  1
  O  O328  1  -0.00868345  0.51746956  0.11000510  1
  O  O329  1  0.02795957  0.48221303  0.58346714  1
  O  O330  1  0.49584756  0.01810692  0.12354165  1
  O  O331  1  0.50349593  0.01394399  0.61949264  1
  O  O332  1  0.50608079  0.49944199  0.11716003  1
  O  O333  1  0.49393084  0.51150447  0.63492733  1
  O  O334  1  0.21407810  0.37627407  0.29111657  1
  O  O335  1  0.25599123  0.38772620  0.74711614  1
  O  O336  1  0.23417901  0.87352238  0.26037256  1
  O  O337  1  0.23824044  0.87393848  0.74550677  1
  O  O338  1  0.74121584  0.38023378  0.24522625  1
  O  O339  1  0.74499680  0.37378149  0.73801514  1
  O  O340  1  0.73404604  0.88038812  0.24413018  1
  O  O341  1  0.74609372  0.88221139  0.74415666  1
  O  O342  1  0.26191737  0.12660436  0.25932588  1
  O  O343  1  0.26422743  0.12483950  0.74682860  1
  O  O344  1  0.26831058  0.63411561  0.27543218  1
  O  O345  1  0.26310558  0.63282835  0.75891948  1
  O  O346  1  0.75097216  0.12758015  0.26409601  1
  O  O347  1  0.75370059  0.11979466  0.75433632  1
  O  O348  1  0.73643288  0.61496698  0.26178563  1
  O  O349  1  0.75945692  0.62155573  0.75396588  1
  O  O350  1  0.37028744  0.12452978  0.37030099  1
  O  O351  1  0.38416274  0.12813450  0.85679535  1
  O  O352  1  0.38286585  0.59954976  0.37663913  1
  O  O353  1  0.36807842  0.62121827  0.87245782  1
  O  O354  1  0.86742377  0.11445160  0.37920671  1
  O  O355  1  0.86805383  0.11570608  0.86787860  1
  O  O356  1  0.85387779  0.62270816  0.37789577  1
  O  O357  1  0.86126746  0.63031209  0.86061581  1
  O  O358  1  0.13169645  0.38453910  0.14411922  1
  O  O359  1  0.13846054  0.36232441  0.63088422  1
  O  O360  1  0.11987433  0.88578359  0.13439500  1
  O  O361  1  0.13059879  0.88968187  0.63469915  1
  O  O362  1  0.62769568  0.38057603  0.13206459  1
  O  O363  1  0.62522422  0.36961915  0.63610648  1
  O  O364  1  0.62277362  0.86944092  0.13824890  1
  O  O365  1  0.63344221  0.86669542  0.63781576  1
  O  O366  1  0.10918121  0.24185140  0.25213045  1
  O  O367  1  0.10651834  0.24685148  0.75980402  1
  O  O368  1  0.12527642  0.76244189  0.23643365  1
  O  O369  1  0.11753469  0.76313587  0.76077682  1
  O  O370  1  0.61825559  0.25972312  0.25607858  1
  O  O371  1  0.61533557  0.25684938  0.75523369  1
  O  O372  1  0.62561015  0.76088453  0.25184711  1
  O  O373  1  0.62008235  0.75597969  0.75588299  1
  O  O374  1  0.38076257  0.24475555  0.24500696  1
  O  O375  1  0.38667031  0.24581518  0.74318574  1
  O  O376  1  0.36102741  0.75284637  0.20170109  1
  O  O377  1  0.38484275  0.74267280  0.74610209  1
  O  O378  1  0.88867553  0.24914632  0.24746844  1
  O  O379  1  0.88441862  0.23852631  0.75653735  1
  O  O380  1  0.86032090  0.74676498  0.23791889  1
  O  O381  1  0.88160271  0.74618743  0.74225981  1
  O  O382  1  0.37923759  0.48261436  0.48873746  1
  O  O383  1  0.38017818  0.49204870  0.99032579  1
  O  O384  1  0.38429311  0.99657773  0.49985022  1
  O  O385  1  0.38447311  0.97726095  0.99560922  1
  O  O386  1  0.89008984  0.48339357  0.50722170  1
  O  O387  1  0.88035432  0.49021670  1.00019875  1
  O  O388  1  0.86599936  0.99046389  0.48664631  1
  O  O389  1  0.88090646  1.00290018  0.98544874  1
  O  O390  1  0.10782540  -0.00592472  0.01969195  1
  O  O391  1  0.11976476  0.00876987  0.51736212  1
  O  O392  1  0.11225584  0.51102150  -0.00494496  1
  O  O393  1  0.12026388  0.54235863  0.46867524  1
  O  O394  1  0.62340435  0.01527434  -0.00740122  1
  O  O395  1  0.61365447  -0.00380306  0.49669885  1
  O  O396  1  0.61406969  0.49190434  0.00860636  1
  O  O397  1  0.62797650  0.50827378  0.50193227  1
  O  O398  1  0.37689992  0.36412122  0.11552313  1
  O  O399  1  0.37899796  0.36342540  0.61707187  1
  O  O400  1  0.37035587  0.88309467  0.11764522  1
  O  O401  1  0.37091744  0.87334954  0.62517314  1
  O  O402  1  0.86800175  0.37527643  0.11177959  1
  O  O403  1  0.86885861  0.37136942  0.62334342  1
  O  O404  1  0.86613235  0.85530902  0.12395633  1
  O  O405  1  0.86752989  0.87173055  0.61904308  1
  O  O406  1  0.13126486  0.11006500  0.38930171  1
  O  O407  1  0.11634767  0.13961137  0.88055783  1
  O  O408  1  0.17087639  0.68689363  0.37802503  1
  O  O409  1  0.13071335  0.63429616  0.87798106  1
  O  O410  1  0.62960199  0.13748236  0.36852511  1
  O  O411  1  0.62941219  0.13184471  0.88155524  1
  O  O412  1  0.62703673  0.62258326  0.39144157  1
  O  O413  1  0.64174978  0.63357499  0.86151904  1
