# generated using pymatgen
data_V79Zn79O256
_symmetry_space_group_name_H-M   'P 1'
_cell_length_a   16.86845432
_cell_length_b   16.86464945
_cell_length_c   16.84646083
_cell_angle_alpha   90.04450024
_cell_angle_beta   90.10720274
_cell_angle_gamma   89.98777717
_symmetry_Int_Tables_number   1
_chemical_formula_structural   V79Zn79O256
_chemical_formula_sum   'V79 Zn79 O256'
_cell_volume   4792.48081730
_cell_formula_units_Z   1
loop_
 _symmetry_equiv_pos_site_id
 _symmetry_equiv_pos_as_xyz
  1  'x, y, z'
loop_
 _atom_site_type_symbol
 _atom_site_label
 _atom_site_symmetry_multiplicity
 _atom_site_fract_x
 _atom_site_fract_y
 _atom_site_fract_z
 _atom_site_occupancy
  V  V0  1  0.13352140  0.87671537  0.24973946  1
  V  V1  1  0.76854799  0.25356717  0.49371753  1
  V  V2  1  0.85848423  0.11895592  0.74929022  1
  V  V3  1  0.12416751  0.49965489  0.12827288  1
  V  V4  1  -0.00289356  0.24660629  0.77377215  1
  V  V5  1  0.74525554  -0.01353320  0.25167706  1
  V  V6  1  0.62782994  0.87751542  0.75034773  1
  V  V7  1  0.12968900  0.63334542  0.00159324  1
  V  V8  1  0.36271559  0.12056155  0.25132975  1
  V  V9  1  0.50472763  0.12592760  0.12776731  1
  V  V10  1  0.87352942  0.74825830  0.11012344  1
  V  V11  1  0.12494972  0.37107407  0.25199714  1
  V  V12  1  0.50350926  0.74961332  0.74747049  1
  V  V13  1  0.50545500  0.87635174  0.36885641  1
  V  V14  1  0.23855188  0.24971599  -0.00535363  1
  V  V15  1  -0.01481600  0.87444581  0.88139599  1
  V  V16  1  0.62482177  -0.00318250  0.12500550  1
  V  V17  1  0.24328181  0.74981274  0.48412466  1
  V  V18  1  0.50080462  0.00627725  -0.00277571  1
  V  V19  1  0.87268745  0.48694591  0.87147445  1
  V  V20  1  0.36685735  0.62439258  0.26465801  1
  V  V21  1  0.00334580  0.48951794  -0.01072041  1
  V  V22  1  0.87418394  0.62610412  0.25075019  1
  V  V23  1  0.12278929  -0.00096254  0.62855709  1
  V  V24  1  -0.01630754  -0.00241052  -0.00120714  1
  V  V25  1  -0.00333386  0.12479352  0.12243413  1
  V  V26  1  -0.00229691  0.13623670  0.62506337  1
  V  V27  1  0.36786538  0.26352077  0.62408077  1
  V  V28  1  0.87254247  0.00205059  0.37475288  1
  V  V29  1  0.24338139  0.49416491  0.73865181  1
  V  V30  1  0.77810422  0.37278880  0.62733601  1
  V  V31  1  0.36535969  0.74868139  0.11662935  1
  V  V32  1  0.74065111  0.11634129  0.89252931  1
  V  V33  1  0.49655911  0.12569050  0.62054719  1
  V  V34  1  0.37573394  0.62177621  0.74722140  1
  V  V35  1  0.38318572  0.25061590  0.12938410  1
  V  V36  1  0.37561999  0.12559347  0.75930065  1
  V  V37  1  0.74654371  0.86501769  0.10822306  1
  V  V38  1  0.63116224  0.48751543  0.63543982  1
  V  V39  1  0.39029280  0.37880590  -0.00379336  1
  V  V40  1  0.75327458  0.61679160  0.37485961  1
  V  V41  1  0.87044770  0.62259406  0.75146673  1
  V  V42  1  0.13619237  0.12194937  0.49714655  1
  V  V43  1  0.75010820  0.62934122  0.89315867  1
  V  V44  1  0.50185498  0.61708146  0.61871418  1
  V  V45  1  0.74261297  0.49288521  0.24584857  1
  V  V46  1  0.75195460  0.87948602  0.62920637  1
  V  V47  1  0.12904043  0.24361345  0.37225071  1
  V  V48  1  0.60821498  0.37106821  0.25105990  1
  V  V49  1  0.50547028  0.74993422  0.24679519  1
  V  V50  1  0.62404717  0.61540595  0.49784160  1
  V  V51  1  0.13105500  0.00550214  0.12076450  1
  V  V52  1  0.11911458  0.61939681  0.50835080  1
  V  V53  1  0.24969741  0.26720287  0.50109864  1
  V  V54  1  0.74968269  0.74952001  0.50004547  1
  V  V55  1  0.86162064  0.26090814  0.11346592  1
  V  V56  1  0.37718149  0.87850517  0.49718801  1
  V  V57  1  0.51142012  0.26232800  0.75174658  1
  V  V58  1  0.36740951  0.87909463  -0.00357579  1
  V  V59  1  0.62568124  0.00421934  0.62513885  1
  V  V60  1  0.61301028  0.50488583  0.11149980  1
  V  V61  1  -0.00184596  0.62607977  0.13056896  1
  V  V62  1  0.63153785  0.25897581  0.89239299  1
  V  V63  1  0.86587073  0.12189818  0.24843529  1
  V  V64  1  0.36180191  0.00344697  0.37034247  1
  V  V65  1  0.23514660  0.12926720  0.87766252  1
  V  V66  1  0.37372704  0.74797194  0.62098030  1
  V  V67  1  0.25587215  0.00096473  0.75899967  1
  V  V68  1  0.87969757  0.74376076  0.62651505  1
  V  V69  1  0.25079592  0.62935963  0.87870101  1
  V  V70  1  0.48363597  0.38686948  0.39442320  1
  V  V71  1  0.38711020  0.49915406  0.87837461  1
  V  V72  1  0.25141051  0.37770797  0.12429548  1
  V  V73  1  -0.01346084  0.49874779  0.51566140  1
  V  V74  1  0.49659733  0.88305086  0.87259577  1
  V  V75  1  0.12765544  0.35805238  0.75824761  1
  V  V76  1  0.25037754  0.87600592  0.62661731  1
  V  V77  1  0.00345504  0.74753872  0.75057949  1
  V  V78  1  -0.00381187  0.86575942  0.36518014  1
  Zn  Zn79  1  0.24833643  0.87875703  0.12049685  1
  Zn  Zn80  1  0.11911389  0.73268507  0.35694201  1
  Zn  Zn81  1  0.62868183  0.74441427  0.89009100  1
  Zn  Zn82  1  0.50095192  0.62545998  0.11035396  1
  Zn  Zn83  1  0.61541230  0.24301401  0.36400419  1
  Zn  Zn84  1  0.13218672  0.75803686  0.88312332  1
  Zn  Zn85  1  -0.02895024  0.36983613  0.40485297  1
  Zn  Zn86  1  0.63052884  0.75340958  0.36704839  1
  Zn  Zn87  1  0.12547896  0.87533461  0.75662655  1
  Zn  Zn88  1  0.87953208  0.87487316  0.50169900  1
  Zn  Zn89  1  0.00005511  -0.00199166  0.49892299  1
  Zn  Zn90  1  -0.01025194  0.25161296  0.25529935  1
  Zn  Zn91  1  0.25292504  0.50388550  0.27294789  1
  Zn  Zn92  1  0.50298401  0.00850082  0.49182129  1
  Zn  Zn93  1  0.64377853  0.12565058  0.48159051  1
  Zn  Zn94  1  0.18925242  0.18721040  0.18095699  1
  Zn  Zn95  1  0.18729980  0.18644586  0.68754476  1
  Zn  Zn96  1  0.18771885  0.68990667  0.18829344  1
  Zn  Zn97  1  0.18821178  0.68725671  0.68843167  1
  Zn  Zn98  1  0.68813386  0.18569552  0.18282772  1
  Zn  Zn99  1  0.68290381  0.20710601  0.65204891  1
  Zn  Zn100  1  0.68915657  0.68208068  0.17909471  1
  Zn  Zn101  1  0.68931772  0.68390531  0.68768029  1
  Zn  Zn102  1  0.31213121  0.30871010  0.31479577  1
  Zn  Zn103  1  0.31558789  0.31401900  0.81394024  1
  Zn  Zn104  1  0.31670325  0.81543021  0.30609004  1
  Zn  Zn105  1  0.31574115  0.81206842  0.81050271  1
  Zn  Zn106  1  0.80367937  0.30413252  0.31669729  1
  Zn  Zn107  1  0.80558863  0.30323426  0.80801465  1
  Zn  Zn108  1  0.81416551  0.80766840  0.30615152  1
  Zn  Zn109  1  0.80991752  0.80711568  0.81622292  1
  Zn  Zn110  1  0.14398630  0.44016565  0.44177356  1
  Zn  Zn111  1  0.19210827  0.44185737  0.93376061  1
  Zn  Zn112  1  0.18322894  0.93515872  0.43743563  1
  Zn  Zn113  1  0.17889687  0.94270902  0.93748081  1
  Zn  Zn114  1  0.68687508  0.42857009  0.43796101  1
  Zn  Zn115  1  0.69615734  0.43367137  0.93855030  1
  Zn  Zn116  1  0.68808823  0.93924536  0.44127978  1
  Zn  Zn117  1  0.68522758  0.93849584  0.93446107  1
  Zn  Zn118  1  0.31618145  0.06513788  0.05722977  1
  Zn  Zn119  1  0.31561730  0.06349933  0.56650081  1
  Zn  Zn120  1  0.31389732  0.56186283  0.06260312  1
  Zn  Zn121  1  0.30280563  0.56055865  0.55213731  1
  Zn  Zn122  1  0.80969238  0.05927412  0.06683870  1
  Zn  Zn123  1  0.81500131  0.06479771  0.56246640  1
  Zn  Zn124  1  0.80506644  0.52581160  0.05456030  1
  Zn  Zn125  1  0.81147540  0.55790924  0.56477413  1
  Zn  Zn126  1  0.43719192  0.44412621  0.19081876  1
  Zn  Zn127  1  0.43792122  0.44035067  0.68822745  1
  Zn  Zn128  1  0.43524852  0.93790734  0.18581180  1
  Zn  Zn129  1  0.43815067  0.94058075  0.68526113  1
  Zn  Zn130  1  0.91379364  0.41695687  0.22906835  1
  Zn  Zn131  1  0.95482779  0.43607874  0.69621653  1
  Zn  Zn132  1  0.93505258  0.93258125  0.18525865  1
  Zn  Zn133  1  0.93573794  0.93754748  0.69377236  1
  Zn  Zn134  1  0.05957123  0.05847850  0.30848800  1
  Zn  Zn135  1  0.05840275  0.05932905  0.81441084  1
  Zn  Zn136  1  0.05906236  0.55683108  0.32315067  1
  Zn  Zn137  1  0.06491946  0.56556447  0.81090227  1
  Zn  Zn138  1  0.55759237  0.06160994  0.30735959  1
  Zn  Zn139  1  0.56751508  0.07016671  0.80892433  1
  Zn  Zn140  1  0.55828542  0.56275667  0.31409654  1
  Zn  Zn141  1  0.57116074  0.55885105  0.81393531  1
  Zn  Zn142  1  0.43653625  0.19778518  0.43135862  1
  Zn  Zn143  1  0.44167634  0.19520247  0.93776876  1
  Zn  Zn144  1  0.43899517  0.69017049  0.43680848  1
  Zn  Zn145  1  0.43662184  0.69339365  0.93188359  1
  Zn  Zn146  1  0.94418609  0.18289325  0.43449339  1
  Zn  Zn147  1  0.92344728  0.17882364  0.93836154  1
  Zn  Zn148  1  0.93837177  0.68162393  0.43878519  1
  Zn  Zn149  1  0.94207932  0.68025135  0.93633938  1
  Zn  Zn150  1  0.05445267  0.30959161  0.06557879  1
  Zn  Zn151  1  0.07286480  0.31854884  0.57398155  1
  Zn  Zn152  1  0.05785160  0.81449304  0.06684456  1
  Zn  Zn153  1  0.06190068  0.81366334  0.56040521  1
  Zn  Zn154  1  0.57127175  0.31701523  0.06878583  1
  Zn  Zn155  1  0.55937597  0.30997652  0.54812194  1
  Zn  Zn156  1  0.55571640  0.81613260  0.06378381  1
  Zn  Zn157  1  0.56418030  0.81128684  0.56055899  1
  O  O158  1  0.11334712  0.11246973  0.13232872  1
  O  O159  1  0.11859213  0.11748412  0.61949199  1
  O  O160  1  0.12098313  0.61880529  0.12335202  1
  O  O161  1  0.11907408  0.65333437  0.60478866  1
  O  O162  1  0.61579987  0.11275973  0.12724603  1
  O  O163  1  0.61324499  0.11081092  0.63660935  1
  O  O164  1  0.61781601  0.61097070  0.12987903  1
  O  O165  1  0.62135496  0.61626925  0.61877839  1
  O  O166  1  0.38419055  0.37344404  0.37034395  1
  O  O167  1  0.37314726  0.38166085  0.88906019  1
  O  O168  1  0.38097896  0.88254037  0.37941147  1
  O  O169  1  0.38761565  0.86999157  0.88066812  1
  O  O170  1  0.88839297  0.37517453  0.33282029  1
  O  O171  1  0.86850989  0.38822989  0.86306268  1
  O  O172  1  0.88496555  0.87836594  0.37105788  1
  O  O173  1  0.88566609  0.87370515  0.87240698  1
  O  O174  1  0.26238101  -0.00413107  0.37856435  1
  O  O175  1  0.24653415  0.00992700  0.86598846  1
  O  O176  1  0.25215252  0.49792584  0.39903756  1
  O  O177  1  0.26220635  0.51189467  0.86684565  1
  O  O178  1  0.76056459  -0.01254241  0.36560512  1
  O  O179  1  0.73540085  0.01662744  0.86996149  1
  O  O180  1  0.74120051  0.51112219  0.36634890  1
  O  O181  1  0.76862933  0.51108641  0.87443986  1
  O  O182  1  0.23893039  0.49115608  0.11931685  1
  O  O183  1  0.26299755  0.50125481  0.64016811  1
  O  O184  1  0.23459595  1.00325219  0.11628051  1
  O  O185  1  0.24278098  0.99700618  0.63454409  1
  O  O186  1  0.73115581  0.50949605  0.14173607  1
  O  O187  1  0.74003661  0.48577537  0.61921920  1
  O  O188  1  0.74408448  0.98408079  0.12786604  1
  O  O189  1  0.74204056  0.98839758  0.61848202  1
  O  O190  1  0.02273867  0.37093293  0.23955217  1
  O  O191  1  0.00947134  0.35395238  0.75774591  1
  O  O192  1  0.00492410  0.87499217  0.25965607  1
  O  O193  1  -0.00006704  0.86895641  0.76367941  1
  O  O194  1  0.50565637  0.37374436  0.25137622  1
  O  O195  1  0.49312637  0.36074512  0.75035929  1
  O  O196  1  0.49005084  0.86255020  0.25725550  1
  O  O197  1  0.50438398  0.86975994  0.75281757  1
  O  O198  1  0.48808481  0.12056882  0.23258988  1
  O  O199  1  0.49146824  0.13222192  0.74174284  1
  O  O200  1  0.48603252  0.63905879  0.25067517  1
  O  O201  1  0.49763669  0.63282183  0.74029385  1
  O  O202  1  0.98655589  0.12091722  0.23872968  1
  O  O203  1  1.00178120  0.13237735  0.74232340  1
  O  O204  1  0.99061525  0.60947463  0.24080513  1
  O  O205  1  0.99052252  0.64043354  0.75983268  1
  O  O206  1  0.37061887  0.26352866  0.00682350  1
  O  O207  1  0.36001510  0.24772443  0.51186238  1
  O  O208  1  0.38149781  0.76184367  0.01040530  1
  O  O209  1  0.36456190  0.75904758  0.50028051  1
  O  O210  1  0.88207795  0.25046108  0.01414508  1
  O  O211  1  0.86889565  0.25832974  0.47535157  1
  O  O212  1  0.87588861  0.74238790  0.01112238  1
  O  O213  1  0.86680427  0.74786304  0.50870218  1
  O  O214  1  0.13478743  0.24280720  0.49677973  1
  O  O215  1  0.14041035  0.25272195  1.00884701  1
  O  O216  1  0.13722493  0.75877683  0.48984263  1
  O  O217  1  0.12206841  0.73772868  1.00601963  1
  O  O218  1  0.63970840  0.23358304  0.53187838  1
  O  O219  1  0.62235608  0.25074018  0.99228075  1
  O  O220  1  0.63818432  0.74025027  0.50381690  1
  O  O221  1  0.58868522  0.72343939  1.00033042  1
  O  O222  1  0.49151006  0.24061870  0.11583841  1
  O  O223  1  0.48478409  0.24457586  0.63232255  1
  O  O224  1  0.48744389  0.75504476  0.13791563  1
  O  O225  1  0.49502122  0.74378279  0.63007945  1
  O  O226  1  0.99505084  0.23629953  0.13052560  1
  O  O227  1  1.00893849  0.23670750  0.63077914  1
  O  O228  1  0.98739939  0.73810233  0.12288570  1
  O  O229  1  0.98792350  0.76248901  0.63516977  1
  O  O230  1  0.01614053  0.25443470  0.37401052  1
  O  O231  1  0.00262887  0.23297817  0.87189118  1
  O  O232  1  -0.00007673  0.76224722  0.37773363  1
  O  O233  1  0.00042422  0.76124323  0.87142660  1
  O  O234  1  0.50686958  0.27281057  0.38781249  1
  O  O235  1  0.51677652  0.24342711  0.86091394  1
  O  O236  1  0.49888726  0.75821460  0.36234509  1
  O  O237  1  0.50222590  0.75936846  0.85860095  1
  O  O238  1  0.23879574  0.12765992  0.50698891  1
  O  O239  1  0.25829093  0.14104406  0.99237009  1
  O  O240  1  0.24219649  0.64620595  0.50229458  1
  O  O241  1  0.24207199  0.61886826  0.99136538  1
  O  O242  1  0.75931605  0.14376513  0.50481808  1
  O  O243  1  0.74846847  0.11937930  0.99244113  1
  O  O244  1  0.74549911  0.63005994  0.49395034  1
  O  O245  1  0.75704315  0.61657043  0.99189811  1
  O  O246  1  0.25508093  0.36635641  0.00719941  1
  O  O247  1  0.23404891  0.36371513  0.50444241  1
  O  O248  1  0.26294955  0.88387259  -0.00422075  1
  O  O249  1  0.25817044  0.86883269  0.50430967  1
  O  O250  1  0.77409455  0.41887851  0.01751005  1
  O  O251  1  0.74682344  0.36534038  0.51189181  1
  O  O252  1  0.74910782  0.87476293  0.00862286  1
  O  O253  1  0.75168739  0.86466096  0.50936220  1
  O  O254  1  0.13420989  0.49232306  0.24528129  1
  O  O255  1  0.14147288  0.50594924  0.74952889  1
  O  O256  1  0.11707444  0.98817930  0.23470708  1
  O  O257  1  0.13538744  1.00128184  0.74291502  1
  O  O258  1  0.62804173  0.49410361  0.24719413  1
  O  O259  1  0.62668851  0.49890366  0.73504594  1
  O  O260  1  0.63119825  0.99734040  0.23647622  1
  O  O261  1  0.61738223  0.98518060  0.74080016  1
  O  O262  1  0.37473300  0.01072152  0.25325555  1
  O  O263  1  0.36495156  0.00994595  0.74464192  1
  O  O264  1  0.36916506  0.51931191  0.24417819  1
  O  O265  1  0.36840182  0.50349564  0.75849786  1
  O  O266  1  0.86634420  0.00107152  0.25380336  1
  O  O267  1  0.87579192  0.01897721  0.74652289  1
  O  O268  1  0.85253367  0.51461125  0.23918119  1
  O  O269  1  0.89326420  0.51143770  0.76421545  1
  O  O270  1  0.13783541  0.35879746  0.36235639  1
  O  O271  1  0.12878050  0.38572405  0.85869117  1
  O  O272  1  0.11378337  0.88115047  0.36124892  1
  O  O273  1  0.11369268  0.87296709  0.87493180  1
  O  O274  1  0.61397288  0.37869798  0.36148655  1
  O  O275  1  0.63700026  0.35959252  0.87656455  1
  O  O276  1  0.61040217  0.87269357  0.38305902  1
  O  O277  1  0.61687831  0.86737595  0.86740185  1
  O  O278  1  0.38017014  0.13093086  0.13156628  1
  O  O279  1  0.37956783  0.13126270  0.63697632  1
  O  O280  1  0.37984186  0.63948091  0.11958889  1
  O  O281  1  0.38317821  0.62597116  0.62255818  1
  O  O282  1  0.87997929  0.12790498  0.13036311  1
  O  O283  1  0.89372866  0.12248735  0.63073060  1
  O  O284  1  0.88161741  0.62979833  0.12771897  1
  O  O285  1  0.86882586  0.63621073  0.63305830  1
  O  O286  1  0.26050295  0.25669959  0.11419163  1
  O  O287  1  0.25858565  0.24709570  0.61781906  1
  O  O288  1  0.26250825  0.75414837  0.12356345  1
  O  O289  1  0.25678137  0.75869658  0.62001213  1
  O  O290  1  0.76163630  0.24704822  0.12167138  1
  O  O291  1  0.77467583  0.26334145  0.61008107  1
  O  O292  1  0.75650902  0.75622315  0.12199964  1
  O  O293  1  0.75785203  0.75686017  0.61907907  1
  O  O294  1  0.24490935  0.24768455  0.39141138  1
  O  O295  1  0.25178788  0.24734114  0.88758628  1
  O  O296  1  0.24920819  0.75830874  0.38251672  1
  O  O297  1  0.25203413  0.73505408  0.86751842  1
  O  O298  1  0.73094307  0.26059267  0.39226371  1
  O  O299  1  0.73746699  0.23780848  0.87233125  1
  O  O300  1  0.75004714  0.74421462  0.38396098  1
  O  O301  1  0.74835278  0.73763793  0.88210396  1
  O  O302  1  -0.00839579  0.10872900  0.00820661  1
  O  O303  1  0.00958328  0.12257379  0.51300769  1
  O  O304  1  0.01153553  0.61704878  0.00939202  1
  O  O305  1  0.00869032  0.61240965  0.49789426  1
  O  O306  1  0.48912767  0.11452386  0.00944854  1
  O  O307  1  0.48992081  0.12870069  0.51495201  1
  O  O308  1  0.52793614  0.66099517  -0.00241283  1
  O  O309  1  0.51062308  0.63571515  0.50874890  1
  O  O310  1  0.49173925  0.38524525  0.49688202  1
  O  O311  1  0.48809326  0.37287894  1.00379884  1
  O  O312  1  0.48842706  0.87036321  0.49122142  1
  O  O313  1  0.49269655  0.88367160  0.99034035  1
  O  O314  1  1.01035565  0.38807714  0.51138313  1
  O  O315  1  1.01114707  0.39075340  0.99982297  1
  O  O316  1  0.99946809  0.87816728  0.48525484  1
  O  O317  1  0.99834541  0.88131536  0.99127458  1
  O  O318  1  0.49878320  0.48753420  0.37286629  1
  O  O319  1  0.48679396  0.50828581  0.87080206  1
  O  O320  1  0.48858445  0.99069810  0.37386038  1
  O  O321  1  0.50969697  0.99164091  0.88070164  1
  O  O322  1  1.02909194  0.48162382  0.40275712  1
  O  O323  1  0.99712103  0.50454826  0.88338729  1
  O  O324  1  0.98861994  0.98922266  0.37383578  1
  O  O325  1  1.00144973  0.99002553  0.88807283  1
  O  O326  1  0.00095757  0.00237579  0.11599479  1
  O  O327  1  0.01155310  0.00587988  0.62848863  1
  O  O328  1  0.01472021  0.50744827  0.11366464  1
  O  O329  1  -0.00085512  0.50554703  0.61641864  1
  O  O330  1  0.50672090  0.00292187  0.11864781  1
  O  O331  1  0.50621808  0.00694537  0.61988337  1
  O  O332  1  0.50600432  0.50622320  0.12257331  1
  O  O333  1  0.50760263  0.51208709  0.62778686  1
  O  O334  1  0.24772702  0.37606370  0.23773863  1
  O  O335  1  0.24466344  0.38586695  0.75560571  1
  O  O336  1  0.23768377  0.87935402  0.24787683  1
  O  O337  1  0.25215580  0.88457648  0.74625946  1
  O  O338  1  0.73942166  0.39115209  0.25575871  1
  O  O339  1  0.75255613  0.36298139  0.72531515  1
  O  O340  1  0.75262068  0.88093795  0.23852329  1
  O  O341  1  0.73963165  0.86547617  0.74064452  1
  O  O342  1  0.26318311  0.12377851  0.24351488  1
  O  O343  1  0.25548328  0.12110243  0.75819632  1
  O  O344  1  0.26117994  0.62676247  0.24959201  1
  O  O345  1  0.25678135  0.61692304  0.75464053  1
  O  O346  1  0.75845364  0.10524727  0.23845550  1
  O  O347  1  0.76269060  0.13504048  0.72627248  1
  O  O348  1  0.75119728  0.62120305  0.25950867  1
  O  O349  1  0.76560833  0.62945258  0.75563960  1
  O  O350  1  0.38136227  0.12059620  0.35901930  1
  O  O351  1  0.36981665  0.13494595  0.86337081  1
  O  O352  1  0.37267624  0.63166330  0.36425252  1
  O  O353  1  0.37082940  0.62047668  0.87110764  1
  O  O354  1  0.88274106  0.11176333  0.36221159  1
  O  O355  1  0.85095205  0.12883555  0.86086223  1
  O  O356  1  0.86451377  0.62895208  0.36604296  1
  O  O357  1  0.86668731  0.62292488  0.86945318  1
  O  O358  1  0.13471716  0.37954855  0.12930489  1
  O  O359  1  0.12498289  0.37736926  0.65603128  1
  O  O360  1  0.12463045  0.88314789  0.13320056  1
  O  O361  1  0.13071462  0.88459629  0.62751677  1
  O  O362  1  0.61826897  0.39179619  0.13978997  1
  O  O363  1  0.61384019  0.39030325  0.61912366  1
  O  O364  1  0.63742145  0.87646164  0.12075213  1
  O  O365  1  0.63026306  0.88205242  0.62915394  1
  O  O366  1  0.13118955  0.25195456  0.25727050  1
  O  O367  1  0.12041612  0.25122095  0.75734628  1
  O  O368  1  0.12542530  0.76774418  0.24624751  1
  O  O369  1  0.11455485  0.75214301  0.75318230  1
  O  O370  1  0.63209442  0.26871201  0.24325423  1
  O  O371  1  0.61029405  0.25181944  0.73479704  1
  O  O372  1  0.60860381  0.74494240  0.24563786  1
  O  O373  1  0.61523716  0.75953262  0.74225543  1
  O  O374  1  0.36994697  0.23851659  0.23759302  1
  O  O375  1  0.37712864  0.24478160  0.74075555  1
  O  O376  1  0.37726875  0.74217125  0.23783151  1
  O  O377  1  0.38411387  0.74350269  0.74138584  1
  O  O378  1  0.86921540  0.23340405  0.24278865  1
  O  O379  1  0.89252440  0.23745729  0.75555417  1
  O  O380  1  0.86876407  0.73244675  0.23683524  1
  O  O381  1  0.88192499  0.74421043  0.74430529  1
  O  O382  1  0.31579150  0.50136194  0.44603494  1
  O  O383  1  0.37198338  0.48697034  0.99548378  1
  O  O384  1  0.37618317  0.99203135  0.49332065  1
  O  O385  1  0.38794100  0.99006960  1.00614510  1
  O  O386  1  0.88752289  0.50474932  0.49754454  1
  O  O387  1  0.89615973  0.50496353  0.98553942  1
  O  O388  1  0.87566091  0.99683694  0.48860961  1
  O  O389  1  0.88444186  0.99299519  1.00549720  1
  O  O390  1  0.11059862  -0.00494407  0.01643715  1
  O  O391  1  0.12529419  0.00545336  0.51011063  1
  O  O392  1  0.12108796  0.50918821  0.00562454  1
  O  O393  1  0.13797438  0.52053334  0.52236008  1
  O  O394  1  0.61242514  -0.00708021  0.01208358  1
  O  O395  1  0.62287186  0.00701042  0.51012607  1
  O  O396  1  0.62450931  0.49369581  0.01286617  1
  O  O397  1  0.63007062  0.51255797  0.50624741  1
  O  O398  1  0.37028405  0.37189345  0.11779544  1
  O  O399  1  0.37454547  0.36222520  0.62786884  1
  O  O400  1  0.37167320  0.86717836  0.11716212  1
  O  O401  1  0.37214194  0.87144677  0.61541284  1
  O  O402  1  0.88309639  0.35818471  0.13559542  1
  O  O403  1  0.87643408  0.38688287  0.62699394  1
  O  O404  1  0.86572176  0.85711638  0.12707796  1
  O  O405  1  0.86607571  0.86797004  0.62683416  1
  O  O406  1  0.11751787  0.12968755  0.38440731  1
  O  O407  1  0.13585713  0.12310590  0.87513483  1
  O  O408  1  0.12378115  0.62611673  0.39249479  1
  O  O409  1  0.13329273  0.62839145  0.88508918  1
  O  O410  1  0.61663016  0.12878683  0.37218638  1
  O  O411  1  0.63495981  0.13779342  0.86976133  1
  O  O412  1  0.63207381  0.63074474  0.38222423  1
  O  O413  1  0.64619231  0.62300757  0.86861541  1
