# generated using pymatgen
data_V79Zn79O256
_symmetry_space_group_name_H-M   'P 1'
_cell_length_a   16.85861078
_cell_length_b   16.87309980
_cell_length_c   16.85010516
_cell_angle_alpha   89.99889477
_cell_angle_beta   90.02401190
_cell_angle_gamma   89.96064915
_symmetry_Int_Tables_number   1
_chemical_formula_structural   V79Zn79O256
_chemical_formula_sum   'V79 Zn79 O256'
_cell_volume   4793.12918444
_cell_formula_units_Z   1
loop_
 _symmetry_equiv_pos_site_id
 _symmetry_equiv_pos_as_xyz
  1  'x, y, z'
loop_
 _atom_site_type_symbol
 _atom_site_label
 _atom_site_symmetry_multiplicity
 _atom_site_fract_x
 _atom_site_fract_y
 _atom_site_fract_z
 _atom_site_occupancy
  V  V0  1  0.75187869  0.25973555  0.51574175  1
  V  V1  1  0.37521004  0.62128684  0.75047619  1
  V  V2  1  -0.00310280  0.13516732  0.63068400  1
  V  V3  1  0.11230369  0.25856952  0.86253117  1
  V  V4  1  0.11669887  0.11214348  -0.00084565  1
  V  V5  1  0.63161804  0.87925494  0.25938816  1
  V  V6  1  0.86836018  0.87209858  0.51434997  1
  V  V7  1  0.12316460  0.88173215  0.24623230  1
  V  V8  1  0.25716603  0.13257084  0.37249518  1
  V  V9  1  0.87989090  0.51183976  0.38050346  1
  V  V10  1  0.37010797  0.36912324  0.01291634  1
  V  V11  1  0.50257262  0.00177615  0.00453531  1
  V  V12  1  0.88746534  0.25217565  0.12611265  1
  V  V13  1  0.75679839  0.50189460  0.75599408  1
  V  V14  1  0.49803625  0.24832856  0.74816822  1
  V  V15  1  -0.01967238  0.63539198  0.62776711  1
  V  V16  1  -0.00307766  0.49098442  -0.01397176  1
  V  V17  1  0.23834747  0.50030775  0.24494207  1
  V  V18  1  0.63025403  0.37439415  0.25972893  1
  V  V19  1  0.63269827  0.13326770  0.00342772  1
  V  V20  1  0.12066718  0.87268139  0.74808178  1
  V  V21  1  0.49230789  0.25637558  0.24877394  1
  V  V22  1  0.75649891  0.36660020  0.12374589  1
  V  V23  1  0.12177299  0.35715738  0.24948372  1
  V  V24  1  0.65916153  0.52197568  0.09338527  1
  V  V25  1  0.12309362  0.62415609  0.00080680  1
  V  V26  1  0.49908647  0.49789729  -0.00060589  1
  V  V27  1  0.25148055  -0.00660785  0.74534268  1
  V  V28  1  0.26004344  0.25441272  0.51114682  1
  V  V29  1  0.12438408  0.13262300  0.49313233  1
  V  V30  1  0.42073149  0.56302223  0.30649885  1
  V  V31  1  0.24840477  0.62003156  0.86932898  1
  V  V32  1  -0.00134595  -0.00112434  0.50005654  1
  V  V33  1  0.50730770  0.12367454  0.61129213  1
  V  V34  1  0.74803559  0.88254868  0.12658088  1
  V  V35  1  -0.00190287  0.62210037  0.12979885  1
  V  V36  1  0.86880015  0.87389596  -0.00031858  1
  V  V37  1  0.25088236  0.25180195  0.00978893  1
  V  V38  1  0.62650403  0.37709787  0.74801480  1
  V  V39  1  0.49319811  0.89287005  0.37700651  1
  V  V40  1  0.87235570  0.13443388  0.74685810  1
  V  V41  1  0.12767438  -0.00382713  0.62405766  1
  V  V42  1  0.24700781  0.62209941  0.37171357  1
  V  V43  1  0.50044370  0.75033273  0.25976080  1
  V  V44  1  0.76081934  0.51160291  0.25686521  1
  V  V45  1  0.24577519  0.88243094  0.12417542  1
  V  V46  1  0.86544215  0.64347418  0.76421378  1
  V  V47  1  0.74347895  0.12930176  0.38319130  1
  V  V48  1  0.87112563  0.12795061  0.25062938  1
  V  V49  1  0.87590425  0.36990898  -0.01923468  1
  V  V50  1  0.38077207  0.87326713  -0.00194029  1
  V  V51  1  0.24905057  0.12614219  0.87375325  1
  V  V52  1  0.37492939  0.88947452  0.49962375  1
  V  V53  1  0.74134138  -0.01577526  0.74596659  1
  V  V54  1  -0.00165854  0.74961212  0.24950146  1
  V  V55  1  0.62437261  -0.00907689  0.60925955  1
  V  V56  1  0.62832028  0.63136481  0.49097038  1
  V  V57  1  0.87624195  -0.00213938  0.87497761  1
  V  V58  1  0.24456096  0.39869478  0.63741320  1
  V  V59  1  0.86911652  0.74964683  0.12516508  1
  V  V60  1  0.37305097  0.74630219  0.13057612  1
  V  V61  1  0.25598288  -0.00165447  0.25826661  1
  V  V62  1  0.37080933  0.49415201  0.87127999  1
  V  V63  1  -0.00100183  0.87594031  0.87996513  1
  V  V64  1  0.87105277  0.00012645  0.37090042  1
  V  V65  1  0.00342648  0.11022210  0.12799054  1
  V  V66  1  0.11952038  0.74934598  0.87033283  1
  V  V67  1  0.51149266  0.75918895  0.75588799  1
  V  V68  1  0.49602500  0.62068475  0.11877717  1
  V  V69  1  0.38199538  -0.00579732  0.87429332  1
  V  V70  1  0.25215437  0.75608917  0.50633569  1
  V  V71  1  0.37761725  0.12706971  0.74389859  1
  V  V72  1  0.62677938  0.74994879  0.90190216  1
  V  V73  1  0.38525255  0.39479949  0.49273698  1
  V  V74  1  0.62512222  0.49657497  0.61977273  1
  V  V75  1  0.63662071  0.24974971  0.87521353  1
  V  V76  1  0.12478600  0.61813002  0.50989882  1
  V  V77  1  0.00082354  0.35540704  0.37526519  1
  V  V78  1  0.49691326  0.61927332  0.62048698  1
  Zn  Zn79  1  0.12471446  0.48506893  0.11924550  1
  Zn  Zn80  1  0.75319626  0.12483658  0.87558360  1
  Zn  Zn81  1  0.62762384  0.00808600  0.13220489  1
  Zn  Zn82  1  0.00822796  0.49324360  0.50411102  1
  Zn  Zn83  1  0.37990231  0.11909390  0.24628482  1
  Zn  Zn84  1  0.74906421  0.75033344  0.49646607  1
  Zn  Zn85  1  0.37522740  0.76064578  0.63199450  1
  Zn  Zn86  1  0.49781884  0.37127859  0.87563488  1
  Zn  Zn87  1  0.88112264  0.37212947  0.51778003  1
  Zn  Zn88  1  0.62092080  0.25153946  0.38646963  1
  Zn  Zn89  1  0.48408331  0.14350735  0.11629448  1
  Zn  Zn90  1  0.12504319  0.75232052  0.37513930  1
  Zn  Zn91  1  -0.00036187  0.87482942  0.37438190  1
  Zn  Zn92  1  0.73438462  0.61896568  0.91105251  1
  Zn  Zn93  1  0.25034218  0.74969450  0.00081582  1
  Zn  Zn94  1  0.18561448  0.18085487  0.18565130  1
  Zn  Zn95  1  0.18564234  0.18752961  0.68523656  1
  Zn  Zn96  1  0.18566190  0.69007931  0.18784094  1
  Zn  Zn97  1  0.18944409  0.68793574  0.68650928  1
  Zn  Zn98  1  0.69144255  0.19019235  0.18866444  1
  Zn  Zn99  1  0.68450890  0.18035223  0.68837257  1
  Zn  Zn100  1  0.68558108  0.69369329  0.19093819  1
  Zn  Zn101  1  0.68888858  0.69066106  0.67980238  1
  Zn  Zn102  1  0.30803516  0.31797605  0.31694385  1
  Zn  Zn103  1  0.30740815  0.31112602  0.81193142  1
  Zn  Zn104  1  0.31249836  0.81188072  0.31533015  1
  Zn  Zn105  1  0.31146657  0.80743584  0.81328749  1
  Zn  Zn106  1  0.81779615  0.31121096  0.31547222  1
  Zn  Zn107  1  0.81716372  0.31970186  0.68988654  1
  Zn  Zn108  1  0.81441828  0.80684052  0.31997313  1
  Zn  Zn109  1  0.79361564  0.80741737  0.82480593  1
  Zn  Zn110  1  0.19021252  0.43237550  0.43172694  1
  Zn  Zn111  1  0.18582769  0.43428964  0.93393898  1
  Zn  Zn112  1  0.18652729  0.94000155  0.43315753  1
  Zn  Zn113  1  0.19234817  0.93551673  0.93520278  1
  Zn  Zn114  1  0.69387043  0.44033734  0.44226325  1
  Zn  Zn115  1  0.69436117  0.43028355  0.93159826  1
  Zn  Zn116  1  0.68920482  0.93755880  0.43386123  1
  Zn  Zn117  1  0.68453836  0.93641086  0.93443542  1
  Zn  Zn118  1  0.31203620  0.06393637  0.06525927  1
  Zn  Zn119  1  0.31397904  0.06761421  0.56157645  1
  Zn  Zn120  1  0.31181370  0.55938772  0.06116000  1
  Zn  Zn121  1  0.31086152  0.56036976  0.56088664  1
  Zn  Zn122  1  0.81533236  0.06138827  0.06245226  1
  Zn  Zn123  1  0.80797555  0.06068222  0.56326125  1
  Zn  Zn124  1  0.82807277  0.55492227  0.06763202  1
  Zn  Zn125  1  0.80832452  0.55953252  0.56340645  1
  Zn  Zn126  1  0.43948915  0.43025843  0.18680389  1
  Zn  Zn127  1  0.43176056  0.43042472  0.67925011  1
  Zn  Zn128  1  0.43778760  0.93731539  0.18606143  1
  Zn  Zn129  1  0.44302791  0.94039651  0.68219351  1
  Zn  Zn130  1  0.94246994  0.43650433  0.19249363  1
  Zn  Zn131  1  0.94630493  0.45586430  0.68531786  1
  Zn  Zn132  1  0.93481849  0.93827642  0.18786958  1
  Zn  Zn133  1  0.93890190  0.94018751  0.69282197  1
  Zn  Zn134  1  0.06403756  0.06457103  0.31139772  1
  Zn  Zn135  1  0.06080009  0.06351756  0.81278647  1
  Zn  Zn136  1  0.06342077  0.56208096  0.31807838  1
  Zn  Zn137  1  0.05092592  0.57169906  0.80996439  1
  Zn  Zn138  1  0.56035156  0.06801119  0.30946697  1
  Zn  Zn139  1  0.56421999  0.06202784  0.81397614  1
  Zn  Zn140  1  0.58358652  0.55957691  0.30323209  1
  Zn  Zn141  1  0.56257896  0.56758441  0.81443349  1
  Zn  Zn142  1  0.43854269  0.19681849  0.42977019  1
  Zn  Zn143  1  0.43897061  0.18690569  0.93403811  1
  Zn  Zn144  1  0.43789288  0.69159134  0.44352350  1
  Zn  Zn145  1  0.44153183  0.68770848  0.93600269  1
  Zn  Zn146  1  0.93045713  0.18655188  0.44466011  1
  Zn  Zn147  1  0.93581814  0.18959841  0.93551784  1
  Zn  Zn148  1  0.93822085  0.69178134  0.43793278  1
  Zn  Zn149  1  0.93613978  0.68892518  0.93994890  1
  Zn  Zn150  1  0.06563409  0.30547862  0.05743339  1
  Zn  Zn151  1  0.06743830  0.31651944  0.56532977  1
  Zn  Zn152  1  0.06002517  0.81321957  0.06136917  1
  Zn  Zn153  1  0.06063126  0.81041398  0.56297507  1
  Zn  Zn154  1  0.56767876  0.32196173  0.06585404  1
  Zn  Zn155  1  0.56129463  0.30915391  0.56054505  1
  Zn  Zn156  1  0.56086117  0.81506508  0.07199027  1
  Zn  Zn157  1  0.55842294  0.80902470  0.56443427  1
  O  O158  1  0.11350108  0.12553721  0.11267340  1
  O  O159  1  0.11433121  0.11503793  0.61988594  1
  O  O160  1  0.11613718  0.62881346  0.11218396  1
  O  O161  1  0.12750578  0.62707296  0.61245498  1
  O  O162  1  0.62719287  0.12672415  0.11258273  1
  O  O163  1  0.61303138  0.11620514  0.62605513  1
  O  O164  1  0.61278190  0.61203905  0.13525849  1
  O  O165  1  0.61214066  0.61473992  0.62172233  1
  O  O166  1  0.36689602  0.37558693  0.39356280  1
  O  O167  1  0.37301252  0.38308047  0.88073751  1
  O  O168  1  0.38544652  0.87489863  0.38111767  1
  O  O169  1  0.36503290  0.88378510  0.88538220  1
  O  O170  1  0.89251675  0.37909132  0.37380267  1
  O  O171  1  0.87268820  0.36911239  0.88531858  1
  O  O172  1  0.87924734  0.88946919  0.37878224  1
  O  O173  1  0.87882464  0.87630976  0.88049742  1
  O  O174  1  0.24719754  0.01334761  0.36842167  1
  O  O175  1  0.25737430  0.00815907  0.86612520  1
  O  O176  1  0.24579139  0.51185069  0.36285187  1
  O  O177  1  0.25731167  0.50930375  0.87991476  1
  O  O178  1  0.76138746  0.01581651  0.38193300  1
  O  O179  1  0.75713190  0.00031804  0.86368941  1
  O  O180  1  0.76319332  0.49424201  0.36457105  1
  O  O181  1  0.74054734  0.50855047  0.86008321  1
  O  O182  1  0.24493741  0.50611735  0.13925175  1
  O  O183  1  0.24410600  0.50001476  0.63049224  1
  O  O184  1  0.25190359  0.98761224  0.13378553  1
  O  O185  1  0.23977536  1.00895720  0.63392436  1
  O  O186  1  0.76205407  0.48826035  0.14183716  1
  O  O187  1  0.73181936  0.50581961  0.63842122  1
  O  O188  1  0.75149691  0.98793588  0.12753799  1
  O  O189  1  0.73656510  1.00409497  0.63542537  1
  O  O190  1  0.01073900  0.37360043  0.26241814  1
  O  O191  1  0.04928553  0.42292680  0.74507496  1
  O  O192  1  0.00832979  0.86983653  0.24584661  1
  O  O193  1  0.01294671  0.87801152  0.76045777  1
  O  O194  1  0.52127361  0.37167328  0.24262477  1
  O  O195  1  0.50470919  0.36531963  0.74877123  1
  O  O196  1  0.50366977  0.87004548  0.26049556  1
  O  O197  1  0.48986433  0.85700748  0.74464972  1
  O  O198  1  0.50017287  0.14155983  0.24435929  1
  O  O199  1  0.49360286  0.12936955  0.74795013  1
  O  O200  1  0.49086389  0.62405668  0.24588253  1
  O  O201  1  0.49123694  0.63285209  0.74329001  1
  O  O202  1  0.99701049  0.12144983  0.23438089  1
  O  O203  1  0.98913129  0.11753753  0.73886851  1
  O  O204  1  1.01047248  0.63528294  0.23954249  1
  O  O205  1  0.97613100  0.62238739  0.74089668  1
  O  O206  1  0.36074039  0.25378653  -0.00893387  1
  O  O207  1  0.36113969  0.25035954  0.49707374  1
  O  O208  1  0.37702138  0.75766479  0.00758506  1
  O  O209  1  0.36289161  0.75559074  0.50195864  1
  O  O210  1  0.88118655  0.26325749  0.00721051  1
  O  O211  1  0.85916793  0.25222269  0.50328129  1
  O  O212  1  0.87968261  0.76142422  0.01158793  1
  O  O213  1  0.88171689  0.77047918  0.49736214  1
  O  O214  1  0.13689086  0.23709635  0.50577737  1
  O  O215  1  0.13640450  0.23985318  0.98854726  1
  O  O216  1  0.13908755  0.74729013  0.49846337  1
  O  O217  1  0.12371023  0.73997027  0.98984243  1
  O  O218  1  0.64218629  0.25554582  0.49998268  1
  O  O219  1  0.61829203  0.23993283  0.99320387  1
  O  O220  1  0.61808832  0.73419650  0.50144373  1
  O  O221  1  0.61169332  0.74289942  1.00181497  1
  O  O222  1  0.51115244  0.25602335  0.14104145  1
  O  O223  1  0.50792635  0.23553215  0.63867134  1
  O  O224  1  0.49348963  0.73847215  0.13498090  1
  O  O225  1  0.49621075  0.73581794  0.63526204  1
  O  O226  1  0.99206534  0.23714714  0.11867503  1
  O  O227  1  1.00563982  0.23333606  0.62203503  1
  O  O228  1  0.99336736  0.74355540  0.12971170  1
  O  O229  1  1.00694421  0.73401091  0.62609020  1
  O  O230  1  -0.00185851  0.25588220  0.37972389  1
  O  O231  1  0.01292954  0.24715655  0.87616194  1
  O  O232  1  0.00062560  0.75238717  0.36097996  1
  O  O233  1  0.01092735  0.75717279  0.87646174  1
  O  O234  1  0.50977988  0.24873831  0.35760359  1
  O  O235  1  0.50879562  0.24908979  0.86301619  1
  O  O236  1  0.49366139  0.75226163  0.36297108  1
  O  O237  1  0.50859292  0.74614132  0.86409818  1
  O  O238  1  0.24635563  0.13087372  0.49050391  1
  O  O239  1  0.24176163  0.12985889  0.99215328  1
  O  O240  1  0.24352660  0.63484926  0.49394297  1
  O  O241  1  0.23800939  0.62335836  0.99137917  1
  O  O242  1  0.75546479  0.13583008  0.48999085  1
  O  O243  1  0.73678595  0.12038074  0.99761197  1
  O  O244  1  0.73112315  0.62235677  0.50472378  1
  O  O245  1  0.72528907  0.57616834  1.02296655  1
  O  O246  1  0.25322186  0.35933508  -0.00363508  1
  O  O247  1  0.25240074  0.36366820  0.50417183  1
  O  O248  1  0.25918818  0.87440424  0.00764016  1
  O  O249  1  0.26062780  0.86462433  0.48831843  1
  O  O250  1  0.76847318  0.38549696  0.00897873  1
  O  O251  1  0.75614136  0.36402978  0.50162679  1
  O  O252  1  0.75971283  0.87812966  0.00986337  1
  O  O253  1  0.76633025  0.88110897  0.49761471  1
  O  O254  1  0.13066423  0.49711204  0.24605588  1
  O  O255  1  0.10209027  0.47806325  0.75203856  1
  O  O256  1  0.13375343  0.98940801  0.25143073  1
  O  O257  1  0.13189366  0.99431315  0.74481509  1
  O  O258  1  0.64523628  0.48805880  0.24253730  1
  O  O259  1  0.62674334  0.49401243  0.74534022  1
  O  O260  1  0.61668043  0.98432529  0.24818122  1
  O  O261  1  0.63825413  1.00166510  0.75078366  1
  O  O262  1  0.36118095  -0.00331552  0.24969120  1
  O  O263  1  0.37023260  0.00295086  0.75542794  1
  O  O264  1  0.36212990  0.49813546  0.24828547  1
  O  O265  1  0.38372522  0.50938826  0.76108468  1
  O  O266  1  0.88137999  0.01175548  0.26062753  1
  O  O267  1  0.86425764  0.00298123  0.75725954  1
  O  O268  1  0.86870230  0.49823283  0.26156246  1
  O  O269  1  0.85882311  0.50470482  0.74885166  1
  O  O270  1  0.11138986  0.37816375  0.36536431  1
  O  O271  1  0.13014629  0.35774183  0.87424207  1
  O  O272  1  0.12111425  0.87346020  0.36329743  1
  O  O273  1  0.11927883  0.86927512  0.87116313  1
  O  O274  1  0.63245825  0.38027986  0.36172114  1
  O  O275  1  0.62106530  0.36786537  0.86504634  1
  O  O276  1  0.61252071  0.87921638  0.36640425  1
  O  O277  1  0.62894893  0.85202827  0.88284880  1
  O  O278  1  0.37168728  0.12866875  0.13262066  1
  O  O279  1  0.38913920  0.11404654  0.63664834  1
  O  O280  1  0.38105649  0.63517619  0.11915434  1
  O  O281  1  0.38416206  0.62040057  0.63316385  1
  O  O282  1  0.88373616  0.12954085  0.12787732  1
  O  O283  1  0.88586455  0.11734897  0.63453520  1
  O  O284  1  0.88708841  0.63666239  0.11924758  1
  O  O285  1  0.87664889  0.63255235  0.62567538  1
  O  O286  1  0.24475224  0.24302576  0.10818658  1
  O  O287  1  0.25484222  0.24111039  0.61249162  1
  O  O288  1  0.25809116  0.75761354  0.12367485  1
  O  O289  1  0.25428389  0.74938962  0.61115743  1
  O  O290  1  0.76374887  0.25966112  0.12514209  1
  O  O291  1  0.74806523  0.25099224  0.62139249  1
  O  O292  1  0.76077793  0.76142168  0.13355123  1
  O  O293  1  0.74470842  0.75415263  0.60918329  1
  O  O294  1  0.24680903  0.23710124  0.38235633  1
  O  O295  1  0.24417539  0.23531799  0.87761805  1
  O  O296  1  0.25152205  0.73826152  0.38185112  1
  O  O297  1  0.24001602  0.73893827  0.87959869  1
  O  O298  1  0.74997079  0.24021886  0.38144982  1
  O  O299  1  0.73628024  0.24700128  0.87201766  1
  O  O300  1  0.74908846  0.74799432  0.38460603  1
  O  O301  1  0.73592520  0.73774629  0.89334271  1
  O  O302  1  0.01100617  0.12509349  0.00489136  1
  O  O303  1  0.00382867  0.11829849  0.51018289  1
  O  O304  1  0.00540283  0.61431198  0.00429394  1
  O  O305  1  0.01477838  0.63220671  0.50537552  1
  O  O306  1  0.50855838  0.11931741  0.00069869  1
  O  O307  1  0.49316722  0.13446591  0.51311218  1
  O  O308  1  0.49452641  0.61247090  0.00852481  1
  O  O309  1  0.50285335  0.62641576  0.51541657  1
  O  O310  1  0.48359181  0.37052226  0.50694349  1
  O  O311  1  0.48834979  0.38009762  0.99837203  1
  O  O312  1  0.48904771  0.86985288  0.48467848  1
  O  O313  1  0.48806504  0.88434109  1.00808201  1
  O  O314  1  1.00398217  0.37566819  0.48801674  1
  O  O315  1  0.99486037  0.38410706  1.00172617  1
  O  O316  1  0.99582000  0.88671473  0.49848523  1
  O  O317  1  0.99021130  0.87398599  0.98885023  1
  O  O318  1  0.48598761  0.50688056  0.35452431  1
  O  O319  1  0.48870627  0.49984440  0.88429507  1
  O  O320  1  0.49669851  0.99194534  0.37253001  1
  O  O321  1  0.48856373  1.00369957  0.88393173  1
  O  O322  1  0.98917540  0.49741404  0.37921348  1
  O  O323  1  1.00088725  0.50188228  0.88738876  1
  O  O324  1  0.99221589  1.00622186  0.38634775  1
  O  O325  1  0.98880670  0.98867691  0.86741430  1
  O  O326  1  -0.00665235  0.01122353  0.11847287  1
  O  O327  1  0.00904400  0.00673018  0.61745907  1
  O  O328  1  0.00116910  0.51025872  0.12067807  1
  O  O329  1  -0.00086128  0.52777639  0.61415251  1
  O  O330  1  0.50202923  0.00336207  0.11358943  1
  O  O331  1  0.51209444  0.01308244  0.62711558  1
  O  O332  1  0.49351105  0.50766423  0.11564226  1
  O  O333  1  0.50883219  0.51155994  0.63484341  1
  O  O334  1  0.23376556  0.38887266  0.26016537  1
  O  O335  1  0.25905647  0.37730231  0.73624485  1
  O  O336  1  0.24356205  0.87933703  0.24567691  1
  O  O337  1  0.24087540  0.88596988  0.75663252  1
  O  O338  1  0.74599491  0.37651350  0.24364094  1
  O  O339  1  0.73829453  0.38886961  0.74770746  1
  O  O340  1  0.73618178  0.87166970  0.24878907  1
  O  O341  1  0.75230011  0.88536962  0.75080079  1
  O  O342  1  0.24452099  0.11785961  0.26135531  1
  O  O343  1  0.25742797  0.11518802  0.75478997  1
  O  O344  1  0.24243426  0.61556525  0.25772973  1
  O  O345  1  0.25853444  0.62866835  0.76016907  1
  O  O346  1  0.76201893  0.12980647  0.26103864  1
  O  O347  1  0.76277616  0.11553121  0.74943881  1
  O  O348  1  0.74597561  0.61021952  0.24655314  1
  O  O349  1  0.75812982  0.61717195  0.74504187  1
  O  O350  1  0.36135777  0.12907218  0.36766655  1
  O  O351  1  0.36764805  0.11419621  0.86747692  1
  O  O352  1  0.36831132  0.62328655  0.37380316  1
  O  O353  1  0.36699926  0.61732963  0.87162197  1
  O  O354  1  0.86970714  0.12084276  0.36866136  1
  O  O355  1  0.87778266  0.11643749  0.86431538  1
  O  O356  1  0.87842448  0.61144991  0.38145947  1
  O  O357  1  0.86621165  0.63088835  0.86825994  1
  O  O358  1  0.11460202  0.37079226  0.14198266  1
  O  O359  1  0.14615637  0.37258915  0.62074788  1
  O  O360  1  0.13539194  0.86785317  0.13067284  1
  O  O361  1  0.11926638  0.88620168  0.63330853  1
  O  O362  1  0.64490466  0.39216276  0.12193799  1
  O  O363  1  0.61493036  0.38847381  0.63398781  1
  O  O364  1  0.63244912  0.87897481  0.13535460  1
  O  O365  1  0.61259122  0.89162626  0.62109250  1
  O  O366  1  0.13259245  0.25857774  0.25259309  1
  O  O367  1  0.12568425  0.23963829  0.76301639  1
  O  O368  1  0.11613725  0.76142873  0.24918586  1
  O  O369  1  0.13446244  0.76036268  0.75919185  1
  O  O370  1  0.62857609  0.26646020  0.25086434  1
  O  O371  1  0.62002364  0.25698250  0.75471211  1
  O  O372  1  0.61149371  0.76495507  0.24393022  1
  O  O373  1  0.61226113  0.74834362  0.74646861  1
  O  O374  1  0.39074479  0.26511455  0.25259553  1
  O  O375  1  0.38345129  0.23641726  0.75835427  1
  O  O376  1  0.38290971  0.75705586  0.23810795  1
  O  O377  1  0.37993548  0.73761576  0.75109029  1
  O  O378  1  0.87768643  0.23880434  0.24061229  1
  O  O379  1  0.86918455  0.23271055  0.75108607  1
  O  O380  1  0.88762873  0.76109871  0.23848894  1
  O  O381  1  0.86182476  0.74206711  0.75441622  1
  O  O382  1  0.37689176  0.49664624  0.49442292  1
  O  O383  1  0.37788676  0.49041374  0.99250259  1
  O  O384  1  0.36608396  0.98836161  0.49674504  1
  O  O385  1  0.38033034  0.99470548  0.99308640  1
  O  O386  1  0.87035068  0.49324968  0.48849467  1
  O  O387  1  0.89012979  0.48720148  1.00017241  1
  O  O388  1  0.88245657  0.99648635  0.49441268  1
  O  O389  1  0.86946174  0.99108294  0.98512629  1
  O  O390  1  0.12968557  0.01315975  -0.00600345  1
  O  O391  1  0.11966040  0.00635243  0.50642481  1
  O  O392  1  0.11552846  0.50471243  0.00059485  1
  O  O393  1  0.12946070  0.51598280  0.49297115  1
  O  O394  1  0.61653696  0.01101392  -0.00238841  1
  O  O395  1  0.63124192  0.00222884  0.50988889  1
  O  O396  1  0.60844253  0.48436764  -0.00019886  1
  O  O397  1  0.62673135  0.50366994  0.51514010  1
  O  O398  1  0.37169938  0.37611729  0.11254716  1
  O  O399  1  0.35631408  0.38301712  0.60748386  1
  O  O400  1  0.36763013  0.86733820  0.11752904  1
  O  O401  1  0.38321652  0.87597966  0.60504308  1
  O  O402  1  0.87414069  0.36624382  0.12835727  1
  O  O403  1  0.89542244  0.37330961  0.63220442  1
  O  O404  1  0.86907206  0.87138948  0.11850749  1
  O  O405  1  0.88037294  0.88437691  0.61334771  1
  O  O406  1  0.13228399  0.12008337  0.38664840  1
  O  O407  1  0.12953836  0.12735502  0.88328494  1
  O  O408  1  0.13179019  0.63096067  0.38589033  1
  O  O409  1  0.12744929  0.62932686  0.87674761  1
  O  O410  1  0.64148607  0.12444047  0.36935153  1
  O  O411  1  0.62593105  0.13165722  0.88591709  1
  O  O412  1  0.61571748  0.61664478  0.39221101  1
  O  O413  1  0.62247424  0.63976345  0.87589961  1
