# generated using pymatgen
data_V79Zn79O256
_symmetry_space_group_name_H-M   'P 1'
_cell_length_a   17.00630314
_cell_length_b   16.92663157
_cell_length_c   16.97131026
_cell_angle_alpha   89.70618848
_cell_angle_beta   89.72675166
_cell_angle_gamma   90.12630181
_symmetry_Int_Tables_number   1
_chemical_formula_structural   V79Zn79O256
_chemical_formula_sum   'V79 Zn79 O256'
_cell_volume   4885.21973301
_cell_formula_units_Z   1
loop_
 _symmetry_equiv_pos_site_id
 _symmetry_equiv_pos_as_xyz
  1  'x, y, z'
loop_
 _atom_site_type_symbol
 _atom_site_label
 _atom_site_symmetry_multiplicity
 _atom_site_fract_x
 _atom_site_fract_y
 _atom_site_fract_z
 _atom_site_occupancy
  V  V0  1  0.62396460  0.48864581  0.12720241  1
  V  V1  1  0.62977514  0.63318766  0.49553362  1
  V  V2  1  0.50647155  0.75103658  0.25760542  1
  V  V3  1  0.62844915  0.63287162  -0.00120579  1
  V  V4  1  0.37620293  0.63170142  0.25374389  1
  V  V5  1  0.00948016  0.25660132  0.27116636  1
  V  V6  1  0.76533885  0.86493357  0.63445178  1
  V  V7  1  0.50409449  0.88043251  0.88468586  1
  V  V8  1  0.37544013  0.00142960  0.87970381  1
  V  V9  1  0.12383613  -0.00720811  0.62820135  1
  V  V10  1  0.13313178  0.49437069  0.62352046  1
  V  V11  1  0.86915085  0.75197880  0.13333746  1
  V  V12  1  0.25214948  0.75263742  0.50312798  1
  V  V13  1  0.62544983  0.48636701  0.62562171  1
  V  V14  1  0.50380161  0.87339742  0.38088719  1
  V  V15  1  0.13043822  0.24765033  0.87202388  1
  V  V16  1  0.74673329  0.48627292  0.74107884  1
  V  V17  1  0.12917987  -0.00815843  0.13143536  1
  V  V18  1  0.51040990  0.36968462  0.86535436  1
  V  V19  1  0.62773298  0.87675350  0.25400594  1
  V  V20  1  0.00920538  0.75384649  0.25471430  1
  V  V21  1  0.62908531  0.89321226  0.74650016  1
  V  V22  1  0.88912228  0.49590146  0.36756652  1
  V  V23  1  0.32132012  0.69800687  0.07192075  1
  V  V24  1  -0.00277401  0.62552664  0.11463765  1
  V  V25  1  0.48791604  0.09656091  0.62193540  1
  V  V26  1  0.85782045  0.36930768  0.51606815  1
  V  V27  1  0.74462806  0.51188507  0.25991047  1
  V  V28  1  0.12422251  0.62966270  0.49624557  1
  V  V29  1  0.87513111  0.12846283  0.75000090  1
  V  V30  1  0.87506653  0.62740734  0.74172915  1
  V  V31  1  0.24335952  -0.00258061  0.75812596  1
  V  V32  1  0.12396274  0.12846973  0.49483788  1
  V  V33  1  0.87104851  -0.00015844  0.86667669  1
  V  V34  1  0.37326430  0.37623090  0.50275035  1
  V  V35  1  0.72664954  0.13618985  0.87161435  1
  V  V36  1  0.86945830  -0.00471568  0.37634886  1
  V  V37  1  0.49527969  0.25835582  0.23997542  1
  V  V38  1  0.37203122  0.50826901  0.86631119  1
  V  V39  1  0.75552898  0.14352957  0.37459394  1
  V  V40  1  -0.00434544  0.38039078  0.88352590  1
  V  V41  1  0.25075997  0.12087449  0.37264808  1
  V  V42  1  0.25241049  0.51634409  0.74957348  1
  V  V43  1  0.78144763  0.38578395  0.12203034  1
  V  V44  1  0.00499023  0.12562654  0.12334827  1
  V  V45  1  0.37666652  0.87718820  0.50300211  1
  V  V46  1  0.24793561  0.25280610  0.01145320  1
  V  V47  1  0.37936228  0.50180556  0.37678057  1
  V  V48  1  0.49954487  0.49730553  -0.00015461  1
  V  V49  1  0.36760253  0.25609724  0.62932290  1
  V  V50  1  0.13405130  0.12059735  -0.00790363  1
  V  V51  1  0.37006695  0.36768090  0.00184285  1
  V  V52  1  0.62171378  0.25460227  0.37583036  1
  V  V53  1  -0.00506192  -0.00746072  0.49439655  1
  V  V54  1  0.00785795  0.48472442  0.49570501  1
  V  V55  1  0.74434088  0.88297735  0.12565968  1
  V  V56  1  0.88257975  0.12202041  0.24556511  1
  V  V57  1  0.24952369  0.25030366  0.50065368  1
  V  V58  1  0.51223556  0.24701076  0.74608842  1
  V  V59  1  0.74976253  0.62508295  0.87351201  1
  V  V60  1  0.62804942  0.74819495  0.86562745  1
  V  V61  1  0.87581146  0.49675805  0.88285689  1
  V  V62  1  -0.00206538  0.62881410  0.62041670  1
  V  V63  1  0.24688760  0.87387209  0.62797391  1
  V  V64  1  0.37765230  0.00137619  0.37579693  1
  V  V65  1  0.37763128  0.12815869  0.24228320  1
  V  V66  1  0.49274439  0.63072263  0.63364297  1
  V  V67  1  0.50527582  0.63592061  0.12471771  1
  V  V68  1  0.87076900  0.87252749  0.00105329  1
  V  V69  1  0.13241595  0.37587579  0.74689534  1
  V  V70  1  0.37355610  0.87897434  0.00785752  1
  V  V71  1  0.69317468  0.05765197  0.19865361  1
  V  V72  1  0.00346135  -0.00372271  -0.00235590  1
  V  V73  1  0.13949646  0.73824108  0.87305211  1
  V  V74  1  0.36380197  0.12630697  0.75497009  1
  V  V75  1  0.00018592  0.13083778  0.62705856  1
  V  V76  1  0.25063437  0.87325768  0.12999458  1
  V  V77  1  0.24793223  0.63218772  0.37687870  1
  V  V78  1  0.00868830  0.86782835  0.86740476  1
  Zn  Zn79  1  0.88987738  0.83200533  0.52116855  1
  Zn  Zn80  1  0.13111790  0.87317855  0.26742662  1
  Zn  Zn81  1  -0.00201605  0.25771417  0.74663328  1
  Zn  Zn82  1  0.48481787  0.74293441  0.75279688  1
  Zn  Zn83  1  0.24317428  0.49325077  0.25471411  1
  Zn  Zn84  1  0.75048058  0.26156979  -0.00608946  1
  Zn  Zn85  1  0.14934642  0.47624594  0.12603748  1
  Zn  Zn86  1  0.12574016  0.61945618  -0.00494902  1
  Zn  Zn87  1  0.50293406  0.37674186  0.37006649  1
  Zn  Zn88  1  0.00266221  0.76078815  0.73427954  1
  Zn  Zn89  1  0.64360443  0.13150166  0.53149934  1
  Zn  Zn90  1  0.51108788  0.11680518  0.11566863  1
  Zn  Zn91  1  0.88170564  0.25553248  0.11902087  1
  Zn  Zn92  1  0.50247253  0.50086122  0.50355090  1
  Zn  Zn93  1  0.74634152  0.75096420  0.48078005  1
  Zn  Zn94  1  0.18593665  0.18739749  0.19078643  1
  Zn  Zn95  1  0.18509523  0.18425850  0.68548960  1
  Zn  Zn96  1  0.16737784  0.65632851  0.20196789  1
  Zn  Zn97  1  0.17837514  0.69257895  0.68776686  1
  Zn  Zn98  1  0.65451125  0.24568552  0.15380502  1
  Zn  Zn99  1  0.68956725  0.06552663  0.68564119  1
  Zn  Zn100  1  0.68864786  0.69111554  0.19026776  1
  Zn  Zn101  1  0.68406565  0.67980830  0.68132957  1
  Zn  Zn102  1  0.31243678  0.30852782  0.31913221  1
  Zn  Zn103  1  0.31197784  0.31982473  0.81670789  1
  Zn  Zn104  1  0.31437321  0.81152386  0.31347215  1
  Zn  Zn105  1  0.31373033  0.81335200  0.81230071  1
  Zn  Zn106  1  0.82111896  0.32441896  0.30403516  1
  Zn  Zn107  1  0.81168910  0.30850405  0.80978791  1
  Zn  Zn108  1  0.80543731  0.82431666  0.31046051  1
  Zn  Zn109  1  0.81599559  0.80925645  0.81030666  1
  Zn  Zn110  1  0.19406158  0.43920742  0.43620122  1
  Zn  Zn111  1  0.18522716  0.43770807  0.93125250  1
  Zn  Zn112  1  0.18917367  0.94293733  0.43954587  1
  Zn  Zn113  1  0.19034902  0.92463910  0.94253955  1
  Zn  Zn114  1  0.69020408  0.43550434  0.44518282  1
  Zn  Zn115  1  0.68951847  0.44057675  0.94182662  1
  Zn  Zn116  1  0.70440768  0.95475083  0.49664787  1
  Zn  Zn117  1  0.69337007  0.93725999  0.93400969  1
  Zn  Zn118  1  0.30986103  0.06001714  0.06487131  1
  Zn  Zn119  1  0.31325917  0.06061969  0.56403715  1
  Zn  Zn120  1  0.28284470  0.52455097  0.04652253  1
  Zn  Zn121  1  0.31285606  0.56383612  0.56389467  1
  Zn  Zn122  1  0.82553513  0.09196975  0.03999712  1
  Zn  Zn123  1  0.81125612  0.06941690  0.56572815  1
  Zn  Zn124  1  0.81125505  0.56706438  0.06354085  1
  Zn  Zn125  1  0.84250215  0.60359610  0.52202665  1
  Zn  Zn126  1  0.42927362  0.44360148  0.18354007  1
  Zn  Zn127  1  0.43850619  0.43689673  0.68605560  1
  Zn  Zn128  1  0.43408777  0.94294107  0.19484933  1
  Zn  Zn129  1  0.42546044  0.91342104  0.70370446  1
  Zn  Zn130  1  0.98161224  0.42155711  0.17174751  1
  Zn  Zn131  1  0.94030119  0.44065843  0.68800237  1
  Zn  Zn132  1  0.94051677  0.93553104  0.18993001  1
  Zn  Zn133  1  0.94090820  0.94075777  0.68469824  1
  Zn  Zn134  1  0.06320661  0.06165803  0.31274609  1
  Zn  Zn135  1  0.06003027  0.06112694  0.81204546  1
  Zn  Zn136  1  0.05619548  0.56771685  0.30242300  1
  Zn  Zn137  1  0.06190220  0.56265228  0.80948581  1
  Zn  Zn138  1  0.59429197  0.03330940  0.37366469  1
  Zn  Zn139  1  0.56167058  0.07705216  0.93956699  1
  Zn  Zn140  1  0.56518876  0.56165728  0.31314557  1
  Zn  Zn141  1  0.56282893  0.55771301  0.80898621  1
  Zn  Zn142  1  0.43963039  0.18589100  0.43947824  1
  Zn  Zn143  1  0.42748566  0.18817715  0.92977471  1
  Zn  Zn144  1  0.44205811  0.68909592  0.44679927  1
  Zn  Zn145  1  0.44608059  0.69060548  0.93600571  1
  Zn  Zn146  1  0.93494505  0.18927050  0.44176011  1
  Zn  Zn147  1  0.94008821  0.19312493  0.93738827  1
  Zn  Zn148  1  0.88296237  0.70024644  0.38709825  1
  Zn  Zn149  1  0.93051826  0.68714516  0.93667677  1
  Zn  Zn150  1  0.06966930  0.31070429  0.05937932  1
  Zn  Zn151  1  0.06563435  0.31044367  0.56383246  1
  Zn  Zn152  1  0.06531347  0.80362416  0.05895371  1
  Zn  Zn153  1  0.05626877  0.80733431  0.43247144  1
  Zn  Zn154  1  0.54298048  0.27178102  0.02405117  1
  Zn  Zn155  1  0.55827648  0.30564123  0.55776914  1
  Zn  Zn156  1  0.56023268  0.93697008  0.06675702  1
  Zn  Zn157  1  0.56475258  0.81113349  0.56673204  1
  O  O158  1  0.12089355  0.11204783  0.11509198  1
  O  O159  1  0.11846114  0.11468086  0.61627853  1
  O  O160  1  0.10236034  0.64257924  0.10953464  1
  O  O161  1  0.11781110  0.61554081  0.61740939  1
  O  O162  1  0.63260589  0.12212523  0.15116188  1
  O  O163  1  0.58662725  0.10852193  0.63967872  1
  O  O164  1  0.62180184  0.62176405  0.11612770  1
  O  O165  1  0.61344280  0.61335530  0.61898284  1
  O  O166  1  0.37335795  0.38692198  0.38242245  1
  O  O167  1  0.38447491  0.38416453  0.87916292  1
  O  O168  1  0.38038947  0.88136671  0.38030180  1
  O  O169  1  0.38363100  0.88149694  0.88768870  1
  O  O170  1  0.86163896  0.39427634  0.38951834  1
  O  O171  1  0.88896987  0.37934047  0.86609825  1
  O  O172  1  0.86971738  0.89522382  0.37892522  1
  O  O173  1  0.88112873  0.88365964  0.88008693  1
  O  O174  1  0.26134201  0.01145352  0.37987575  1
  O  O175  1  0.25454592  -0.01455015  0.86552671  1
  O  O176  1  0.26410453  0.51482192  0.37386160  1
  O  O177  1  0.26553584  0.50117326  0.86683917  1
  O  O178  1  0.76946951  0.01892089  0.38054507  1
  O  O179  1  0.77058724  -0.00059096  0.87080749  1
  O  O180  1  0.73726289  0.49714718  0.35946524  1
  O  O181  1  0.75416894  0.50537426  0.86354085  1
  O  O182  1  0.26638424  0.47699808  0.14586313  1
  O  O183  1  0.23989309  0.50393423  0.63149269  1
  O  O184  1  0.23799738  0.98779360  0.12060426  1
  O  O185  1  0.24120505  0.99490432  0.63126868  1
  O  O186  1  0.74472412  0.49622551  0.12730921  1
  O  O187  1  0.73722963  0.49859453  0.63747367  1
  O  O188  1  0.74686229  1.00191825  0.12993126  1
  O  O189  1  0.74880832  0.97415620  0.61641100  1
  O  O190  1  -0.01782022  0.35455003  0.26443176  1
  O  O191  1  0.01449785  0.37575354  0.75602204  1
  O  O192  1  0.00813352  0.85975504  0.24099616  1
  O  O193  1  -0.00331902  0.87611305  0.76367020  1
  O  O194  1  0.48061366  0.36236955  0.25160224  1
  O  O195  1  0.49678560  0.36401264  0.75774988  1
  O  O196  1  0.50512226  0.86799534  0.25712824  1
  O  O197  1  0.52181856  0.88630169  0.77027006  1
  O  O198  1  0.48102786  0.13702462  0.24675954  1
  O  O199  1  0.47584187  0.14014840  0.74084473  1
  O  O200  1  0.49717888  0.63145430  0.24611517  1
  O  O201  1  0.50133351  0.62475184  0.74058449  1
  O  O202  1  0.99953682  0.12862804  0.24015499  1
  O  O203  1  0.99510563  0.12594715  0.74301510  1
  O  O204  1  0.99641365  0.64635361  0.23458524  1
  O  O205  1  0.99253153  0.61400837  0.73192556  1
  O  O206  1  0.36109935  0.25990155  -0.01067909  1
  O  O207  1  0.36953316  0.25618483  0.50974128  1
  O  O208  1  0.37968686  0.75658733  0.00764249  1
  O  O209  1  0.36115550  0.76039330  0.49763662  1
  O  O210  1  0.85742648  0.21322299  0.01346850  1
  O  O211  1  0.88450291  0.27387981  0.49284286  1
  O  O212  1  0.87753998  0.76784754  0.00825523  1
  O  O213  1  0.86698980  0.72442816  0.50147291  1
  O  O214  1  0.13545238  0.23677787  0.50761059  1
  O  O215  1  0.13013924  0.24043017  0.99197717  1
  O  O216  1  0.13058831  0.73586823  0.49396366  1
  O  O217  1  0.12051237  0.74540503  0.97759968  1
  O  O218  1  0.61407461  0.23557031  0.48204636  1
  O  O219  1  0.64842652  0.24719544  1.03977734  1
  O  O220  1  0.62676860  0.73915438  0.50159780  1
  O  O221  1  0.62413058  0.73357224  0.98327854  1
  O  O222  1  0.50361436  0.24584896  0.13911189  1
  O  O223  1  0.48399806  0.25428098  0.63674563  1
  O  O224  1  0.50643428  0.73645614  0.13842371  1
  O  O225  1  0.50516115  0.73459764  0.63039747  1
  O  O226  1  0.99907700  0.23004971  0.11433729  1
  O  O227  1  1.00719345  0.23498701  0.62774514  1
  O  O228  1  0.98561377  0.75040929  0.12822302  1
  O  O229  1  1.00487417  0.72833048  0.62059200  1
  O  O230  1  0.01021357  0.23513869  0.36847209  1
  O  O231  1  0.01022101  0.26042773  0.87205004  1
  O  O232  1  -0.01246925  0.74565485  0.35953589  1
  O  O233  1  -0.00737600  0.76515998  0.87522949  1
  O  O234  1  0.50898996  0.24725754  0.36684872  1
  O  O235  1  0.49366906  0.25956562  0.85885064  1
  O  O236  1  0.49662794  0.75968748  0.36744826  1
  O  O237  1  0.50913720  0.76169459  0.87225747  1
  O  O238  1  0.24193374  0.12736041  0.49614951  1
  O  O239  1  0.23849947  0.13179084  1.00262893  1
  O  O240  1  0.24486235  0.63347964  0.49746145  1
  O  O241  1  0.26930324  0.63635547  1.01382310  1
  O  O242  1  0.77344659  0.14564559  0.47068052  1
  O  O243  1  0.73990543  0.10966238  0.96903885  1
  O  O244  1  0.73020417  0.62428608  0.51309639  1
  O  O245  1  0.74043184  0.61536653  0.98345812  1
  O  O246  1  0.26250303  0.36919811  -0.00692572  1
  O  O247  1  0.26074570  0.36332052  0.49503884  1
  O  O248  1  0.26327359  0.86881588  0.01144559  1
  O  O249  1  0.25445314  0.86879877  0.50488265  1
  O  O250  1  0.75332983  0.38217887  0.01788517  1
  O  O251  1  0.75787617  0.37542361  0.51334717  1
  O  O252  1  0.76092928  0.88690345  0.01370641  1
  O  O253  1  0.76375631  0.86342031  0.51615924  1
  O  O254  1  0.13873105  0.54046068  0.23004168  1
  O  O255  1  0.13352380  0.49649825  0.74276884  1
  O  O256  1  0.11526461  0.99383465  0.23428989  1
  O  O257  1  0.13221597  1.00730707  0.74054967  1
  O  O258  1  0.63482534  0.50737058  0.23973252  1
  O  O259  1  0.63719433  0.49980595  0.74167093  1
  O  O260  1  0.63341808  0.99821941  0.26041341  1
  O  O261  1  0.64067867  0.99082181  0.75621104  1
  O  O262  1  0.37450127  0.01552635  0.26472060  1
  O  O263  1  0.36211477  0.00519681  0.76146110  1
  O  O264  1  0.38048410  0.51697114  0.26125475  1
  O  O265  1  0.36768341  0.49407007  0.75907938  1
  O  O266  1  0.89171574  0.00834036  0.26761826  1
  O  O267  1  0.88618774  0.00612316  0.76235831  1
  O  O268  1  0.86852511  0.50581221  0.26965150  1
  O  O269  1  0.86425801  0.50710977  0.75468431  1
  O  O270  1  0.16003016  0.37447990  0.34502561  1
  O  O271  1  0.11506076  0.37080570  0.86817714  1
  O  O272  1  0.12396638  0.87879878  0.37895196  1
  O  O273  1  0.11204548  0.86457541  0.87876063  1
  O  O274  1  0.62365883  0.35856447  0.38362012  1
  O  O275  1  0.60849153  0.37938021  0.87983499  1
  O  O276  1  0.61121079  0.88465500  0.36366766  1
  O  O277  1  0.62701661  0.86497426  0.86874532  1
  O  O278  1  0.36442497  0.12282200  0.14217054  1
  O  O279  1  0.37378915  0.13374365  0.63437607  1
  O  O280  1  0.38248523  0.63355588  0.13308562  1
  O  O281  1  0.39369157  0.61606012  0.62119958  1
  O  O282  1  0.89138176  0.10721675  0.13424817  1
  O  O283  1  0.88846204  0.11270221  0.64401851  1
  O  O284  1  0.87411638  0.64847052  0.11589930  1
  O  O285  1  0.89128596  0.61005098  0.62751183  1
  O  O286  1  0.23920520  0.25219302  0.11062313  1
  O  O287  1  0.25803935  0.24234684  0.61354251  1
  O  O288  1  0.25487817  0.75141771  0.12556455  1
  O  O289  1  0.23683948  0.76114046  0.61407142  1
  O  O290  1  0.76520168  0.28266536  0.14229927  1
  O  O291  1  0.72976031  0.13587426  0.60775822  1
  O  O292  1  0.76126748  0.76616264  0.13058292  1
  O  O293  1  0.74281423  0.76385842  0.62860126  1
  O  O294  1  0.25960914  0.23427341  0.39369592  1
  O  O295  1  0.23375205  0.25713993  0.88322388  1
  O  O296  1  0.25432664  0.74072790  0.38656931  1
  O  O297  1  0.23835329  0.75255213  0.86771970  1
  O  O298  1  0.74023303  0.24906944  0.35263309  1
  O  O299  1  0.74773372  0.23966608  0.87595693  1
  O  O300  1  0.77495094  0.73722163  0.36975941  1
  O  O301  1  0.74467014  0.73425204  0.86703019  1
  O  O302  1  0.01108251  0.11274221  0.00382254  1
  O  O303  1  0.00637542  0.12020374  0.50866035  1
  O  O304  1  -0.00761751  0.62837904  0.00996241  1
  O  O305  1  0.01209579  0.60888336  0.50982093  1
  O  O306  1  0.50679184  0.15512492  0.00302761  1
  O  O307  1  0.48320984  0.12007693  0.52168953  1
  O  O308  1  0.50747172  0.61934493  0.00760172  1
  O  O309  1  0.50880191  0.62252767  0.51349590  1
  O  O310  1  0.48371124  0.37494999  0.49507920  1
  O  O311  1  0.48943730  0.36916701  0.98254348  1
  O  O312  1  0.48796072  0.86198070  0.49259481  1
  O  O313  1  0.48891787  0.87371269  0.99221822  1
  O  O314  1  1.02544260  0.38543920  0.48977245  1
  O  O315  1  1.00170962  0.37120164  0.98122736  1
  O  O316  1  0.99127622  0.88818764  0.50026261  1
  O  O317  1  0.99278349  0.88256488  0.99211328  1
  O  O318  1  0.48991885  0.49803504  0.37841037  1
  O  O319  1  0.49315399  0.48708907  0.87541246  1
  O  O320  1  0.48826726  0.98568850  0.37444729  1
  O  O321  1  0.48281978  0.99538868  0.87891584  1
  O  O322  1  0.99572721  0.50519020  0.37797711  1
  O  O323  1  0.99261533  0.48845983  0.86862178  1
  O  O324  1  0.99272521  1.00970648  0.39071093  1
  O  O325  1  0.99952355  0.98659765  0.88125204  1
  O  O326  1  0.00915843  0.00122412  0.11315425  1
  O  O327  1  0.00573949  0.00673130  0.61503828  1
  O  O328  1  -0.01880495  0.52920677  0.13580134  1
  O  O329  1  0.01692320  0.50058990  0.61499554  1
  O  O330  1  0.49458612  0.00553141  0.12482020  1
  O  O331  1  0.47021254  -0.00082809  0.63508161  1
  O  O332  1  0.50535415  0.51252736  0.12123986  1
  O  O333  1  0.51178961  0.50607188  0.62953738  1
  O  O334  1  0.21940555  0.37509426  0.28833804  1
  O  O335  1  0.23607039  0.38761027  0.75789189  1
  O  O336  1  0.24825091  0.86442347  0.23538282  1
  O  O337  1  0.24927631  0.88654398  0.73733395  1
  O  O338  1  0.76523072  0.40052841  0.23244157  1
  O  O339  1  0.75520746  0.38787272  0.75295081  1
  O  O340  1  0.73967254  0.88101814  0.23974960  1
  O  O341  1  0.74217433  0.86944095  0.74437426  1
  O  O342  1  0.25872743  0.13743361  0.26510412  1
  O  O343  1  0.25524319  0.11233701  0.74492136  1
  O  O344  1  0.26571171  0.63736150  0.26288176  1
  O  O345  1  0.24737777  0.61573278  0.74399599  1
  O  O346  1  0.76472119  0.11552445  0.24975077  1
  O  O347  1  0.77032857  0.11778742  0.76764634  1
  O  O348  1  0.75290252  0.61155767  0.24046519  1
  O  O349  1  0.75753877  0.61584876  0.75415058  1
  O  O350  1  0.36982628  0.11753671  0.37409520  1
  O  O351  1  0.37080896  0.11498489  0.86582681  1
  O  O352  1  0.37206398  0.62135295  0.37402952  1
  O  O353  1  0.39014975  0.60612933  0.87858618  1
  O  O354  1  0.87236679  0.12755171  0.35989674  1
  O  O355  1  0.89013566  0.10945831  0.86619627  1
  O  O356  1  0.85960859  0.58806238  0.40524673  1
  O  O357  1  0.86824336  0.61730759  0.86481237  1
  O  O358  1  0.08346014  0.38826056  0.13354875  1
  O  O359  1  0.12347854  0.38339144  0.63448250  1
  O  O360  1  0.13501621  0.87852791  0.11611315  1
  O  O361  1  0.13376751  0.89042505  0.61773741  1
  O  O362  1  0.62108544  0.39089682  0.12670416  1
  O  O363  1  0.61459135  0.38739563  0.61900300  1
  O  O364  1  0.63396805  0.88193931  0.13926340  1
  O  O365  1  0.62343491  0.87463983  0.64472546  1
  O  O366  1  0.10517805  0.24642853  0.24030187  1
  O  O367  1  0.12745040  0.25695726  0.75589404  1
  O  O368  1  0.11272421  0.74894748  0.25054636  1
  O  O369  1  0.11277484  0.74357923  0.76651801  1
  O  O370  1  0.60341558  0.25448780  0.25897968  1
  O  O371  1  0.60621005  0.24289440  0.74026940  1
  O  O372  1  0.61719663  0.76194712  0.24994200  1
  O  O373  1  0.62172816  0.74773208  0.76154648  1
  O  O374  1  0.38146420  0.23995710  0.25947263  1
  O  O375  1  0.36031604  0.24465949  0.74277690  1
  O  O376  1  0.39045919  0.74043078  0.25597281  1
  O  O377  1  0.39340175  0.80444263  0.73818228  1
  O  O378  1  0.88998824  0.23532040  0.24295195  1
  O  O379  1  0.88103452  0.23199727  0.75759051  1
  O  O380  1  0.88191197  0.76305927  0.23499690  1
  O  O381  1  0.88318973  0.73159966  0.75251243  1
  O  O382  1  0.37370096  0.49285774  0.49345471  1
  O  O383  1  0.37892607  0.48669274  0.98565112  1
  O  O384  1  0.36762264  0.98757251  0.48928625  1
  O  O385  1  0.36407658  0.99307062  0.98989443  1
  O  O386  1  0.89717336  0.48101662  0.50085053  1
  O  O387  1  0.86833594  0.50579672  0.98119584  1
  O  O388  1  0.88757551  1.01255544  0.49288606  1
  O  O389  1  0.88756085  0.99709882  0.98740772  1
  O  O390  1  0.12061281  0.00276913  0.00137776  1
  O  O391  1  0.11226165  0.00875332  0.50728038  1
  O  O392  1  0.16521774  0.51200227  0.01319036  1
  O  O393  1  0.12973625  0.50677327  0.50560601  1
  O  O394  1  0.61600065  -0.00674278  -0.01214688  1
  O  O395  1  0.62738107  0.02791192  0.48199754  1
  O  O396  1  0.61669733  0.50833604  0.00632114  1
  O  O397  1  0.62399999  0.50442079  0.51432572  1
  O  O398  1  0.38739348  0.37682570  0.09901685  1
  O  O399  1  0.37433554  0.36749052  0.61711729  1
  O  O400  1  0.36585594  0.88253950  0.11863155  1
  O  O401  1  0.35613125  0.88425287  0.60961256  1
  O  O402  1  0.88252169  0.38276450  0.11739303  1
  O  O403  1  0.88534504  0.37501998  0.61461623  1
  O  O404  1  0.86700504  0.87572069  0.11930431  1
  O  O405  1  0.87030768  0.86587583  0.63560503  1
  O  O406  1  0.13575628  0.11397451  0.38656182  1
  O  O407  1  0.11707717  0.13315769  0.88372240  1
  O  O408  1  0.13919869  0.61530669  0.38500278  1
  O  O409  1  0.12113557  0.63209483  0.87728501  1
  O  O410  1  0.64783585  0.13859451  0.36323223  1
  O  O411  1  0.62950457  0.12547849  0.85753022  1
  O  O412  1  0.61647420  0.61689207  0.39707160  1
  O  O413  1  0.63067617  0.62607784  0.87754980  1
