# generated using pymatgen
data_V79Zn79O256
_symmetry_space_group_name_H-M   'P 1'
_cell_length_a   16.96763290
_cell_length_b   16.94105387
_cell_length_c   16.93342882
_cell_angle_alpha   90.13774879
_cell_angle_beta   90.16904162
_cell_angle_gamma   90.19401573
_symmetry_Int_Tables_number   1
_chemical_formula_structural   V79Zn79O256
_chemical_formula_sum   'V79 Zn79 O256'
_cell_volume   4867.44377678
_cell_formula_units_Z   1
loop_
 _symmetry_equiv_pos_site_id
 _symmetry_equiv_pos_as_xyz
  1  'x, y, z'
loop_
 _atom_site_type_symbol
 _atom_site_label
 _atom_site_symmetry_multiplicity
 _atom_site_fract_x
 _atom_site_fract_y
 _atom_site_fract_z
 _atom_site_occupancy
  V  V0  1  0.75345782  0.13255586  0.88392920  1
  V  V1  1  -0.00337383  0.75204206  0.75192347  1
  V  V2  1  0.38955176  0.86856564  -0.00937940  1
  V  V3  1  0.12372506  0.12250710  0.49762406  1
  V  V4  1  0.50113785  0.62405778  0.62363360  1
  V  V5  1  0.61547621  0.86105283  0.26696950  1
  V  V6  1  0.25812122  0.12734958  0.88350485  1
  V  V7  1  0.24683972  0.37312417  0.62486051  1
  V  V8  1  0.37441878  0.74575590  0.13674942  1
  V  V9  1  0.37262619  0.74909616  0.61851189  1
  V  V10  1  0.12117359  0.24548028  0.86853800  1
  V  V11  1  0.63581519  0.50089810  0.62504891  1
  V  V12  1  0.25069549  0.24919007  0.49963907  1
  V  V13  1  0.85916600  0.49624891  0.38109716  1
  V  V14  1  0.12550686  0.23550949  0.35156852  1
  V  V15  1  0.24997224  0.86935344  0.61702524  1
  V  V16  1  0.50427212  0.25225401  0.74779058  1
  V  V17  1  0.74885680  0.26856209  0.50912457  1
  V  V18  1  0.63062325  -0.00526677  0.62259540  1
  V  V19  1  0.74241441  0.01261249  0.25414263  1
  V  V20  1  0.63545461  0.37670320  0.74576240  1
  V  V21  1  0.74569433  0.75675348  0.50068428  1
  V  V22  1  0.25390583  -0.00258112  0.74846803  1
  V  V23  1  0.24653695  0.49720046  0.74728283  1
  V  V24  1  0.11571319  0.49874481  0.62126243  1
  V  V25  1  0.48882386  0.24807846  0.24922936  1
  V  V26  1  0.87850214  0.13176336  0.75044999  1
  V  V27  1  0.24616392  0.62384906  0.36048016  1
  V  V28  1  0.37952446  0.87694360  0.48861481  1
  V  V29  1  0.62776431  0.25330139  0.36914626  1
  V  V30  1  0.49971537  0.75460400  0.75912514  1
  V  V31  1  0.61663925  0.11660801  0.00140323  1
  V  V32  1  0.62049079  0.50076776  0.14813386  1
  V  V33  1  0.37358264  0.62150040  0.75243473  1
  V  V34  1  0.24339053  0.87999934  0.12209425  1
  V  V35  1  0.26778527  0.11708840  0.37510173  1
  V  V36  1  0.87951913  0.00627723  0.88143484  1
  V  V37  1  0.63451635  0.12656382  0.49782868  1
  V  V38  1  0.49500810  0.38588739  0.87960825  1
  V  V39  1  -0.00627198  0.62283718  0.61919045  1
  V  V40  1  -0.00143667  0.12904637  0.62468068  1
  V  V41  1  0.73664943  0.88127886  0.12404696  1
  V  V42  1  0.75140933  0.50778110  0.76225821  1
  V  V43  1  0.50212195  0.38704727  0.37168743  1
  V  V44  1  0.60954391  0.61725006  -0.00657531  1
  V  V45  1  0.62064272  0.87745392  0.75611152  1
  V  V46  1  0.12223165  0.48603066  0.15383743  1
  V  V47  1  0.62771734  0.63192269  0.49696986  1
  V  V48  1  0.12851869  0.12127072  0.01058008  1
  V  V49  1  0.75350191  0.63382519  0.36128838  1
  V  V50  1  0.26633841  -0.00497801  0.25800776  1
  V  V51  1  0.84231417  0.37746104  0.02330799  1
  V  V52  1  0.02207643  0.37458413  0.37613716  1
  V  V53  1  0.37627186  0.25128810  0.10882841  1
  V  V54  1  0.24739391  0.75195198  0.00222747  1
  V  V55  1  0.11589376  0.60820226  0.00156182  1
  V  V56  1  0.87350351  0.26633642  0.62756793  1
  V  V57  1  0.11908502  -0.00008928  0.62058961  1
  V  V58  1  0.00094438  0.88468303  0.88079338  1
  V  V59  1  0.62998350  0.25544804  0.88332495  1
  V  V60  1  0.87288572  0.88240488  0.50006998  1
  V  V61  1  0.38078699  0.12177881  0.74773390  1
  V  V62  1  0.12202604  0.75087154  0.87607728  1
  V  V63  1  0.24860750  0.62141435  0.87414990  1
  V  V64  1  0.25793789  0.38324057  0.14655071  1
  V  V65  1  0.12164353  0.87588019  0.24757780  1
  V  V66  1  0.86838991  0.62845554  0.75993297  1
  V  V67  1  0.39094778  -0.00980377  0.87308068  1
  V  V68  1  0.74737618  0.74141367  -0.00511557  1
  V  V69  1  0.75178415  -0.00263599  0.74609140  1
  V  V70  1  0.87433412  0.74645929  0.13264348  1
  V  V71  1  0.50043928  -0.00132863  0.48639748  1
  V  V72  1  -0.00480978  0.87965322  0.37628182  1
  V  V73  1  0.50383505  0.12503784  0.62369661  1
  V  V74  1  0.86812357  0.75941154  0.62654746  1
  V  V75  1  0.87306240  0.02046407  0.37321137  1
  V  V76  1  0.12433708  0.87486905  0.74881599  1
  V  V77  1  0.13170293  0.63496934  0.50241864  1
  V  V78  1  0.37675060  0.25006734  0.62400457  1
  Zn  Zn79  1  0.10157489  0.35349112  0.74127936  1
  Zn  Zn80  1  0.62431803  0.75178881  0.87627718  1
  Zn  Zn81  1  0.01101471  0.00732288  0.03863109  1
  Zn  Zn82  1  0.88284357  0.50681259  0.89585591  1
  Zn  Zn83  1  0.49821984  0.50022379  0.50203585  1
  Zn  Zn84  1  0.35682390  0.50040555  0.37817428  1
  Zn  Zn85  1  0.51059335  0.10779049  0.12865203  1
  Zn  Zn86  1  0.12147440  0.75484783  0.38280127  1
  Zn  Zn87  1  0.87300682  0.87753928  0.00254273  1
  Zn  Zn88  1  0.37562767  0.38000971  0.50144589  1
  Zn  Zn89  1  -0.00967271  0.74365212  0.25692893  1
  Zn  Zn90  1  0.48286519  0.62159777  0.11444556  1
  Zn  Zn91  1  0.35340089  0.38502988  -0.00881249  1
  Zn  Zn92  1  -0.00295601  0.38396444  0.89230707  1
  Zn  Zn93  1  -0.01809009  0.60179447  0.12823960  1
  Zn  Zn94  1  0.21453755  0.17881370  0.18341295  1
  Zn  Zn95  1  0.19329882  0.18139530  0.68660554  1
  Zn  Zn96  1  0.14416551  0.66535575  0.20679001  1
  Zn  Zn97  1  0.18408114  0.68707168  0.68631642  1
  Zn  Zn98  1  0.68282231  0.19663302  0.18612716  1
  Zn  Zn99  1  0.69145753  0.18701875  0.68928748  1
  Zn  Zn100  1  0.67936777  0.68652288  0.17710720  1
  Zn  Zn101  1  0.68764874  0.69163454  0.68747505  1
  Zn  Zn102  1  0.31680717  0.30969636  0.32068444  1
  Zn  Zn103  1  0.31349363  0.31259754  0.80729276  1
  Zn  Zn104  1  0.29926455  0.80153464  0.31495310  1
  Zn  Zn105  1  0.31243549  0.80733544  0.81059248  1
  Zn  Zn106  1  0.80586687  0.30983880  0.31826957  1
  Zn  Zn107  1  0.82174057  0.31826521  0.82479094  1
  Zn  Zn108  1  0.80378748  0.81793723  0.31322244  1
  Zn  Zn109  1  0.81188349  0.81852915  0.81460093  1
  Zn  Zn110  1  0.17823773  0.43897968  0.43454408  1
  Zn  Zn111  1  0.19618322  0.43372969  0.93332049  1
  Zn  Zn112  1  0.18640749  0.93777165  0.43488238  1
  Zn  Zn113  1  0.18975328  0.94330609  0.93750562  1
  Zn  Zn114  1  0.68361357  0.44525116  0.43411995  1
  Zn  Zn115  1  0.68791704  0.44013919  0.93982668  1
  Zn  Zn116  1  0.68922009  0.93959809  0.43252678  1
  Zn  Zn117  1  0.68663711  0.94072739  0.93692234  1
  Zn  Zn118  1  0.35153132  0.04192888  0.07841046  1
  Zn  Zn119  1  0.31514015  0.05872649  0.55990443  1
  Zn  Zn120  1  0.29978085  0.56014126  0.06797612  1
  Zn  Zn121  1  0.31076756  0.55849732  0.56065749  1
  Zn  Zn122  1  0.81040083  0.06175314  0.06556087  1
  Zn  Zn123  1  0.81411867  0.06649782  0.55985436  1
  Zn  Zn124  1  0.80186918  0.55691376  0.07254601  1
  Zn  Zn125  1  0.81625609  0.56416335  0.55916221  1
  Zn  Zn126  1  0.45430117  0.43219222  0.17720752  1
  Zn  Zn127  1  0.43895571  0.43661308  0.69022688  1
  Zn  Zn128  1  0.44253106  0.92872185  0.18625440  1
  Zn  Zn129  1  0.44150851  0.93716345  0.67928223  1
  Zn  Zn130  1  0.93563125  0.43092704  0.20246628  1
  Zn  Zn131  1  0.94105818  0.44108324  0.70683229  1
  Zn  Zn132  1  0.91949857  0.92888611  0.19176625  1
  Zn  Zn133  1  0.93780242  0.94148955  0.68985736  1
  Zn  Zn134  1  0.03340055  0.02417101  0.25294454  1
  Zn  Zn135  1  0.06499498  0.06831707  0.81008518  1
  Zn  Zn136  1  0.03115533  0.55482253  0.31150864  1
  Zn  Zn137  1  0.05762148  0.55959007  0.80946641  1
  Zn  Zn138  1  0.56724095  0.06620474  0.30812209  1
  Zn  Zn139  1  0.56849858  0.06595018  0.81325426  1
  Zn  Zn140  1  0.54918737  0.59421574  0.31283186  1
  Zn  Zn141  1  0.56772907  0.56730852  0.81093461  1
  Zn  Zn142  1  0.44514339  0.19059054  0.44049926  1
  Zn  Zn143  1  0.43998218  0.19199068  0.93329083  1
  Zn  Zn144  1  0.43361957  0.68881604  0.42916914  1
  Zn  Zn145  1  0.43145771  0.55759134  0.93681098  1
  Zn  Zn146  1  0.94496079  0.20804842  0.44345833  1
  Zn  Zn147  1  0.97085209  0.23473832  1.00208441  1
  Zn  Zn148  1  0.93288488  0.69094947  0.43884455  1
  Zn  Zn149  1  0.93785880  0.69108888  0.94507644  1
  Zn  Zn150  1  0.12630204  0.32838625  0.03425997  1
  Zn  Zn151  1  0.05670997  0.31246849  0.55541936  1
  Zn  Zn152  1  0.06176591  0.81224969  0.06203623  1
  Zn  Zn153  1  0.05275527  0.81482991  0.56221163  1
  Zn  Zn154  1  0.57086432  0.32462647  0.06464846  1
  Zn  Zn155  1  0.56306165  0.31704252  0.56059569  1
  Zn  Zn156  1  0.56039174  0.80290848  0.06846071  1
  Zn  Zn157  1  0.55864038  0.81449710  0.56470269  1
  O  O158  1  0.14794569  0.12770538  0.10787365  1
  O  O159  1  0.11997674  0.11861391  0.61992122  1
  O  O160  1  0.13493257  0.60036510  0.10900320  1
  O  O161  1  0.11324411  0.62123210  0.62096534  1
  O  O162  1  0.62577868  0.14019772  0.10599185  1
  O  O163  1  0.62240621  0.11752155  0.61892987  1
  O  O164  1  0.61010577  0.62791949  0.10784714  1
  O  O165  1  0.61827480  0.62032293  0.62200602  1
  O  O166  1  0.38762659  0.38175197  0.37768280  1
  O  O167  1  0.39136179  0.36835448  0.87294691  1
  O  O168  1  0.36586542  0.86328884  0.39207099  1
  O  O169  1  0.37296123  0.87547863  0.88034749  1
  O  O170  1  0.85227531  0.39422936  0.37306964  1
  O  O171  1  0.87294007  0.38501057  0.89878880  1
  O  O172  1  0.87880882  0.87933980  0.38247838  1
  O  O173  1  0.88444617  0.88878029  0.87565682  1
  O  O174  1  0.25137494  0.00284591  0.36726314  1
  O  O175  1  0.25958004  0.00265425  0.85983350  1
  O  O176  1  0.24007520  0.51550080  0.38166863  1
  O  O177  1  0.24078638  0.51169562  0.86011870  1
  O  O178  1  0.75872540  0.00553914  0.36564862  1
  O  O179  1  0.76042038  0.00992022  0.86833485  1
  O  O180  1  0.75281532  0.51698542  0.37351598  1
  O  O181  1  0.75006723  0.50430103  0.86347779  1
  O  O182  1  0.23929891  0.48939030  0.13447219  1
  O  O183  1  0.23936651  0.49288650  0.63019761  1
  O  O184  1  0.26349521  0.98590270  0.13805170  1
  O  O185  1  0.24455693  0.99173653  0.63245460  1
  O  O186  1  0.72025557  0.52180628  0.13828248  1
  O  O187  1  0.73931531  0.50800098  0.63128940  1
  O  O188  1  0.75643875  0.98884138  0.13672965  1
  O  O189  1  0.74215499  1.01005585  0.63472783  1
  O  O190  1  -0.01292246  0.36309858  0.28226568  1
  O  O191  1  -0.00300878  0.37239693  0.77306961  1
  O  O192  1  0.00315878  0.87203712  0.25961846  1
  O  O193  1  0.00473184  0.87221527  0.75815595  1
  O  O194  1  0.49769033  0.36436367  0.26486138  1
  O  O195  1  0.51113551  0.37160903  0.75670911  1
  O  O196  1  0.51785864  0.87837436  0.24811543  1
  O  O197  1  0.50994473  0.86712426  0.73869561  1
  O  O198  1  0.51193985  0.14423849  0.24298959  1
  O  O199  1  0.49983039  0.13089322  0.74387072  1
  O  O200  1  0.43389190  0.58482790  0.24922960  1
  O  O201  1  0.49230828  0.63175766  0.74221922  1
  O  O202  1  0.94288074  0.15050736  0.14825654  1
  O  O203  1  0.99018008  0.12361565  0.73817054  1
  O  O204  1  1.02902472  0.63766308  0.23201651  1
  O  O205  1  0.98966062  0.63453636  0.74135413  1
  O  O206  1  0.38558101  0.26569299  0.00697707  1
  O  O207  1  0.36481773  0.25039359  0.50557541  1
  O  O208  1  0.35569304  0.76247174  -0.00571808  1
  O  O209  1  0.38554618  0.76119002  0.51084955  1
  O  O210  1  0.86624937  0.27845278  0.00586441  1
  O  O211  1  0.85593509  0.24658087  0.51299470  1
  O  O212  1  0.86111539  0.75481293  0.00667907  1
  O  O213  1  0.86612309  0.76046547  0.50936987  1
  O  O214  1  0.13843710  0.23706385  0.50262809  1
  O  O215  1  0.14595786  0.22577706  0.97841331  1
  O  O216  1  0.11890682  0.73904877  0.50670020  1
  O  O217  1  0.13108629  0.74285225  0.99608638  1
  O  O218  1  0.63420561  0.24540814  0.50103400  1
  O  O219  1  0.62226927  0.25029072  0.98608166  1
  O  O220  1  0.63449824  0.74458936  0.51375948  1
  O  O221  1  0.63418329  0.74555620  0.99944773  1
  O  O222  1  0.48961074  0.26574411  0.13859460  1
  O  O223  1  0.49737709  0.24542334  0.62797173  1
  O  O224  1  0.47857941  0.74441813  0.12268490  1
  O  O225  1  0.49169888  0.74102061  0.63184861  1
  O  O226  1  0.99135928  0.20793504  0.14065423  1
  O  O227  1  0.98244621  0.24260114  0.61962405  1
  O  O228  1  0.97776141  0.75999143  0.12140925  1
  O  O229  1  0.98735019  0.74607698  0.63236522  1
  O  O230  1  0.02565265  0.22384816  0.35863823  1
  O  O231  1  0.02424464  0.23202919  0.87297042  1
  O  O232  1  -0.00251364  0.76238188  0.37480716  1
  O  O233  1  0.00219925  0.76393219  0.87308382  1
  O  O234  1  0.50641061  0.25792127  0.36767090  1
  O  O235  1  0.51132375  0.25903482  0.86543644  1
  O  O236  1  0.50260617  0.68902811  0.34419251  1
  O  O237  1  0.50047914  0.75006153  0.85731319  1
  O  O238  1  0.24628208  0.12923853  0.49742419  1
  O  O239  1  0.25542476  0.10989009  0.98228445  1
  O  O240  1  0.23197643  0.62834501  0.51288723  1
  O  O241  1  0.23671468  0.63212954  0.98910232  1
  O  O242  1  0.73739698  0.13352350  0.50363096  1
  O  O243  1  0.74220608  0.12236368  0.98872814  1
  O  O244  1  0.74312072  0.63914858  0.50303318  1
  O  O245  1  0.74222684  0.64047716  1.00264555  1
  O  O246  1  0.23846215  0.37233101  0.01953365  1
  O  O247  1  0.24681890  0.36308456  0.50501954  1
  O  O248  1  0.24340050  0.86773301  0.00557952  1
  O  O249  1  0.26206518  0.88288746  0.51074762  1
  O  O250  1  0.74059597  0.37474109  0.01418134  1
  O  O251  1  0.74025065  0.36685112  0.50512786  1
  O  O252  1  0.74641065  0.87507474  0.01217214  1
  O  O253  1  0.75991959  0.86785883  0.49441053  1
  O  O254  1  0.12385121  0.49873332  0.25071604  1
  O  O255  1  0.13505451  0.50555786  0.73696415  1
  O  O256  1  0.13890461  0.98279818  0.25318101  1
  O  O257  1  0.13482821  0.99597923  0.73999403  1
  O  O258  1  0.60593694  0.52394362  0.24676913  1
  O  O259  1  0.63393168  0.49796954  0.74394924  1
  O  O260  1  0.63803510  0.98975920  0.25856065  1
  O  O261  1  0.63171168  0.99743857  0.74249880  1
  O  O262  1  0.36287672  -0.02197478  0.26043877  1
  O  O263  1  0.37151985  -0.00043274  0.75152527  1
  O  O264  1  0.39608256  0.51705571  0.25546262  1
  O  O265  1  0.36134480  0.51248392  0.73753174  1
  O  O266  1  0.85717940  -0.00047543  0.26457686  1
  O  O267  1  0.86887388  0.00974122  0.75530443  1
  O  O268  1  0.91681059  0.51334984  0.29197936  1
  O  O269  1  0.86262713  0.51482467  0.74671629  1
  O  O270  1  0.12744573  0.34664493  0.37727393  1
  O  O271  1  0.13763880  0.35114569  0.87265433  1
  O  O272  1  0.11125477  0.87714061  0.37355815  1
  O  O273  1  0.11876815  0.87347515  0.86866647  1
  O  O274  1  0.61338071  0.36435001  0.38354613  1
  O  O275  1  0.61905623  0.37232820  0.86458393  1
  O  O276  1  0.62880790  0.86861562  0.36776194  1
  O  O277  1  0.62561381  0.87826742  0.85995502  1
  O  O278  1  0.37510554  0.15071510  0.11325679  1
  O  O279  1  0.38340097  0.12812771  0.62805148  1
  O  O280  1  0.36209507  0.64353531  0.11528899  1
  O  O281  1  0.38024243  0.63201212  0.62980869  1
  O  O282  1  0.88848222  0.14517588  0.08554254  1
  O  O283  1  0.88250745  0.12668188  0.63195643  1
  O  O284  1  0.87171648  0.64098833  0.12056983  1
  O  O285  1  0.87873835  0.63710901  0.63224801  1
  O  O286  1  0.27130330  0.26560682  0.13329742  1
  O  O287  1  0.25596323  0.25232697  0.61812406  1
  O  O288  1  0.25527995  0.76165093  0.11410602  1
  O  O289  1  0.25880902  0.75946906  0.63149828  1
  O  O290  1  0.83308075  0.24066019  0.18941672  1
  O  O291  1  0.75741822  0.25194611  0.61818227  1
  O  O292  1  0.75436139  0.76012342  0.11455814  1
  O  O293  1  0.76143595  0.75181951  0.61925222  1
  O  O294  1  0.24813842  0.23922542  0.38288100  1
  O  O295  1  0.26287944  0.22897053  0.86951136  1
  O  O296  1  0.23605886  0.73192286  0.37868743  1
  O  O297  1  0.24157549  0.74052734  0.87734810  1
  O  O298  1  0.73405534  0.25709088  0.39015725  1
  O  O299  1  0.74154458  0.24136408  0.86568840  1
  O  O300  1  0.75360927  0.74270257  0.38858881  1
  O  O301  1  0.74875568  0.76242514  0.89214300  1
  O  O302  1  0.02441318  0.12807959  0.00346451  1
  O  O303  1  0.01381325  0.13245896  0.51160678  1
  O  O304  1  0.01375771  0.63020655  0.00945433  1
  O  O305  1  0.00259509  0.63165377  0.51490271  1
  O  O306  1  0.51438062  0.13120367  -0.00302679  1
  O  O307  1  0.51122964  0.11966470  0.50584273  1
  O  O308  1  0.50624575  0.62581207  -0.00840775  1
  O  O309  1  0.50902418  0.62865254  0.51224437  1
  O  O310  1  0.49741145  0.37539464  0.48772493  1
  O  O311  1  0.50899845  0.37745086  0.97882369  1
  O  O312  1  0.48881059  0.88280690  0.50243946  1
  O  O313  1  0.48699010  0.86307671  0.99875957  1
  O  O314  1  0.98670829  0.32759778  0.46520907  1
  O  O315  1  1.02073378  0.33996562  0.99728384  1
  O  O316  1  0.98633775  0.87679390  0.48981636  1
  O  O317  1  1.00143917  0.88526920  0.98941044  1
  O  O318  1  0.50794619  0.48887132  0.37608045  1
  O  O319  1  0.49778605  0.49041782  0.86392823  1
  O  O320  1  0.50600583  1.00945853  0.38804055  1
  O  O321  1  0.48975740  1.00120427  0.86643738  1
  O  O322  1  1.03201320  0.47316682  0.39519406  1
  O  O323  1  0.99560336  0.50030912  0.87739009  1
  O  O324  1  0.98159956  0.99411121  0.35717870  1
  O  O325  1  0.99279200  0.99549090  0.86517428  1
  O  O326  1  -0.00962769  0.00617135  0.14977856  1
  O  O327  1  0.01242095  0.00906416  0.62904682  1
  O  O328  1  0.01849431  0.49011802  0.13462057  1
  O  O329  1  0.00472689  0.51143398  0.63611593  1
  O  O330  1  0.45708780  0.01245821  0.11628300  1
  O  O331  1  0.51183943  0.00652531  0.61515626  1
  O  O332  1  0.50904924  0.51071370  0.11927665  1
  O  O333  1  0.50898255  0.51254615  0.62984411  1
  O  O334  1  0.26429527  0.37889724  0.24628923  1
  O  O335  1  0.24967517  0.38519992  0.74334880  1
  O  O336  1  0.24225613  0.87918054  0.24491342  1
  O  O337  1  0.24548649  0.88006693  0.74041901  1
  O  O338  1  0.76175563  0.28298083  0.20257853  1
  O  O339  1  0.74006235  0.38625654  0.75602263  1
  O  O340  1  0.73897630  0.88099615  0.23952551  1
  O  O341  1  0.74287829  0.89096172  0.75343079  1
  O  O342  1  0.25807429  0.10303851  0.25789591  1
  O  O343  1  0.26238700  0.11147352  0.75069485  1
  O  O344  1  0.23713381  0.62460303  0.26072536  1
  O  O345  1  0.25419255  0.62086357  0.75372999  1
  O  O346  1  0.73977987  0.11099603  0.24014227  1
  O  O347  1  0.75650935  0.11648024  0.75837909  1
  O  O348  1  0.74325099  0.64059296  0.26402705  1
  O  O349  1  0.75792329  0.62244640  0.74693940  1
  O  O350  1  0.36649215  0.12721979  0.38524487  1
  O  O351  1  0.37241718  0.11324509  0.86925021  1
  O  O352  1  0.34832016  0.62317762  0.38409647  1
  O  O353  1  0.36260414  0.62501923  0.86078231  1
  O  O354  1  0.88348178  0.11807939  0.38457528  1
  O  O355  1  0.86835883  0.12058723  0.86422214  1
  O  O356  1  0.85742547  0.62627503  0.37878869  1
  O  O357  1  0.88160132  0.63001950  0.86255921  1
  O  O358  1  0.14095322  0.37948058  0.14085287  1
  O  O359  1  0.12309797  0.37969350  0.62491410  1
  O  O360  1  0.13367040  0.87080835  0.13162660  1
  O  O361  1  0.12970425  0.88098622  0.62625449  1
  O  O362  1  0.61497817  0.39766367  0.13742531  1
  O  O363  1  0.61706001  0.38835430  0.63579571  1
  O  O364  1  0.63485333  0.87325531  0.12669694  1
  O  O365  1  0.62406070  0.88971456  0.63083637  1
  O  O366  1  0.14235296  0.23437708  0.25470812  1
  O  O367  1  0.13726311  0.24331315  0.76058379  1
  O  O368  1  0.12277310  0.76813812  0.25590035  1
  O  O369  1  0.11744616  0.75540306  0.75455227  1
  O  O370  1  0.61889617  0.25350532  0.26691381  1
  O  O371  1  0.62390936  0.25900928  0.75391450  1
  O  O372  1  0.62840521  0.76318051  0.24511798  1
  O  O373  1  0.61897607  0.76105031  0.74804056  1
  O  O374  1  0.38748720  0.24652269  0.25068428  1
  O  O375  1  0.38383994  0.24202891  0.74262132  1
  O  O376  1  0.36643944  0.75711877  0.23475406  1
  O  O377  1  0.37974238  0.74168056  0.73947943  1
  O  O378  1  0.87987079  0.24652120  0.25258698  1
  O  O379  1  0.86226601  0.24143121  0.73707516  1
  O  O380  1  0.86953849  0.75702308  0.23625028  1
  O  O381  1  0.87521072  0.74936294  0.74490510  1
  O  O382  1  0.38106405  0.49819561  0.49773470  1
  O  O383  1  0.35779027  0.49872408  0.99406514  1
  O  O384  1  0.38540730  0.98647381  0.50436408  1
  O  O385  1  0.36692383  0.97597967  0.98402118  1
  O  O386  1  0.87958435  0.50969651  0.48095240  1
  O  O387  1  0.86163339  0.49033814  1.00671644  1
  O  O388  1  0.86442946  0.99415034  0.48505278  1
  O  O389  1  0.88153593  1.00251752  0.98868081  1
  O  O390  1  0.12286419  0.01438920  -0.00642872  1
  O  O391  1  0.13425962  0.00984384  0.51136608  1
  O  O392  1  0.12331568  0.51000191  -0.01218682  1
  O  O393  1  0.12609911  0.51009587  0.51781659  1
  O  O394  1  0.62391386  0.01711911  -0.00529213  1
  O  O395  1  0.62283332  0.00628168  0.50441441  1
  O  O396  1  0.62739480  0.51750239  -0.00064095  1
  O  O397  1  0.62278288  0.51176421  0.51047910  1
  O  O398  1  0.36777361  0.37540009  0.12257880  1
  O  O399  1  0.36775193  0.36713417  0.62566265  1
  O  O400  1  0.36651809  0.86281319  0.10781486  1
  O  O401  1  0.36756949  0.86668186  0.61945049  1
  O  O402  1  0.86760801  0.38982349  0.12364535  1
  O  O403  1  0.88103036  0.36364622  0.63304031  1
  O  O404  1  0.85720198  0.86509699  0.12090402  1
  O  O405  1  0.88324778  0.87015710  0.61590180  1
  O  O406  1  0.14490497  0.12972735  0.38516273  1
  O  O407  1  0.14713197  0.12485637  0.86927004  1
  O  O408  1  0.12389634  0.62280491  0.39633757  1
  O  O409  1  0.12846053  0.63110715  0.88139118  1
  O  O410  1  0.61743789  0.14421854  0.38609168  1
  O  O411  1  0.63300480  0.13462063  0.88233713  1
  O  O412  1  0.64157082  0.62149984  0.39280707  1
  O  O413  1  0.62331739  0.63249561  0.88653768  1
