# generated using pymatgen
data_V79Zn79O256
_symmetry_space_group_name_H-M   'P 1'
_cell_length_a   16.95153590
_cell_length_b   16.94596175
_cell_length_c   16.96076036
_cell_angle_alpha   89.88806000
_cell_angle_beta   89.81834046
_cell_angle_gamma   89.86669969
_symmetry_Int_Tables_number   1
_chemical_formula_structural   V79Zn79O256
_chemical_formula_sum   'V79 Zn79 O256'
_cell_volume   4872.10245631
_cell_formula_units_Z   1
loop_
 _symmetry_equiv_pos_site_id
 _symmetry_equiv_pos_as_xyz
  1  'x, y, z'
loop_
 _atom_site_type_symbol
 _atom_site_label
 _atom_site_symmetry_multiplicity
 _atom_site_fract_x
 _atom_site_fract_y
 _atom_site_fract_z
 _atom_site_occupancy
  V  V0  1  0.23469962  0.62987753  0.88603730  1
  V  V1  1  -0.00126089  -0.01665239  0.51309112  1
  V  V2  1  0.49665299  0.50232820  0.49416870  1
  V  V3  1  0.25037348  0.12044152  0.37606503  1
  V  V4  1  0.38289500  0.24530130  0.12372617  1
  V  V5  1  -0.00527908  0.62675843  0.12304309  1
  V  V6  1  0.12473211  0.24888641  0.37864644  1
  V  V7  1  0.50680739  0.12255678  0.61178812  1
  V  V8  1  0.50611127  0.00809110  0.00693703  1
  V  V9  1  0.88699776  -0.01227008  0.37587439  1
  V  V10  1  0.00121892  0.52890052  0.50296204  1
  V  V11  1  0.87708007  0.50207199  0.38338313  1
  V  V12  1  0.24901776  0.37563861  0.62603939  1
  V  V13  1  0.03476735  0.75482878  0.25427279  1
  V  V14  1  -0.02112879  -0.01102586  0.01133245  1
  V  V15  1  0.74602538  0.87160084  0.62694474  1
  V  V16  1  0.12090480  0.25426832  0.87555837  1
  V  V17  1  0.87737072  0.74749369  0.63890533  1
  V  V18  1  0.50664982  0.50251197  0.00395646  1
  V  V19  1  -0.04821335  0.40991995  0.83645444  1
  V  V20  1  0.75228137  0.75578243  0.48821105  1
  V  V21  1  0.25278657  0.25498997  -0.00112298  1
  V  V22  1  0.24939336  0.24760215  0.50326294  1
  V  V23  1  0.61489774  0.74014104  0.36355259  1
  V  V24  1  0.75326458  0.37317796  0.13015194  1
  V  V25  1  0.74535549  0.11237201  0.37934044  1
  V  V26  1  0.61896659  -0.00750487  0.60594991  1
  V  V27  1  0.51601953  0.63960072  0.63903725  1
  V  V28  1  0.62485871  0.48625788  0.62883977  1
  V  V29  1  0.62888169  0.51029323  0.12960276  1
  V  V30  1  0.37876022  0.75502786  0.63048952  1
  V  V31  1  0.12433994  0.38076708  0.25385664  1
  V  V32  1  0.37857435  0.12245262  0.75154049  1
  V  V33  1  0.76395622  0.87540595  0.12855519  1
  V  V34  1  0.37254534  0.38171557  0.49449483  1
  V  V35  1  0.62543469  0.37323911  0.25943336  1
  V  V36  1  0.00081018  0.49432841  0.00397425  1
  V  V37  1  0.87754398  0.37254135  0.00718492  1
  V  V38  1  0.61463685  0.88334907  0.23802053  1
  V  V39  1  -0.00244467  0.37589050  0.39050642  1
  V  V40  1  0.12202324  0.52143454  0.62436016  1
  V  V41  1  0.76572509  0.37401014  0.62052528  1
  V  V42  1  0.63085047  0.62989565  -0.02072014  1
  V  V43  1  0.75259932  0.50388258  0.25902818  1
  V  V44  1  0.87721823  0.24633655  0.13008696  1
  V  V45  1  0.63413410  0.24340675  0.88061572  1
  V  V46  1  0.74228805  0.02308969  0.75773329  1
  V  V47  1  0.38051796  -0.00156398  0.37728844  1
  V  V48  1  0.50202552  0.24296644  0.24619810  1
  V  V49  1  0.11860025  0.12918436  0.01715076  1
  V  V50  1  0.74740325  0.24851119  0.49291254  1
  V  V51  1  0.24771436  0.50396565  0.75079564  1
  V  V52  1  0.88277729  0.22755401  0.61929432  1
  V  V53  1  -0.00061878  0.23404288  0.74668646  1
  V  V54  1  0.48958924  0.86833886  0.36740152  1
  V  V55  1  0.23642946  0.87318912  0.11636364  1
  V  V56  1  0.50733786  0.25348288  0.74831152  1
  V  V57  1  0.87374787  0.63486192  0.25226653  1
  V  V58  1  0.63098516  0.62077853  0.49351422  1
  V  V59  1  0.24326030  0.61396044  0.38444527  1
  V  V60  1  0.50471002  0.37830171  0.86789406  1
  V  V61  1  0.37580105  0.87926845  0.50168305  1
  V  V62  1  0.37672693  0.63197442  0.75766671  1
  V  V63  1  0.51064455  0.86330896  0.86568546  1
  V  V64  1  0.00195215  0.24650643  0.25165135  1
  V  V65  1  0.11641975  0.11652206  0.51290221  1
  V  V66  1  0.23676331  0.74193016  0.50370301  1
  V  V67  1  0.12819623  0.76638365  0.89826283  1
  V  V68  1  0.23853299  0.00245645  0.23829892  1
  V  V69  1  0.37867397  0.37782949  0.00046781  1
  V  V70  1  0.23572422  0.00068332  0.75282735  1
  V  V71  1  0.13160595  0.50507320  0.12725065  1
  V  V72  1  0.12554198  0.37676281  0.75149089  1
  V  V73  1  0.87891495  0.12068695  0.25595655  1
  V  V74  1  0.76026234  0.74609201  -0.00423815  1
  V  V75  1  0.23723211  0.88270726  0.63110905  1
  V  V76  1  0.37559508  0.25105671  0.62530678  1
  V  V77  1  0.37112237  0.86953238  -0.00236225  1
  V  V78  1  0.01724047  0.76077888  0.76024269  1
  Zn  Zn79  1  0.37674497  0.63026629  0.26249097  1
  Zn  Zn80  1  0.25105051  0.12764161  0.87587185  1
  Zn  Zn81  1  0.38430437  0.74760795  0.14598830  1
  Zn  Zn82  1  0.81547758  0.06189713  0.91869840  1
  Zn  Zn83  1  0.63770153  0.12656283  0.01032276  1
  Zn  Zn84  1  0.25565051  0.37922491  0.13440802  1
  Zn  Zn85  1  0.27978102  0.48744215  0.28323261  1
  Zn  Zn86  1  0.38232550  0.00190680  0.87327725  1
  Zn  Zn87  1  0.87809110  0.86460136  -0.03137092  1
  Zn  Zn88  1  0.38126354  0.11968317  0.24588603  1
  Zn  Zn89  1  0.81120376  0.56710275  0.79519798  1
  Zn  Zn90  1  0.69474542  0.42522509  0.79557190  1
  Zn  Zn91  1  0.61224100  0.23447991  0.38132790  1
  Zn  Zn92  1  0.37479803  0.50821918  0.88013072  1
  Zn  Zn93  1  0.49264527  0.37766639  0.37151840  1
  Zn  Zn94  1  0.19730186  0.19520039  0.19103780  1
  Zn  Zn95  1  0.18703636  0.18575265  0.68998780  1
  Zn  Zn96  1  0.21857180  0.67807343  0.18526407  1
  Zn  Zn97  1  0.19119152  0.69694898  0.69784075  1
  Zn  Zn98  1  0.69477471  0.18792655  0.19777350  1
  Zn  Zn99  1  0.68277078  0.19198200  0.67806537  1
  Zn  Zn100  1  0.69423590  0.69176296  0.18252167  1
  Zn  Zn101  1  0.69032326  0.68181805  0.68285014  1
  Zn  Zn102  1  0.31273727  0.30746644  0.31293072  1
  Zn  Zn103  1  0.31656982  0.31453146  0.81390981  1
  Zn  Zn104  1  0.27641822  0.81468618  0.31373467  1
  Zn  Zn105  1  0.31276204  0.81457206  0.81972370  1
  Zn  Zn106  1  0.81743572  0.31556299  0.31696620  1
  Zn  Zn107  1  0.81632448  0.20392002  0.80975894  1
  Zn  Zn108  1  0.80038840  0.81529280  0.30856761  1
  Zn  Zn109  1  0.79794317  0.81605260  0.81063228  1
  Zn  Zn110  1  0.17937249  0.43879048  0.44587487  1
  Zn  Zn111  1  0.18579097  0.44178463  0.93779809  1
  Zn  Zn112  1  0.18407598  0.93425422  0.43944616  1
  Zn  Zn113  1  0.18692630  0.95022386  0.94049598  1
  Zn  Zn114  1  0.69047391  0.43473114  0.44137153  1
  Zn  Zn115  1  0.68979027  0.43067388  0.94933120  1
  Zn  Zn116  1  0.67880434  0.93453940  0.42810605  1
  Zn  Zn117  1  0.68499837  0.92870175  0.94253364  1
  Zn  Zn118  1  0.31785931  0.06377141  0.05547936  1
  Zn  Zn119  1  0.31240925  0.06277746  0.56632981  1
  Zn  Zn120  1  0.31844850  0.56668539  0.06809293  1
  Zn  Zn121  1  0.31759739  0.56626004  0.57087983  1
  Zn  Zn122  1  0.79385523  0.06502461  0.08497793  1
  Zn  Zn123  1  0.81179824  0.05365565  0.55583078  1
  Zn  Zn124  1  0.81412566  0.55601712  -0.04524433  1
  Zn  Zn125  1  0.79814717  0.57759661  0.59320452  1
  Zn  Zn126  1  0.44300182  0.43959313  0.18689427  1
  Zn  Zn127  1  0.43645723  0.44343273  0.68412489  1
  Zn  Zn128  1  0.42523013  0.93476316  0.18605212  1
  Zn  Zn129  1  0.43959444  0.93730713  0.68950520  1
  Zn  Zn130  1  0.93983107  0.43950717  0.19350226  1
  Zn  Zn131  1  0.94153695  0.43694777  0.66968720  1
  Zn  Zn132  1  0.95379329  0.93852314  0.18674498  1
  Zn  Zn133  1  0.92565932  0.93236633  0.69770219  1
  Zn  Zn134  1  0.06253698  0.05973988  0.31982210  1
  Zn  Zn135  1  0.05741504  0.06151677  0.83254290  1
  Zn  Zn136  1  0.06650095  0.57227436  0.31577903  1
  Zn  Zn137  1  -0.02197638  0.57670519  0.81631246  1
  Zn  Zn138  1  0.56573251  0.06241044  0.17788967  1
  Zn  Zn139  1  0.56713623  0.05339198  0.81120610  1
  Zn  Zn140  1  0.54854674  0.56370368  0.30483141  1
  Zn  Zn141  1  0.56441132  0.56489583  0.81175957  1
  Zn  Zn142  1  0.43384619  0.19050101  0.43386490  1
  Zn  Zn143  1  0.44479288  0.18744300  0.93579155  1
  Zn  Zn144  1  0.43018461  0.68709470  0.44484430  1
  Zn  Zn145  1  0.44128856  0.69840502  0.96256497  1
  Zn  Zn146  1  0.93618692  0.18295876  0.43919872  1
  Zn  Zn147  1  0.94367210  0.19347021  0.94155976  1
  Zn  Zn148  1  0.93970535  0.69886770  0.42498956  1
  Zn  Zn149  1  0.94398832  0.68952403  0.93692348  1
  Zn  Zn150  1  0.06428485  0.31231831  0.06936212  1
  Zn  Zn151  1  0.06458361  0.30843341  0.56711509  1
  Zn  Zn152  1  0.05847896  0.81955265  0.07587905  1
  Zn  Zn153  1  0.05797117  0.81281961  0.57002470  1
  Zn  Zn154  1  0.56858150  0.31347555  0.06445480  1
  Zn  Zn155  1  0.56034643  0.30992276  0.55542096  1
  Zn  Zn156  1  0.54841031  0.80368678  0.05793060  1
  Zn  Zn157  1  0.56171919  0.81271973  0.55117233  1
  O  O158  1  0.12995554  0.14905043  0.11507656  1
  O  O159  1  0.12920568  0.12601994  0.61105380  1
  O  O160  1  0.11891020  0.60661438  0.13311468  1
  O  O161  1  0.13070579  0.61860484  0.63602526  1
  O  O162  1  0.63627381  0.12980290  0.12548441  1
  O  O163  1  0.61147189  0.12145007  0.61876652  1
  O  O164  1  0.63203126  0.61106955  0.12592527  1
  O  O165  1  0.62700130  0.60000044  0.60667907  1
  O  O166  1  0.37024806  0.37223008  0.39097137  1
  O  O167  1  0.38452098  0.38028391  0.88517052  1
  O  O168  1  0.37178262  0.87996318  0.38253057  1
  O  O169  1  0.37777204  0.88309244  0.88401536  1
  O  O170  1  0.88738918  0.38990771  0.37165945  1
  O  O171  1  0.88020541  0.36343246  0.89212804  1
  O  O172  1  0.86594642  0.89134279  0.36179596  1
  O  O173  1  0.85802364  0.89074071  0.86394566  1
  O  O174  1  0.25506019  0.01032148  0.36728813  1
  O  O175  1  0.25638480  0.00637849  0.86016862  1
  O  O176  1  0.25410644  0.50686674  0.39689440  1
  O  O177  1  0.24767509  0.51029622  0.86551017  1
  O  O178  1  0.76202385  0.00772763  0.38693184  1
  O  O179  1  0.73301205  0.00272221  0.85948182  1
  O  O180  1  0.76061039  0.49426053  0.36845642  1
  O  O181  1  0.75062309  0.49370151  0.87140190  1
  O  O182  1  0.23535432  0.49546112  0.12196379  1
  O  O183  1  0.24098017  0.49686477  0.63161147  1
  O  O184  1  0.25383999  1.01730165  0.13866566  1
  O  O185  1  0.25239627  0.99175257  0.63709633  1
  O  O186  1  0.74337736  0.48657382  0.14475235  1
  O  O187  1  0.73788956  0.47911287  0.60232782  1
  O  O188  1  0.73915947  0.97325505  0.12288903  1
  O  O189  1  0.73560169  0.98616604  0.61427643  1
  O  O190  1  0.00811827  0.36847515  0.26401663  1
  O  O191  1  0.00831992  0.36752120  0.74771724  1
  O  O192  1  0.01669289  0.85097320  0.22352203  1
  O  O193  1  -0.01892015  0.85810535  0.76096272  1
  O  O194  1  0.51135731  0.36879504  0.25217619  1
  O  O195  1  0.48917561  0.36831995  0.75822462  1
  O  O196  1  0.49890827  0.87228300  0.25916641  1
  O  O197  1  0.49564176  0.87729922  0.76553314  1
  O  O198  1  0.50046490  0.13932347  0.24601682  1
  O  O199  1  0.49371975  0.13427603  0.74076860  1
  O  O200  1  0.48817394  0.62780924  0.24004933  1
  O  O201  1  0.48048860  0.60349373  0.74581046  1
  O  O202  1  0.99493004  0.13930122  0.26435999  1
  O  O203  1  1.01379121  0.13626133  0.75516242  1
  O  O204  1  0.99507379  0.63283042  0.24470135  1
  O  O205  1  0.99565097  0.65987807  0.74715584  1
  O  O206  1  0.37437044  0.25934073  0.00295839  1
  O  O207  1  0.36881686  0.25967557  0.50675310  1
  O  O208  1  0.35116226  0.77294797  -0.01457249  1
  O  O209  1  0.35936926  0.76161952  0.51199755  1
  O  O210  1  0.88752949  0.26050374  0.02085769  1
  O  O211  1  0.86940933  0.24435098  0.51236819  1
  O  O212  1  0.86474443  0.74592948  -0.00033352  1
  O  O213  1  0.85309094  0.75206002  0.47964413  1
  O  O214  1  0.12969891  0.23833264  0.49766473  1
  O  O215  1  0.13369352  0.25596771  0.99391780  1
  O  O216  1  0.13877768  0.75152365  0.52078580  1
  O  O217  1  0.11945576  0.75461411  0.99578598  1
  O  O218  1  0.64029457  0.24820915  0.49624796  1
  O  O219  1  0.62214647  0.25123820  0.98466614  1
  O  O220  1  0.62758428  0.73864836  0.49050819  1
  O  O221  1  0.62682720  0.72939399  1.00298055  1
  O  O222  1  0.49326027  0.26084900  0.13337587  1
  O  O223  1  0.49734763  0.24195230  0.62933518  1
  O  O224  1  0.46871551  0.72723238  0.07485523  1
  O  O225  1  0.48151358  0.74927120  0.60669818  1
  O  O226  1  0.99124607  0.25841559  0.14391329  1
  O  O227  1  0.98948933  0.24793502  0.62911828  1
  O  O228  1  1.01227516  0.72811750  0.13140032  1
  O  O229  1  0.98169954  0.76901966  0.64008105  1
  O  O230  1  0.00373913  0.25768500  0.37228805  1
  O  O231  1  0.01230859  0.25858863  0.86458147  1
  O  O232  1  0.00782711  0.75016705  0.35203650  1
  O  O233  1  0.01966192  0.75012132  0.87336396  1
  O  O234  1  0.49828635  0.25479514  0.36439883  1
  O  O235  1  0.50752890  0.26128070  0.86646972  1
  O  O236  1  0.50749561  0.75574949  0.38260785  1
  O  O237  1  0.49056962  0.76438278  0.88231122  1
  O  O238  1  0.24184486  0.12673474  0.49505429  1
  O  O239  1  0.25070015  0.14678734  0.99867510  1
  O  O240  1  0.25219335  0.63694521  0.50997252  1
  O  O241  1  0.25529820  0.61567613  0.98227852  1
  O  O242  1  0.75640533  0.13427305  0.48919520  1
  O  O243  1  0.74887779  0.11384414  0.99560823  1
  O  O244  1  0.73712440  0.63637351  0.50208840  1
  O  O245  1  0.74049821  0.63252203  1.00140385  1
  O  O246  1  0.26276097  0.37079698  -0.00349163  1
  O  O247  1  0.25277479  0.36836195  0.50800403  1
  O  O248  1  0.26608768  0.90366800  0.01158036  1
  O  O249  1  0.25441992  0.87041451  0.51807926  1
  O  O250  1  0.76397074  0.37945686  0.01936045  1
  O  O251  1  0.75117128  0.35666630  0.50326380  1
  O  O252  1  0.75733857  0.86514980  0.01072800  1
  O  O253  1  0.73307661  0.86006495  0.50370241  1
  O  O254  1  0.11751956  0.49077825  0.24269040  1
  O  O255  1  0.13360388  0.49043359  0.74004191  1
  O  O256  1  0.13980102  1.01067300  0.25306093  1
  O  O257  1  0.13775129  1.01028582  0.75881293  1
  O  O258  1  0.63117541  0.49375112  0.24918046  1
  O  O259  1  0.62327229  0.49661713  0.73227998  1
  O  O260  1  0.61583009  0.98188981  0.24561831  1
  O  O261  1  0.63932231  1.00827039  0.72833155  1
  O  O262  1  0.36443513  0.00341532  0.26052054  1
  O  O263  1  0.37297248  0.01412254  0.74850886  1
  O  O264  1  0.38225330  0.50871485  0.24671998  1
  O  O265  1  0.35860208  0.50684407  0.74809729  1
  O  O266  1  0.89353141  0.01184884  0.26198765  1
  O  O267  1  0.83528952  -0.00747821  0.73264733  1
  O  O268  1  0.87019038  0.50565048  0.26042957  1
  O  O269  1  0.90465839  0.48480926  0.76932557  1
  O  O270  1  0.11786444  0.37038401  0.37222408  1
  O  O271  1  0.13140577  0.36999048  0.86083143  1
  O  O272  1  0.18114732  0.86236607  0.35722357  1
  O  O273  1  0.13840529  0.86527374  0.88614477  1
  O  O274  1  0.62563105  0.37307536  0.36521418  1
  O  O275  1  0.61782118  0.37126087  0.87326015  1
  O  O276  1  0.61091154  0.86440162  0.36213058  1
  O  O277  1  0.61055659  0.86941072  0.88030160  1
  O  O278  1  0.37326168  0.14296223  0.12428998  1
  O  O279  1  0.38416030  0.13048037  0.63140445  1
  O  O280  1  0.32556435  0.64387582  0.14591522  1
  O  O281  1  0.38614949  0.63654608  0.63669297  1
  O  O282  1  0.86564964  0.13642343  0.14401667  1
  O  O283  1  0.87247762  0.12969934  0.62196973  1
  O  O284  1  0.89259655  0.61920686  0.14306127  1
  O  O285  1  0.88024030  0.65400744  0.60183357  1
  O  O286  1  0.26338982  0.26159721  0.11695242  1
  O  O287  1  0.25554676  0.25493759  0.62249896  1
  O  O288  1  0.23628348  0.77450065  0.11745479  1
  O  O289  1  0.25904272  0.76499947  0.62790204  1
  O  O290  1  0.76561414  0.26456895  0.14278255  1
  O  O291  1  0.76078869  0.25337213  0.61286618  1
  O  O292  1  0.74191678  0.76238917  0.10940897  1
  O  O293  1  0.74944129  0.75643595  0.60759907  1
  O  O294  1  0.24601580  0.24022988  0.38268126  1
  O  O295  1  0.24309126  0.25442733  0.88169469  1
  O  O296  1  0.24469799  0.73652613  0.40085884  1
  O  O297  1  0.23684889  0.74027961  0.86995994  1
  O  O298  1  0.75915303  0.24297502  0.38701044  1
  O  O299  1  0.73118088  0.26052020  0.86097667  1
  O  O300  1  0.72735610  0.75638750  0.38137731  1
  O  O301  1  0.74478799  0.75816866  0.89711617  1
  O  O302  1  0.01656106  0.13216045  0.00614019  1
  O  O303  1  0.01364973  0.11765966  0.49796215  1
  O  O304  1  -0.00619798  0.61132189  0.01601508  1
  O  O305  1  0.00429099  0.62620198  0.49248078  1
  O  O306  1  0.50752920  0.11263752  -0.00488271  1
  O  O307  1  0.49180870  0.13098594  0.51397202  1
  O  O308  1  0.51682386  0.60728836  -0.01383715  1
  O  O309  1  0.50844763  0.62013002  0.51381626  1
  O  O310  1  0.48924212  0.38218180  0.49863352  1
  O  O311  1  0.49725804  0.38195980  0.98967939  1
  O  O312  1  0.48298251  0.87074307  0.48639183  1
  O  O313  1  0.48519436  0.88421517  0.99311297  1
  O  O314  1  1.00555475  0.37312049  0.49147130  1
  O  O315  1  0.99139525  0.38199365  1.01182225  1
  O  O316  1  1.01146846  0.88572656  0.49606102  1
  O  O317  1  0.98020156  0.88211023  1.01844629  1
  O  O318  1  0.50130533  0.49939229  0.39083559  1
  O  O319  1  0.50154676  0.49048665  0.88147507  1
  O  O320  1  0.48133594  0.98561947  0.37321460  1
  O  O321  1  0.50159978  0.99080440  0.88342662  1
  O  O322  1  0.99961996  0.49665715  0.38900543  1
  O  O323  1  1.00772863  0.48804817  0.88844575  1
  O  O324  1  0.99175462  0.99610478  0.38384861  1
  O  O325  1  1.01656541  1.00081866  0.91530501  1
  O  O326  1  0.00322426  0.00793437  0.10914076  1
  O  O327  1  -0.01453853  -0.01241564  0.61217976  1
  O  O328  1  0.00851251  0.50557433  0.12378241  1
  O  O329  1  0.00498263  0.50893553  0.61062596  1
  O  O330  1  0.49066195  0.00132160  0.11413878  1
  O  O331  1  0.50887622  0.01257756  0.62752210  1
  O  O332  1  0.51766282  0.48764018  0.11127928  1
  O  O333  1  0.51285429  0.50565610  0.61871972  1
  O  O334  1  0.23977531  0.37935312  0.25690886  1
  O  O335  1  0.24605940  0.38339369  0.74613356  1
  O  O336  1  0.25361122  0.89613539  0.22482486  1
  O  O337  1  0.25678062  0.89068377  0.74245181  1
  O  O338  1  0.74522219  0.38181592  0.25117083  1
  O  O339  1  0.75029004  0.36662705  0.71963891  1
  O  O340  1  0.72482715  0.86137380  0.23536692  1
  O  O341  1  0.72912347  0.86088329  0.72514428  1
  O  O342  1  0.25534755  0.12380746  0.26183778  1
  O  O343  1  0.25921171  0.11581547  0.74670988  1
  O  O344  1  0.24756180  0.60765947  0.27816158  1
  O  O345  1  0.25664834  0.61976394  0.75798110  1
  O  O346  1  0.76774204  0.13118776  0.27040594  1
  O  O347  1  0.74842699  0.12688732  0.74683511  1
  O  O348  1  0.76409682  0.61521474  0.24397998  1
  O  O349  1  0.76147141  0.60043124  0.70468388  1
  O  O350  1  0.36537924  0.11691808  0.37799401  1
  O  O351  1  0.37415486  0.13087674  0.86163161  1
  O  O352  1  0.35681109  0.62916564  0.38374246  1
  O  O353  1  0.36838871  0.62718596  0.86693376  1
  O  O354  1  0.87178538  0.11298099  0.37209819  1
  O  O355  1  0.88295116  0.13591421  0.86915035  1
  O  O356  1  0.88506904  0.61337784  0.36040294  1
  O  O357  1  0.88110489  0.61311710  0.87739898  1
  O  O358  1  0.12603505  0.38054832  0.14125193  1
  O  O359  1  0.13032356  0.37574853  0.63661662  1
  O  O360  1  0.13931702  0.89440702  0.10464688  1
  O  O361  1  0.13969403  0.87745471  0.62930805  1
  O  O362  1  0.63644998  0.37833368  0.13683900  1
  O  O363  1  0.62565452  0.38361260  0.61592403  1
  O  O364  1  0.60288527  0.86094085  0.14001003  1
  O  O365  1  0.62137981  0.88698316  0.61532234  1
  O  O366  1  0.12076571  0.25929689  0.25888368  1
  O  O367  1  0.12131682  0.25812474  0.75470426  1
  O  O368  1  0.13230975  0.73447666  0.24553144  1
  O  O369  1  0.11938601  0.76547269  0.75389464  1
  O  O370  1  0.61933960  0.25827922  0.25615136  1
  O  O371  1  0.61127049  0.25104959  0.75126614  1
  O  O372  1  0.62246875  0.74273512  0.26258893  1
  O  O373  1  0.57949033  0.69833461  0.69641691  1
  O  O374  1  0.38421530  0.25255532  0.24084638  1
  O  O375  1  0.38287561  0.24446812  0.74398703  1
  O  O376  1  0.35055802  0.75175677  0.25596169  1
  O  O377  1  0.36787373  0.74243078  0.74290431  1
  O  O378  1  0.88540219  0.24503104  0.25121235  1
  O  O379  1  0.88609560  0.25005136  0.72985994  1
  O  O380  1  0.86714797  0.73422598  0.25848558  1
  O  O381  1  0.85343664  0.74337434  0.73614025  1
  O  O382  1  0.38539276  0.49088034  0.51620041  1
  O  O383  1  0.38762700  0.49547925  1.00335050  1
  O  O384  1  0.36157522  0.98899729  0.49134556  1
  O  O385  1  0.38797130  1.00047024  0.99348540  1
  O  O386  1  0.89215712  0.51241210  0.49222791  1
  O  O387  1  0.88735799  0.48459437  1.00712744  1
  O  O388  1  0.88913926  0.99975375  0.48780046  1
  O  O389  1  0.87628908  1.00609321  1.00638422  1
  O  O390  1  0.14394469  0.03247227  0.00546214  1
  O  O391  1  0.11532081  0.00804126  0.49706382  1
  O  O392  1  0.11436152  0.48629859  0.01805822  1
  O  O393  1  0.10961488  0.50073105  0.51237134  1
  O  O394  1  0.60797406  -0.00612015  0.00189488  1
  O  O395  1  0.62104419  0.00065457  0.50675376  1
  O  O396  1  0.62685539  0.50864076  0.00887442  1
  O  O397  1  0.61607866  0.50240498  0.50022113  1
  O  O398  1  0.37768505  0.37085050  0.11160345  1
  O  O399  1  0.36845069  0.37032208  0.61857383  1
  O  O400  1  0.36890228  0.86936132  0.11106319  1
  O  O401  1  0.37308247  0.87285249  0.61938428  1
  O  O402  1  0.87151418  0.36941748  0.12816082  1
  O  O403  1  0.86739977  0.37237060  0.61454097  1
  O  O404  1  0.86134695  0.87563449  0.14597400  1
  O  O405  1  0.85154389  0.86338020  0.62081050  1
  O  O406  1  0.13424567  0.12982863  0.38513082  1
  O  O407  1  0.13011992  0.14427087  0.88716707  1
  O  O408  1  0.14019882  0.61758525  0.38759184  1
  O  O409  1  0.13516147  0.63359284  0.87929653  1
  O  O410  1  0.64715740  0.12256528  0.36994194  1
  O  O411  1  0.61943684  0.14283201  0.87078998  1
  O  O412  1  0.61450026  0.63327028  0.38001656  1
  O  O413  1  0.63301883  0.62395532  0.87967794  1
