# generated using pymatgen
data_V79Zn79O256
_symmetry_space_group_name_H-M   'P 1'
_cell_length_a   16.88252281
_cell_length_b   16.89029133
_cell_length_c   16.89553496
_cell_angle_alpha   90.06432061
_cell_angle_beta   89.88410922
_cell_angle_gamma   90.10123632
_symmetry_Int_Tables_number   1
_chemical_formula_structural   V79Zn79O256
_chemical_formula_sum   'V79 Zn79 O256'
_cell_volume   4817.75371182
_cell_formula_units_Z   1
loop_
 _symmetry_equiv_pos_site_id
 _symmetry_equiv_pos_as_xyz
  1  'x, y, z'
loop_
 _atom_site_type_symbol
 _atom_site_label
 _atom_site_symmetry_multiplicity
 _atom_site_fract_x
 _atom_site_fract_y
 _atom_site_fract_z
 _atom_site_occupancy
  V  V0  1  0.75101864  0.00541703  0.25318448  1
  V  V1  1  0.50161571  0.12716789  0.62940717  1
  V  V2  1  0.88804079  0.11929605  0.74336252  1
  V  V3  1  0.37327883  0.11875741  0.75249287  1
  V  V4  1  0.49673567  -0.00507566  0.00130004  1
  V  V5  1  0.25006457  0.25049780  0.49741655  1
  V  V6  1  0.63460137  0.23709468  0.37476700  1
  V  V7  1  0.11772261  0.48590423  0.62834876  1
  V  V8  1  0.63006210  0.49847743  0.13821386  1
  V  V9  1  0.87235291  0.26034224  0.61147098  1
  V  V10  1  0.50224479  0.87042143  0.37739606  1
  V  V11  1  0.37647516  0.00426502  0.37378743  1
  V  V12  1  0.24707791  0.62861963  0.37898447  1
  V  V13  1  0.37501815  0.76948264  0.11985507  1
  V  V14  1  0.49168425  0.62288168  0.12863434  1
  V  V15  1  0.00174200  0.64039535  0.62455550  1
  V  V16  1  0.50154744  0.49790464  -0.00392887  1
  V  V17  1  0.87487089  0.13098642  0.23732927  1
  V  V18  1  0.75342085  0.87316858  0.12340502  1
  V  V19  1  0.87541345  0.36889296  -0.00024051  1
  V  V20  1  0.86224352  0.37697529  0.48310822  1
  V  V21  1  0.25075222  -0.00705794  0.24306751  1
  V  V22  1  0.25325153  0.76443157  0.00039199  1
  V  V23  1  0.87735856  0.63697957  0.74145866  1
  V  V24  1  0.87299656  0.74269462  0.13921774  1
  V  V25  1  0.23860245  0.24913854  0.00752746  1
  V  V26  1  0.23876081  0.12119796  0.87389147  1
  V  V27  1  -0.00864740  0.00987773  0.01468930  1
  V  V28  1  0.39099388  0.13487143  0.24658311  1
  V  V29  1  0.37301029  0.73789435  0.62009648  1
  V  V30  1  0.88261998  0.50150308  0.87563523  1
  V  V31  1  0.89306052  -0.00480970  0.37416793  1
  V  V32  1  0.37425610  -0.00551546  0.88003780  1
  V  V33  1  0.61944734  0.12780331  0.00251879  1
  V  V34  1  0.36215225  0.87341308  0.50013655  1
  V  V35  1  0.50226434  0.36915264  0.86540889  1
  V  V36  1  0.12018843  0.11509965  0.50188677  1
  V  V37  1  0.24534503  0.49456523  0.75261133  1
  V  V38  1  -0.00716031  0.25330553  0.23111611  1
  V  V39  1  0.75017015  0.37460572  0.13501640  1
  V  V40  1  0.37647391  0.37380590  0.49851109  1
  V  V41  1  0.75247087  0.12918217  0.87503996  1
  V  V42  1  0.50928848  0.36807745  0.35939851  1
  V  V43  1  0.37154904  0.37294113  0.00113064  1
  V  V44  1  0.61895639  0.00695792  0.12694595  1
  V  V45  1  0.62946915  0.49606005  0.62063688  1
  V  V46  1  0.24911550  0.88059389  0.63976008  1
  V  V47  1  0.50123124  0.73799383  0.75121678  1
  V  V48  1  0.75882378  0.62058035  0.36777213  1
  V  V49  1  0.12405424  0.37497524  0.24970069  1
  V  V50  1  0.37906535  0.24873006  0.63122313  1
  V  V51  1  0.12698880  0.00722876  0.12130026  1
  V  V52  1  0.12721533  0.49602113  0.12221253  1
  V  V53  1  0.75043637  0.49310176  0.74374129  1
  V  V54  1  -0.00207031  0.62669075  0.13732214  1
  V  V55  1  0.12618036  0.63431897  -0.00566351  1
  V  V56  1  0.76860113  0.75905630  0.49729551  1
  V  V57  1  0.76206858  0.86902528  0.62747871  1
  V  V58  1  0.62311014  0.87218015  0.25563382  1
  V  V59  1  0.61973883  0.86866064  0.75868623  1
  V  V60  1  0.61736497  0.63956847  0.49810325  1
  V  V61  1  0.11255465  0.25456621  0.37466469  1
  V  V62  1  0.01311032  0.86183142  0.89551774  1
  V  V63  1  0.11844887  0.26363883  0.86582797  1
  V  V64  1  0.39767910  0.25002293  0.12562957  1
  V  V65  1  0.37592644  0.50051224  0.36775581  1
  V  V66  1  0.74830060  -0.00546260  0.75570413  1
  V  V67  1  0.62380966  0.24888309  0.86536798  1
  V  V68  1  0.25138645  0.50087682  0.24540395  1
  V  V69  1  0.62249230  0.62863408  -0.00564686  1
  V  V70  1  0.74480479  0.62928678  0.87135929  1
  V  V71  1  0.62301243  -0.00003910  0.62762055  1
  V  V72  1  0.49123374  0.74856029  0.25051418  1
  V  V73  1  0.75092065  0.74989835  -0.00025973  1
  V  V74  1  0.25275861  0.12878182  0.36757078  1
  V  V75  1  0.49935027  0.00203770  0.50412637  1
  V  V76  1  0.87288172  -0.01168172  0.88799188  1
  V  V77  1  -0.00516324  0.49164632  0.48954643  1
  V  V78  1  0.49996651  0.50285123  0.50447047  1
  Zn  Zn79  1  0.00894735  0.26204728  0.73811103  1
  Zn  Zn80  1  0.12647656  0.62519526  0.49804100  1
  Zn  Zn81  1  0.09813863  0.84178169  0.27001352  1
  Zn  Zn82  1  0.49594293  0.86518014  0.88146445  1
  Zn  Zn83  1  0.63025602  0.36625786  0.73973986  1
  Zn  Zn84  1  0.75178004  0.25029933  0.00583075  1
  Zn  Zn85  1  0.24313813  0.36794310  0.62980397  1
  Zn  Zn86  1  0.12441277  0.00930898  0.65197270  1
  Zn  Zn87  1  0.12209129  0.86509666  0.76649345  1
  Zn  Zn88  1  0.24649768  0.63490623  0.86632612  1
  Zn  Zn89  1  0.99292127  0.99126393  0.51551662  1
  Zn  Zn90  1  0.00381456  0.49969447  -0.00332835  1
  Zn  Zn91  1  0.37272015  0.49874011  0.87112710  1
  Zn  Zn92  1  0.37412533  0.62047727  0.74926908  1
  Zn  Zn93  1  0.75607745  0.13167113  0.40365001  1
  Zn  Zn94  1  0.18223248  0.18380403  0.18659100  1
  Zn  Zn95  1  0.18866634  0.18488137  0.68819855  1
  Zn  Zn96  1  0.19395207  0.68516202  0.18793216  1
  Zn  Zn97  1  0.18614515  0.69069371  0.68636788  1
  Zn  Zn98  1  0.68078566  0.19439353  0.19530800  1
  Zn  Zn99  1  0.69687703  0.18287927  0.68338476  1
  Zn  Zn100  1  0.67907622  0.68655442  0.18803418  1
  Zn  Zn101  1  0.68539305  0.68465453  0.67894238  1
  Zn  Zn102  1  0.31198640  0.31702013  0.30630869  1
  Zn  Zn103  1  0.30785747  0.31190779  0.81499261  1
  Zn  Zn104  1  0.28171749  0.83053131  0.33298995  1
  Zn  Zn105  1  0.31389238  0.80710830  0.81213743  1
  Zn  Zn106  1  0.80898207  0.31341108  0.31267543  1
  Zn  Zn107  1  0.84806932  0.32566626  0.79458567  1
  Zn  Zn108  1  0.81315690  0.81348193  0.31757799  1
  Zn  Zn109  1  0.81292701  0.81279599  0.81476246  1
  Zn  Zn110  1  0.18450274  0.43972507  0.43597078  1
  Zn  Zn111  1  0.18492284  0.43542584  0.93780442  1
  Zn  Zn112  1  0.14256958  0.90510708  0.44387482  1
  Zn  Zn113  1  0.18422935  0.94370667  0.94726820  1
  Zn  Zn114  1  0.68573807  0.44085710  0.43013981  1
  Zn  Zn115  1  0.69145198  0.43720472  0.93522423  1
  Zn  Zn116  1  0.70694691  0.96229899  0.45756011  1
  Zn  Zn117  1  0.68382198  0.93699846  0.94077955  1
  Zn  Zn118  1  0.31483054  0.07146656  0.06120014  1
  Zn  Zn119  1  0.30790536  0.06005456  0.56255282  1
  Zn  Zn120  1  0.30967405  0.56329952  0.05896693  1
  Zn  Zn121  1  0.30647710  0.55801705  0.56133909  1
  Zn  Zn122  1  0.80656154  0.06493288  0.06465956  1
  Zn  Zn123  1  0.81501282  0.05586671  0.56483245  1
  Zn  Zn124  1  0.81121270  0.56235191  0.06454460  1
  Zn  Zn125  1  0.81003722  0.56533101  0.55540506  1
  Zn  Zn126  1  0.43677314  0.43666256  0.18229969  1
  Zn  Zn127  1  0.43638470  0.43763268  0.68443251  1
  Zn  Zn128  1  0.43520445  0.94204090  0.19055165  1
  Zn  Zn129  1  0.43374704  0.93269614  0.69274099  1
  Zn  Zn130  1  0.93532174  0.44022474  0.19016391  1
  Zn  Zn131  1  0.93643065  0.43764351  0.68494311  1
  Zn  Zn132  1  0.94001441  0.93207470  0.19279316  1
  Zn  Zn133  1  0.94513613  0.93367359  0.70689164  1
  Zn  Zn134  1  0.06838710  0.07200656  0.29515608  1
  Zn  Zn135  1  0.05977858  0.04740664  0.82107963  1
  Zn  Zn136  1  0.06476266  0.56515665  0.31130330  1
  Zn  Zn137  1  0.06407949  0.57161519  0.80693421  1
  Zn  Zn138  1  0.56533064  0.06175495  0.31659361  1
  Zn  Zn139  1  0.55872019  0.06212110  0.81323461  1
  Zn  Zn140  1  0.56526625  0.56726289  0.31916422  1
  Zn  Zn141  1  0.56387499  0.55793368  0.80927480  1
  Zn  Zn142  1  0.44461884  0.18905709  0.43946972  1
  Zn  Zn143  1  0.43708433  0.18646458  0.93751893  1
  Zn  Zn144  1  0.43160858  0.68751292  0.43553168  1
  Zn  Zn145  1  0.42985097  0.68362298  0.93432185  1
  Zn  Zn146  1  0.93458190  0.17857757  0.43338517  1
  Zn  Zn147  1  0.94029733  0.18416955  0.93768994  1
  Zn  Zn148  1  0.93622927  0.68212365  0.44099578  1
  Zn  Zn149  1  0.93271886  0.68199014  0.94700033  1
  Zn  Zn150  1  0.05910305  0.31476034  0.05680596  1
  Zn  Zn151  1  0.05114656  0.30439763  0.55806907  1
  Zn  Zn152  1  0.07213323  0.81205624  0.09219265  1
  Zn  Zn153  1  0.04129058  0.84388312  0.58238950  1
  Zn  Zn154  1  0.57020912  0.31669600  0.05718921  1
  Zn  Zn155  1  0.56701402  0.31277705  0.55494183  1
  Zn  Zn156  1  0.56500334  0.81435143  0.06646180  1
  Zn  Zn157  1  0.55535109  0.81802883  0.57063576  1
  O  O158  1  0.10695336  0.10234819  0.16295199  1
  O  O159  1  0.13603790  0.12013212  0.60781006  1
  O  O160  1  0.11512404  0.61462456  0.11631520  1
  O  O161  1  0.11211315  0.61997653  0.62056482  1
  O  O162  1  0.63445331  0.11647674  0.11677600  1
  O  O163  1  0.61516929  0.11040281  0.63608894  1
  O  O164  1  0.61623213  0.61381760  0.11534745  1
  O  O165  1  0.62759930  0.61164490  0.60738132  1
  O  O166  1  0.38016963  0.38050546  0.38150817  1
  O  O167  1  0.38369383  0.37267190  0.88369296  1
  O  O168  1  0.38043995  0.88388362  0.38084725  1
  O  O169  1  0.37232564  0.89159609  0.87221302  1
  O  O170  1  0.87687313  0.37183733  0.38425236  1
  O  O171  1  0.86315955  0.39412360  0.88989896  1
  O  O172  1  0.87675144  0.89548670  0.36391936  1
  O  O173  1  0.86926192  0.88555407  0.88411330  1
  O  O174  1  0.26275656  0.01436063  0.36017399  1
  O  O175  1  0.25811143  0.01669051  0.89264656  1
  O  O176  1  0.25706041  0.50280762  0.36702973  1
  O  O177  1  0.24477558  0.49760805  0.85945069  1
  O  O178  1  0.75636957  -0.00685364  0.35594997  1
  O  O179  1  0.75366926  0.00671973  0.87694026  1
  O  O180  1  0.75034019  0.52074713  0.38301067  1
  O  O181  1  0.75499784  0.51303549  0.86578475  1
  O  O182  1  0.23868516  0.50635652  0.13183966  1
  O  O183  1  0.23323228  0.49518196  0.62850797  1
  O  O184  1  0.24076574  1.01803380  0.13340804  1
  O  O185  1  0.24455304  0.98555151  0.62208402  1
  O  O186  1  0.73522554  0.49837829  0.12209272  1
  O  O187  1  0.74353422  0.50605289  0.63228225  1
  O  O188  1  0.74216495  0.99165201  0.13251266  1
  O  O189  1  0.73904841  0.98786445  0.63660361  1
  O  O190  1  0.00640343  0.36190933  0.24456055  1
  O  O191  1  -0.04448066  0.35929462  0.76086942  1
  O  O192  1  -0.01004926  0.85996762  0.25797724  1
  O  O193  1  -0.00314448  0.87433010  0.78871133  1
  O  O194  1  0.49626857  0.38070849  0.26120446  1
  O  O195  1  0.50251784  0.38177642  0.76219674  1
  O  O196  1  0.50274265  0.87273147  0.25834595  1
  O  O197  1  0.50483539  0.86554933  0.75482186  1
  O  O198  1  0.48978284  0.12447158  0.25489843  1
  O  O199  1  0.48908403  0.12366526  0.73941994  1
  O  O200  1  0.50975446  0.63698911  0.24139259  1
  O  O201  1  0.50006655  0.63393798  0.74949493  1
  O  O202  1  0.98401873  0.14150570  0.25339696  1
  O  O203  1  0.98795718  0.12030133  0.76257196  1
  O  O204  1  1.00621407  0.62859096  0.23617639  1
  O  O205  1  0.98838575  0.62497734  0.73734528  1
  O  O206  1  0.37051914  0.25365265  0.01114123  1
  O  O207  1  0.36818300  0.25523705  0.50550529  1
  O  O208  1  0.36854710  0.74813229  0.01054024  1
  O  O209  1  0.38433963  0.75865669  0.51305486  1
  O  O210  1  0.87362733  0.26552202  -0.00880101  1
  O  O211  1  0.88444962  0.26176167  0.50224113  1
  O  O212  1  0.85444908  0.74017020  0.01243301  1
  O  O213  1  0.86750796  0.75526373  0.50242016  1
  O  O214  1  0.13188864  0.24316080  0.49366901  1
  O  O215  1  0.13463602  0.25621202  0.98977737  1
  O  O216  1  0.08774195  0.74130261  0.46863660  1
  O  O217  1  0.13899426  0.73976027  1.01415466  1
  O  O218  1  0.61681999  0.25308326  0.47698191  1
  O  O219  1  0.62801252  0.24196254  0.98877660  1
  O  O220  1  0.61278667  0.74001191  0.50670721  1
  O  O221  1  0.63175923  0.73561243  1.00967746  1
  O  O222  1  0.49641474  0.25145175  0.11993287  1
  O  O223  1  0.49020432  0.23895463  0.61427375  1
  O  O224  1  0.49091799  0.74299463  0.12537031  1
  O  O225  1  0.48413673  0.75664706  0.63926181  1
  O  O226  1  1.00154086  0.24784134  0.13257971  1
  O  O227  1  0.98123954  0.24290391  0.62512150  1
  O  O228  1  0.97878672  0.73929036  0.11476449  1
  O  O229  1  1.00253377  0.73895819  0.61599677  1
  O  O230  1  0.01095414  0.24608509  0.37241298  1
  O  O231  1  0.01854005  0.24171271  0.87741074  1
  O  O232  1  0.03562825  0.74046279  0.41130439  1
  O  O233  1  -0.00600215  0.76328880  0.90069612  1
  O  O234  1  0.49909206  0.26454054  0.37375814  1
  O  O235  1  0.51049001  0.25724299  0.87951558  1
  O  O236  1  0.48870263  0.76120846  0.36534881  1
  O  O237  1  0.48875059  0.75018815  0.85822662  1
  O  O238  1  0.25002349  0.13559448  0.48771360  1
  O  O239  1  0.25714342  0.14277378  0.98626979  1
  O  O240  1  0.24641942  0.61873378  0.48574765  1
  O  O241  1  0.23627430  0.62842310  0.99973184  1
  O  O242  1  0.73214552  0.07133179  0.49473519  1
  O  O243  1  0.73976964  0.12628814  0.99232535  1
  O  O244  1  0.74227149  0.64295652  0.49664026  1
  O  O245  1  0.74023017  0.62803563  0.99207120  1
  O  O246  1  0.26114952  0.36072262  -0.00941540  1
  O  O247  1  0.25778410  0.36592358  0.49808888  1
  O  O248  1  0.24416351  0.86288472  0.00706387  1
  O  O249  1  0.26108660  0.87555724  0.49970495  1
  O  O250  1  0.75851498  0.37617723  0.00667058  1
  O  O251  1  0.76268810  0.38227373  0.49315482  1
  O  O252  1  0.73468715  0.86298757  0.01326290  1
  O  O253  1  0.74520516  0.86658561  0.51172229  1
  O  O254  1  0.12830571  0.49198276  0.24329958  1
  O  O255  1  0.12974029  0.50246990  0.73692752  1
  O  O256  1  0.14926772  0.99550487  0.26022116  1
  O  O257  1  0.12686317  0.98183044  0.76100965  1
  O  O258  1  0.61913396  0.50460826  0.23636089  1
  O  O259  1  0.63383612  0.49983049  0.73877447  1
  O  O260  1  0.63006239  0.99567489  0.24381447  1
  O  O261  1  0.62656500  0.99104013  0.74664485  1
  O  O262  1  0.37107124  0.01703816  0.25102432  1
  O  O263  1  0.37782308  0.01074821  0.76177409  1
  O  O264  1  0.36380450  0.48839163  0.25573717  1
  O  O265  1  0.35974697  0.50078593  0.74375552  1
  O  O266  1  0.87038255  0.01362828  0.25032401  1
  O  O267  1  0.86948730  0.00382952  0.76837880  1
  O  O268  1  0.87203240  0.50367409  0.25436597  1
  O  O269  1  0.86739418  0.51041022  0.75835909  1
  O  O270  1  0.12782469  0.36635615  0.36369030  1
  O  O271  1  0.12365239  0.36336863  0.87306528  1
  O  O272  1  0.17157668  0.85168561  0.35244269  1
  O  O273  1  0.11721094  0.87190135  0.89025656  1
  O  O274  1  0.61158920  0.37548808  0.37305224  1
  O  O275  1  0.61982723  0.36596566  0.87332575  1
  O  O276  1  0.61010245  0.88495401  0.36559134  1
  O  O277  1  0.62449930  0.87621682  0.86237072  1
  O  O278  1  0.37601304  0.14300049  0.13029381  1
  O  O279  1  0.37804348  0.12870450  0.63238289  1
  O  O280  1  0.39009288  0.62019111  0.12156644  1
  O  O281  1  0.37141087  0.63485079  0.62035768  1
  O  O282  1  0.86930875  0.12867913  0.13753829  1
  O  O283  1  0.88272495  0.09950521  0.64326774  1
  O  O284  1  0.88450690  0.62953092  0.12469433  1
  O  O285  1  0.88327853  0.62094748  0.63509877  1
  O  O286  1  0.24136369  0.24526256  0.10910815  1
  O  O287  1  0.25820406  0.24886017  0.61373988  1
  O  O288  1  0.27077465  0.74324346  0.11757743  1
  O  O289  1  0.26916563  0.75804013  0.62863122  1
  O  O290  1  0.73877227  0.26933256  0.12407974  1
  O  O291  1  0.77611333  0.22356918  0.61420097  1
  O  O292  1  0.75363797  0.75169283  0.12168840  1
  O  O293  1  0.74341778  0.75826785  0.61160312  1
  O  O294  1  0.24590756  0.24687596  0.38001922  1
  O  O295  1  0.23869342  0.24165451  0.87960722  1
  O  O296  1  0.27606840  0.72297640  0.36573624  1
  O  O297  1  0.25962380  0.74997589  0.89596030  1
  O  O298  1  0.74131453  0.24574004  0.37527598  1
  O  O299  1  0.74372289  0.23663183  0.87626982  1
  O  O300  1  0.74843633  0.75317155  0.39351083  1
  O  O301  1  0.75363818  0.73755050  0.88324272  1
  O  O302  1  -0.00336053  0.11026916  0.00251093  1
  O  O303  1  0.01744317  0.11713861  0.49439176  1
  O  O304  1  0.01345117  0.62326215  0.00831611  1
  O  O305  1  -0.00725664  0.61008017  0.51645836  1
  O  O306  1  0.51307559  0.11626947  -0.00455278  1
  O  O307  1  0.49087267  0.11119208  0.51301011  1
  O  O308  1  0.50429873  0.61704248  0.00437597  1
  O  O309  1  0.50855510  0.61559598  0.49017138  1
  O  O310  1  0.48949244  0.38307462  0.49057211  1
  O  O311  1  0.49453406  0.38154686  0.99126226  1
  O  O312  1  0.48769424  0.88135695  0.49443274  1
  O  O313  1  0.51140772  0.88875313  0.99642459  1
  O  O314  1  0.99328420  0.38719750  0.50022271  1
  O  O315  1  0.98072246  0.38311426  1.00615972  1
  O  O316  1  1.03638190  0.89076179  0.48027284  1
  O  O317  1  1.00555689  0.89046635  1.00194884  1
  O  O318  1  0.49391202  0.49132036  0.38111295  1
  O  O319  1  0.50001930  0.49110438  0.88325180  1
  O  O320  1  0.49435557  0.99425497  0.38430330  1
  O  O321  1  0.49111365  0.99895814  0.88403635  1
  O  O322  1  1.00495878  0.50910570  0.39197706  1
  O  O323  1  0.98519039  0.50901345  0.87092523  1
  O  O324  1  0.99230094  1.00910286  0.35800938  1
  O  O325  1  0.98912756  0.99205151  0.89611385  1
  O  O326  1  -0.00106973  0.00024661  0.11885100  1
  O  O327  1  0.01943317  -0.03968168  0.62480495  1
  O  O328  1  0.00589270  0.51279227  0.12368919  1
  O  O329  1  0.00943835  0.50360532  0.62323104  1
  O  O330  1  0.51164700  -0.00296416  0.11959268  1
  O  O331  1  0.50170213  0.00517009  0.62360725  1
  O  O332  1  0.50886221  0.50292442  0.11608422  1
  O  O333  1  0.50505482  0.49780492  0.61105026  1
  O  O334  1  0.23526858  0.38385329  0.24893433  1
  O  O335  1  0.25191821  0.38734603  0.74587537  1
  O  O336  1  0.27522333  0.89692186  0.23655258  1
  O  O337  1  0.25786985  0.87731875  0.74106706  1
  O  O338  1  0.75942269  0.38095220  0.23407236  1
  O  O339  1  0.75385827  0.38969333  0.75673099  1
  O  O340  1  0.74008803  0.87965431  0.24274666  1
  O  O341  1  0.74028784  0.87395646  0.74685397  1
  O  O342  1  0.26133326  0.12958219  0.25762987  1
  O  O343  1  0.25880358  0.12748720  0.76460695  1
  O  O344  1  0.24480993  0.60830547  0.25809642  1
  O  O345  1  0.24761145  0.60873059  0.74712248  1
  O  O346  1  0.75881594  0.11847330  0.24692535  1
  O  O347  1  0.75680169  0.11223860  0.75985586  1
  O  O348  1  0.73531082  0.63705455  0.27020311  1
  O  O349  1  0.75744525  0.62071848  0.75252889  1
  O  O350  1  0.37146104  0.12680271  0.36835475  1
  O  O351  1  0.36984812  0.12167170  0.86773104  1
  O  O352  1  0.37122483  0.60496497  0.37984668  1
  O  O353  1  0.36534830  0.61476606  0.87059970  1
  O  O354  1  0.86671543  0.11646015  0.36362560  1
  O  O355  1  0.86616065  0.11703045  0.87218268  1
  O  O356  1  0.86021867  0.63620111  0.37469966  1
  O  O357  1  0.86754411  0.61854052  0.86531698  1
  O  O358  1  0.11643119  0.38748151  0.13098287  1
  O  O359  1  0.11953335  0.38240475  0.62197485  1
  O  O360  1  0.11873250  0.90748275  0.14072924  1
  O  O361  1  0.15057206  0.85653801  0.62507447  1
  O  O362  1  0.63413298  0.39051576  0.11916692  1
  O  O363  1  0.62002676  0.38776444  0.62407009  1
  O  O364  1  0.63038931  0.88580979  0.13561707  1
  O  O365  1  0.62602430  0.88338976  0.63920352  1
  O  O366  1  0.11302087  0.25543353  0.25364024  1
  O  O367  1  0.12389958  0.24731477  0.75906490  1
  O  O368  1  0.11481498  0.76060919  0.19330355  1
  O  O369  1  0.13694255  0.75356865  0.76235766  1
  O  O370  1  0.62132517  0.25179313  0.27104723  1
  O  O371  1  0.63453579  0.24811107  0.75947021  1
  O  O372  1  0.60825550  0.76600181  0.23905320  1
  O  O373  1  0.60986724  0.75324893  0.74024704  1
  O  O374  1  0.37225087  0.25122196  0.23209038  1
  O  O375  1  0.36775391  0.24291247  0.73703482  1
  O  O376  1  0.38702229  0.75498556  0.23132154  1
  O  O377  1  0.38267666  0.74442730  0.73967409  1
  O  O378  1  0.88360754  0.24519085  0.25058509  1
  O  O379  1  0.86975169  0.22533684  0.73759895  1
  O  O380  1  0.86579823  0.74589570  0.23769585  1
  O  O381  1  0.86991456  0.73546076  0.75148963  1
  O  O382  1  0.37916016  0.49054922  0.49416991  1
  O  O383  1  0.38313375  0.48912944  1.00176874  1
  O  O384  1  0.38059867  0.99366312  0.49531928  1
  O  O385  1  0.38715827  1.01097049  0.99499454  1
  O  O386  1  0.88478617  0.48824125  0.50687279  1
  O  O387  1  0.87517797  0.50556356  0.98499348  1
  O  O388  1  0.88519803  1.00788541  0.48006427  1
  O  O389  1  0.88004572  1.00302566  1.00114787  1
  O  O390  1  0.11706780  0.01115172  0.01633069  1
  O  O391  1  0.14036733  0.01808739  0.48652152  1
  O  O392  1  0.12528774  0.50656060  0.00617705  1
  O  O393  1  0.11379546  0.49953788  0.51103679  1
  O  O394  1  0.61929636  0.00853355  0.00805628  1
  O  O395  1  0.60515509  -0.01793618  0.51649748  1
  O  O396  1  0.61540868  0.50769443  0.00221045  1
  O  O397  1  0.61632779  0.50342823  0.50438239  1
  O  O398  1  0.37977989  0.36200573  0.11270860  1
  O  O399  1  0.37530512  0.36551458  0.61364599  1
  O  O400  1  0.38328937  0.86835194  0.11731585  1
  O  O401  1  0.36611447  0.87235952  0.61801884  1
  O  O402  1  0.86032481  0.38877043  0.10988108  1
  O  O403  1  0.86696834  0.36266772  0.61537728  1
  O  O404  1  0.85976250  0.86169759  0.13019415  1
  O  O405  1  0.86043987  0.88170510  0.63898020  1
  O  O406  1  0.13591158  0.13669741  0.37794455  1
  O  O407  1  0.13761763  0.12598446  0.87274840  1
  O  O408  1  0.14159649  0.62232392  0.37486000  1
  O  O409  1  0.12397281  0.62395302  0.89048488  1
  O  O410  1  0.62993027  0.13151530  0.37566836  1
  O  O411  1  0.63081447  0.12912248  0.88018720  1
  O  O412  1  0.63276925  0.62453810  0.39378382  1
  O  O413  1  0.63222363  0.61956734  0.88258756  1
