# generated using pymatgen
data_V79Zn79O256
_symmetry_space_group_name_H-M   'P 1'
_cell_length_a   16.87708000
_cell_length_b   16.87998670
_cell_length_c   16.89892012
_cell_angle_alpha   89.94808632
_cell_angle_beta   90.05917105
_cell_angle_gamma   90.00204337
_symmetry_Int_Tables_number   1
_chemical_formula_structural   V79Zn79O256
_chemical_formula_sum   'V79 Zn79 O256'
_cell_volume   4814.24238480
_cell_formula_units_Z   1
loop_
 _symmetry_equiv_pos_site_id
 _symmetry_equiv_pos_as_xyz
  1  'x, y, z'
loop_
 _atom_site_type_symbol
 _atom_site_label
 _atom_site_symmetry_multiplicity
 _atom_site_fract_x
 _atom_site_fract_y
 _atom_site_fract_z
 _atom_site_occupancy
  V  V0  1  0.46118350  0.74575862  0.72415855  1
  V  V1  1  0.75717910  0.26047571  0.00112806  1
  V  V2  1  0.86937842  0.11909399  0.25005185  1
  V  V3  1  0.75467253  0.62586174  0.88394384  1
  V  V4  1  0.73839352  0.48877098  0.74380653  1
  V  V5  1  0.26307054  0.75539186  0.49625947  1
  V  V6  1  0.88103499  0.62444418  0.75458840  1
  V  V7  1  0.50616837  0.26441418  0.24962163  1
  V  V8  1  0.63917519  0.87699275  0.24773162  1
  V  V9  1  0.74296806  0.86530218  0.63386506  1
  V  V10  1  0.12544929  0.85153927  0.74920825  1
  V  V11  1  0.62105153  0.75411445  0.87053668  1
  V  V12  1  0.37638441  0.12874457  0.75165541  1
  V  V13  1  -0.00292038  0.48386824  -0.00320401  1
  V  V14  1  0.12432796  0.37377408  0.24901681  1
  V  V15  1  0.86736250  0.37254678  0.50828695  1
  V  V16  1  -0.00066365  0.49790583  0.50196761  1
  V  V17  1  0.25346514  0.62729144  0.37438549  1
  V  V18  1  0.25096119  0.36864610  0.61166449  1
  V  V19  1  0.12878602  0.00425897  0.62410821  1
  V  V20  1  0.50802936  0.25765566  0.75357339  1
  V  V21  1  -0.00261400  0.74188578  0.24390431  1
  V  V22  1  0.37144714  0.25528761  0.61577120  1
  V  V23  1  0.73829654  0.12202327  0.37522564  1
  V  V24  1  0.00260003  0.87345388  0.37514616  1
  V  V25  1  0.00505199  0.62665380  0.63039665  1
  V  V26  1  0.12429030  0.49364572  0.62724194  1
  V  V27  1  0.24891466  0.50200605  0.24805214  1
  V  V28  1  0.24802603  0.37453243  0.12264999  1
  V  V29  1  0.37796694  0.38067201  -0.00242905  1
  V  V30  1  0.27129948  0.51889179  0.73646194  1
  V  V31  1  0.49660366  0.74935071  0.23332471  1
  V  V32  1  0.37637423  0.24772430  0.12357006  1
  V  V33  1  0.76592260  0.12036000  0.87098083  1
  V  V34  1  0.20899478  -0.03189802  0.24323840  1
  V  V35  1  0.37018985  0.12175355  0.26771051  1
  V  V36  1  0.24022047  0.24964984  -0.00654736  1
  V  V37  1  0.74548891  0.24466881  0.50544383  1
  V  V38  1  0.00094461  0.00001240  0.50320238  1
  V  V39  1  0.13842102  0.12991303  0.49376270  1
  V  V40  1  0.61601508  0.49836009  0.13210884  1
  V  V41  1  0.50036772  0.12082901  0.12117191  1
  V  V42  1  0.11140332  0.63422638  -0.00448810  1
  V  V43  1  0.26204368  0.87901333  0.61717463  1
  V  V44  1  0.51123198  0.12558603  0.62135311  1
  V  V45  1  0.74768431  0.74358376  0.50203062  1
  V  V46  1  0.49836612  0.48841813  0.50737917  1
  V  V47  1  0.37477718  0.86659056  0.01628973  1
  V  V48  1  0.62233976  0.12514969  -0.00331838  1
  V  V49  1  0.12497490  0.10486296  0.00016525  1
  V  V50  1  0.87087276  0.49962098  0.36970298  1
  V  V51  1  0.62332533  -0.01520050  0.62386051  1
  V  V52  1  -0.03226259  0.87969338  0.89608998  1
  V  V53  1  -0.00192564  0.13324097  0.62798474  1
  V  V54  1  0.75295982  0.38435143  0.14366347  1
  V  V55  1  0.38417139  0.48965932  0.37368307  1
  V  V56  1  0.87823504  0.74810801  0.62796971  1
  V  V57  1  0.62544304  0.27439847  0.36925769  1
  V  V58  1  -0.00004222  0.24636033  0.24922187  1
  V  V59  1  0.38382939  0.00005116  0.88406627  1
  V  V60  1  0.63764188  -0.00289946  0.12553745  1
  V  V61  1  0.61111109  0.62041776  0.00437228  1
  V  V62  1  -0.00139057  0.37225299  0.37502498  1
  V  V63  1  0.88030374  0.48346593  0.87848214  1
  V  V64  1  0.74639624  0.61937149  0.36686244  1
  V  V65  1  0.00336776  0.10766454  0.12305915  1
  V  V66  1  0.25177832  0.63279707  0.87992676  1
  V  V67  1  0.86793895  -0.00023328  0.37807744  1
  V  V68  1  0.11651296  0.50602914  0.12354866  1
  V  V69  1  0.13870932  0.24633819  0.37650928  1
  V  V70  1  0.49313476  0.87875564  0.37150108  1
  V  V71  1  0.12944130  0.36912893  0.76516617  1
  V  V72  1  0.50679906  0.38638957  0.87813346  1
  V  V73  1  0.37770200  0.63029617  0.23423360  1
  V  V74  1  0.25107565  0.00341313  0.74907054  1
  V  V75  1  0.12402675  0.75467778  0.37591737  1
  V  V76  1  0.00045844  0.25128247  0.76454475  1
  V  V77  1  0.86304475  0.75463663  0.11902419  1
  V  V78  1  0.61416462  0.62079595  0.51408360  1
  Zn  Zn79  1  0.50407405  0.87533218  0.87115556  1
  Zn  Zn80  1  0.13172432  0.62561816  0.50488698  1
  Zn  Zn81  1  0.87506827  0.61620032  0.23985807  1
  Zn  Zn82  1  0.75213115  0.76196048  0.00242867  1
  Zn  Zn83  1  0.63070432  0.25342656  0.87433383  1
  Zn  Zn84  1  0.38018238  0.50877671  0.87894905  1
  Zn  Zn85  1  0.49996147  0.01936384  0.47973188  1
  Zn  Zn86  1  0.37778434  0.88905136  0.49108906  1
  Zn  Zn87  1  0.62416936  0.74912231  0.37198839  1
  Zn  Zn88  1  0.87273735  0.87217611  0.50262810  1
  Zn  Zn89  1  0.86840523  0.25072245  0.63489016  1
  Zn  Zn90  1  0.75687089  -0.00856611  0.75941277  1
  Zn  Zn91  1  0.24259461  0.76055261  0.00116309  1
  Zn  Zn92  1  0.23862964  0.13064838  0.87078579  1
  Zn  Zn93  1  0.87782169  0.25459975  0.12262237  1
  Zn  Zn94  1  0.18881704  0.18001234  0.18502648  1
  Zn  Zn95  1  0.18488298  0.18983076  0.68595302  1
  Zn  Zn96  1  0.17979448  0.68899250  0.18949279  1
  Zn  Zn97  1  0.26310194  0.69543795  0.69236288  1
  Zn  Zn98  1  0.68754563  0.19109501  0.18622981  1
  Zn  Zn99  1  0.68920997  0.18762845  0.69081546  1
  Zn  Zn100  1  0.68508629  0.68838570  0.18245305  1
  Zn  Zn101  1  0.68910858  0.67488396  0.69374403  1
  Zn  Zn102  1  0.31586679  0.30998426  0.30756736  1
  Zn  Zn103  1  0.31445774  0.31776879  0.81013922  1
  Zn  Zn104  1  0.31338776  0.81454233  0.30290414  1
  Zn  Zn105  1  0.30422714  0.81997674  0.81843765  1
  Zn  Zn106  1  0.81375336  0.30898082  0.31586002  1
  Zn  Zn107  1  0.81178410  0.30838150  0.81344707  1
  Zn  Zn108  1  0.81786985  0.80859069  0.31496889  1
  Zn  Zn109  1  0.81246792  0.80654511  0.81422168  1
  Zn  Zn110  1  0.18915645  0.43635614  0.43408895  1
  Zn  Zn111  1  0.19369401  0.44690095  0.93662134  1
  Zn  Zn112  1  0.19485788  0.94574039  0.42740216  1
  Zn  Zn113  1  0.19037629  0.93429936  0.93052271  1
  Zn  Zn114  1  0.68686933  0.44055560  0.44544138  1
  Zn  Zn115  1  0.68820166  0.44380342  0.93632566  1
  Zn  Zn116  1  0.67860210  0.93742849  0.44386399  1
  Zn  Zn117  1  0.68237594  0.94430389  0.93705317  1
  Zn  Zn118  1  0.30450932  0.05475150  0.07264409  1
  Zn  Zn119  1  0.32299423  0.06592260  0.55700096  1
  Zn  Zn120  1  0.30460058  0.56417411  0.05733712  1
  Zn  Zn121  1  0.31972127  0.56131576  0.56004498  1
  Zn  Zn122  1  0.81016283  0.06397094  0.06124468  1
  Zn  Zn123  1  0.83544332  0.03618148  0.60279839  1
  Zn  Zn124  1  0.81736357  0.56320610  0.06686976  1
  Zn  Zn125  1  0.81051893  0.56077164  0.56392997  1
  Zn  Zn126  1  0.43564653  0.44284346  0.18306167  1
  Zn  Zn127  1  0.44533058  0.43621045  0.68591911  1
  Zn  Zn128  1  0.43994814  0.94228279  0.19189369  1
  Zn  Zn129  1  0.44349727  0.93451995  0.69562610  1
  Zn  Zn130  1  0.93648678  0.43463205  0.18390110  1
  Zn  Zn131  1  0.93828457  0.43209093  0.69457138  1
  Zn  Zn132  1  0.93834268  0.93221484  0.19404221  1
  Zn  Zn133  1  0.94859775  0.94256727  0.72760760  1
  Zn  Zn134  1  0.06649046  0.05943368  0.31304263  1
  Zn  Zn135  1  0.05601798  0.05972084  0.81582433  1
  Zn  Zn136  1  0.06316922  0.56346454  0.31630521  1
  Zn  Zn137  1  0.06838555  0.55959678  0.81341494  1
  Zn  Zn138  1  0.55629660  0.06390308  0.29913232  1
  Zn  Zn139  1  0.56975417  0.06233161  0.80632583  1
  Zn  Zn140  1  0.56254477  0.56353154  0.31024686  1
  Zn  Zn141  1  0.55859565  0.57656199  0.80677322  1
  Zn  Zn142  1  0.44446056  0.20082038  0.43749914  1
  Zn  Zn143  1  0.43571204  0.19128663  0.93721400  1
  Zn  Zn144  1  0.44202020  0.68962465  0.42493080  1
  Zn  Zn145  1  0.43409775  0.69402282  0.94624771  1
  Zn  Zn146  1  0.93707013  0.18469874  0.43993080  1
  Zn  Zn147  1  0.94090872  0.18543638  0.94205435  1
  Zn  Zn148  1  0.93611618  0.68268350  0.44034385  1
  Zn  Zn149  1  0.94236190  0.69549451  0.93616557  1
  Zn  Zn150  1  0.06223265  0.30884254  0.06294650  1
  Zn  Zn151  1  0.06370714  0.31095901  0.56161506  1
  Zn  Zn152  1  0.05264943  0.81992003  0.05717210  1
  Zn  Zn153  1  0.06949239  0.81326773  0.56609218  1
  Zn  Zn154  1  0.56814383  0.31520311  0.06219342  1
  Zn  Zn155  1  0.56933695  0.31548410  0.56346613  1
  Zn  Zn156  1  0.56207499  0.81691473  0.05222671  1
  Zn  Zn157  1  0.55404290  0.80398379  0.55997177  1
  O  O158  1  0.11077876  0.12411186  0.11983764  1
  O  O159  1  0.12074783  0.12199137  0.61449743  1
  O  O160  1  0.12872075  0.61322200  0.11317487  1
  O  O161  1  0.11621746  0.60772862  0.62431817  1
  O  O162  1  0.62038498  0.11976821  0.12099420  1
  O  O163  1  0.61384183  0.12544759  0.62669828  1
  O  O164  1  0.63383607  0.61360266  0.11189438  1
  O  O165  1  0.62249872  0.62593108  0.61329385  1
  O  O166  1  0.37100476  0.39091758  0.36878721  1
  O  O167  1  0.38543874  0.37483223  0.88415812  1
  O  O168  1  0.38998696  0.87548963  0.36508613  1
  O  O169  1  0.37393388  0.89326955  0.87407767  1
  O  O170  1  0.87876937  0.38153686  0.38330592  1
  O  O171  1  0.87645371  0.38567484  0.87758398  1
  O  O172  1  0.88104074  0.88166295  0.38303773  1
  O  O173  1  0.86571080  0.88116400  0.87928611  1
  O  O174  1  0.23444779  0.00265079  0.33881398  1
  O  O175  1  0.26110500  0.00771380  0.86165593  1
  O  O176  1  0.25762283  0.50841805  0.36924041  1
  O  O177  1  0.25648488  0.51203823  0.86643533  1
  O  O178  1  0.76163359  0.00473064  0.39060904  1
  O  O179  1  0.74200751  0.01624265  0.87223123  1
  O  O180  1  0.75682306  0.51064896  0.38176566  1
  O  O181  1  0.76663521  0.50618784  0.87344389  1
  O  O182  1  0.23801649  0.49428931  0.12856595  1
  O  O183  1  0.23942363  0.48551865  0.62657662  1
  O  O184  1  0.24493441  1.01122328  0.15608539  1
  O  O185  1  0.24610791  1.00097714  0.62845068  1
  O  O186  1  0.74883341  0.48808248  0.12295383  1
  O  O187  1  0.75615624  0.50317794  0.64451020  1
  O  O188  1  0.73562117  1.01069071  0.13406568  1
  O  O189  1  0.73272736  0.98046513  0.60897908  1
  O  O190  1  0.00380829  0.36560770  0.25371486  1
  O  O191  1  0.01761050  0.36470535  0.74768863  1
  O  O192  1  -0.00686802  0.85782708  0.26908529  1
  O  O193  1  0.02583343  0.86004656  0.72197215  1
  O  O194  1  0.49638449  0.36356860  0.24276898  1
  O  O195  1  0.49411375  0.36490453  0.76378669  1
  O  O196  1  0.50597861  0.86584352  0.25322161  1
  O  O197  1  0.48984022  0.84657616  0.75474702  1
  O  O198  1  0.49252078  0.14037051  0.23924486  1
  O  O199  1  0.49508860  0.13699176  0.74323896  1
  O  O200  1  0.49361847  0.64052980  0.25208291  1
  O  O201  1  0.49324446  0.65374797  0.75632381  1
  O  O202  1  0.99376780  0.12832551  0.24080427  1
  O  O203  1  1.01301799  0.14076536  0.74129708  1
  O  O204  1  0.99546842  0.63698922  0.26111687  1
  O  O205  1  0.99346997  0.61568615  0.74192872  1
  O  O206  1  0.36785724  0.25715669  0.00874549  1
  O  O207  1  0.38061553  0.25101758  0.51727128  1
  O  O208  1  0.36727129  0.76107903  0.01160844  1
  O  O209  1  0.36519480  0.75689457  0.48400153  1
  O  O210  1  0.86150335  0.24399020  0.00373600  1
  O  O211  1  0.86197152  0.25730044  0.49412448  1
  O  O212  1  0.87463734  0.74996528  0.01449152  1
  O  O213  1  0.86350949  0.74181323  0.51073344  1
  O  O214  1  0.11825370  0.24202438  0.48809363  1
  O  O215  1  0.13609968  0.24437949  1.00558403  1
  O  O216  1  0.13531291  0.74639867  0.49022115  1
  O  O217  1  0.11404285  0.73599846  0.99827294  1
  O  O218  1  0.63606773  0.25894055  0.48438455  1
  O  O219  1  0.63772170  0.24107802  1.00040483  1
  O  O220  1  0.63003794  0.73588378  0.49737471  1
  O  O221  1  0.63328678  0.73884043  0.99776490  1
  O  O222  1  0.49565025  0.24651584  0.12913240  1
  O  O223  1  0.49181701  0.24413931  0.63561631  1
  O  O224  1  0.50431219  0.75554221  0.13481249  1
  O  O225  1  0.47846656  0.74965837  0.62464927  1
  O  O226  1  0.99819849  0.24482240  0.13727350  1
  O  O227  1  1.00284074  0.24369446  0.63167004  1
  O  O228  1  1.00190492  0.75155736  0.14254312  1
  O  O229  1  0.99260860  0.73537634  0.61277145  1
  O  O230  1  0.00320331  0.25263759  0.36430299  1
  O  O231  1  0.00046611  0.24411896  0.86372902  1
  O  O232  1  0.00475218  0.75492313  0.38027706  1
  O  O233  1  -0.00985384  0.78104793  0.87499241  1
  O  O234  1  0.51967021  0.25218023  0.36832872  1
  O  O235  1  0.50054760  0.25600404  0.86333035  1
  O  O236  1  0.50635836  0.76062238  0.35881135  1
  O  O237  1  0.51660022  0.74823306  0.88265471  1
  O  O238  1  0.23747651  0.12131330  0.50289853  1
  O  O239  1  0.23543255  0.12910581  1.00519707  1
  O  O240  1  0.25524403  0.63419769  0.48985797  1
  O  O241  1  0.23360940  0.62904626  0.99504733  1
  O  O242  1  0.75222801  0.14227362  0.48677837  1
  O  O243  1  0.74306150  0.13218128  0.99245318  1
  O  O244  1  0.73754978  0.62660760  0.49670171  1
  O  O245  1  0.75256250  0.62351018  0.98852871  1
  O  O246  1  0.25525460  0.36848565  0.00302611  1
  O  O247  1  0.24891453  0.37716944  0.51165430  1
  O  O248  1  0.26843126  0.87727108  -0.00980829  1
  O  O249  1  0.25393118  0.87453821  0.49946741  1
  O  O250  1  0.74831604  0.36110133  -0.00660846  1
  O  O251  1  0.75764168  0.36346391  0.49442690  1
  O  O252  1  0.76646717  0.90360193  0.01333086  1
  O  O253  1  0.74406837  0.85585036  0.50730575  1
  O  O254  1  0.12641091  0.49637012  0.24323658  1
  O  O255  1  0.12843655  0.48753513  0.74032562  1
  O  O256  1  0.10561345  0.98074700  0.24301179  1
  O  O257  1  0.13718240  1.00976691  0.73676260  1
  O  O258  1  0.62450525  0.50918401  0.23196073  1
  O  O259  1  0.64096526  0.51230893  0.76041892  1
  O  O260  1  0.62195488  0.98607953  0.23856782  1
  O  O261  1  0.63753168  1.00664157  0.72959159  1
  O  O262  1  0.38478834  0.02291617  0.25086610  1
  O  O263  1  0.36850462  0.01051966  0.75213381  1
  O  O264  1  0.37108150  0.50858136  0.25672538  1
  O  O265  1  0.36620723  0.48324402  0.75803672  1
  O  O266  1  0.88218510  0.00755913  0.26613306  1
  O  O267  1  0.85806339  0.00063248  0.70995174  1
  O  O268  1  0.88370440  0.49985113  0.26559725  1
  O  O269  1  0.87549365  0.50375776  0.76482023  1
  O  O270  1  0.11833116  0.36846951  0.36895957  1
  O  O271  1  0.13193387  0.38035930  0.86347353  1
  O  O272  1  0.11372793  0.86548078  0.38495596  1
  O  O273  1  0.13473247  0.87474382  0.84951975  1
  O  O274  1  0.63112874  0.37268622  0.36776616  1
  O  O275  1  0.61004921  0.37343280  0.88282526  1
  O  O276  1  0.62159781  0.87324805  0.35961352  1
  O  O277  1  0.62705122  0.86019348  0.88609750  1
  O  O278  1  0.38250741  0.13664152  0.12193594  1
  O  O279  1  0.38297182  0.13588604  0.63506310  1
  O  O280  1  0.36820419  0.61895335  0.13516543  1
  O  O281  1  0.31972556  0.59730901  0.66488913  1
  O  O282  1  0.88452385  0.12456622  0.13100874  1
  O  O283  1  0.89332475  0.13493616  0.61461520  1
  O  O284  1  0.87138857  0.64111538  0.12928118  1
  O  O285  1  0.88425992  0.62661376  0.63336955  1
  O  O286  1  0.25780180  0.25481755  0.11728942  1
  O  O287  1  0.26351254  0.25346125  0.62880123  1
  O  O288  1  0.20583351  0.77891259  0.11702591  1
  O  O289  1  0.24858426  0.76657128  0.60474172  1
  O  O290  1  0.74833448  0.26228183  0.11516284  1
  O  O291  1  0.74937538  0.24294131  0.60956496  1
  O  O292  1  0.75776794  0.75520184  0.12259002  1
  O  O293  1  0.75397047  0.74602111  0.62071026  1
  O  O294  1  0.23755327  0.25853036  0.37238674  1
  O  O295  1  0.26081219  0.24539693  0.88804953  1
  O  O296  1  0.24333926  0.74544521  0.37641795  1
  O  O297  1  0.24922255  0.73757354  0.87999385  1
  O  O298  1  0.73693961  0.24337728  0.37633210  1
  O  O299  1  0.75017866  0.24090703  0.88609299  1
  O  O300  1  0.75211188  0.73617561  0.38577974  1
  O  O301  1  0.74422135  0.74234103  0.88333997  1
  O  O302  1  0.01012338  0.12592171  0.01399462  1
  O  O303  1  0.00902546  0.11618032  0.50546893  1
  O  O304  1  0.00866353  0.61566057  -0.00527020  1
  O  O305  1  0.00062948  0.61052010  0.50909942  1
  O  O306  1  0.51087135  0.13757351  0.00919053  1
  O  O307  1  0.49849925  0.13369374  0.51876692  1
  O  O308  1  0.51212555  0.62666755  0.00020736  1
  O  O309  1  0.51181625  0.62337207  0.49137119  1
  O  O310  1  0.50513872  0.38891022  0.49862495  1
  O  O311  1  0.49195657  0.36610445  0.98673920  1
  O  O312  1  0.50144802  0.86620925  0.47725011  1
  O  O313  1  0.48031941  0.87242460  0.99053551  1
  O  O314  1  0.99202012  0.38157847  0.49532698  1
  O  O315  1  1.00185928  0.38419083  0.99927540  1
  O  O316  1  1.00042898  0.88498999  0.49788477  1
  O  O317  1  0.99579969  0.89268605  0.99429558  1
  O  O318  1  0.48767353  0.50307524  0.37491474  1
  O  O319  1  0.49891889  0.48961323  0.86646122  1
  O  O320  1  0.51109745  0.98370086  0.36814186  1
  O  O321  1  0.48804477  0.99886198  0.86304703  1
  O  O322  1  0.99427414  0.49484591  0.38527049  1
  O  O323  1  0.99143715  0.49984692  0.88440362  1
  O  O324  1  0.99249562  0.99363766  0.38593616  1
  O  O325  1  0.99468540  0.96770589  0.83902091  1
  O  O326  1  -0.00713754  0.00940174  0.12688408  1
  O  O327  1  0.01326994  0.01041704  0.62036901  1
  O  O328  1  0.00549145  0.49563658  0.11233974  1
  O  O329  1  0.00399556  0.50215194  0.62001667  1
  O  O330  1  0.50980753  0.01694074  0.13026676  1
  O  O331  1  0.50976207  0.01353713  0.63614675  1
  O  O332  1  0.51590647  0.49161505  0.11929327  1
  O  O333  1  0.48548996  0.50419054  0.60601280  1
  O  O334  1  0.24420559  0.38152895  0.24261761  1
  O  O335  1  0.23939889  0.37773875  0.74049736  1
  O  O336  1  0.23533329  0.86897374  0.24696500  1
  O  O337  1  0.24498298  0.88835340  0.73738890  1
  O  O338  1  0.74968223  0.37235512  0.24271864  1
  O  O339  1  0.75012754  0.38903680  0.76134693  1
  O  O340  1  0.73790064  0.86788616  0.25364520  1
  O  O341  1  0.74736273  0.86737529  0.73610926  1
  O  O342  1  0.27124820  0.14174276  0.25151597  1
  O  O343  1  0.25860721  0.12204841  0.74924806  1
  O  O344  1  0.25497432  0.62416171  0.25404296  1
  O  O345  1  0.23084780  0.61886704  0.77502092  1
  O  O346  1  0.76284172  0.13160553  0.25690803  1
  O  O347  1  0.75283084  0.13632758  0.76911299  1
  O  O348  1  0.74990948  0.63059760  0.26556672  1
  O  O349  1  0.76342179  0.61393232  0.76304855  1
  O  O350  1  0.38591791  0.13622307  0.36640282  1
  O  O351  1  0.37761128  0.11690087  0.86587315  1
  O  O352  1  0.36522714  0.62122247  0.36189744  1
  O  O353  1  0.35855489  0.62461493  0.89156571  1
  O  O354  1  0.86816725  0.11738656  0.36969164  1
  O  O355  1  0.86522601  0.11900890  0.88567796  1
  O  O356  1  0.86217239  0.61521722  0.37992180  1
  O  O357  1  0.87334293  0.62520874  0.86849467  1
  O  O358  1  0.12757252  0.38338310  0.13011410  1
  O  O359  1  0.13141795  0.37885383  0.62777522  1
  O  O360  1  0.15276282  0.84043788  0.11835804  1
  O  O361  1  0.14027295  0.88872719  0.62552124  1
  O  O362  1  0.63983026  0.38841024  0.11678384  1
  O  O363  1  0.61139930  0.36821100  0.64963965  1
  O  O364  1  0.62307726  0.88806356  0.12934948  1
  O  O365  1  0.62277032  0.87800634  0.62415564  1
  O  O366  1  0.11785573  0.25203317  0.25519162  1
  O  O367  1  0.12178996  0.26145723  0.75157924  1
  O  O368  1  0.10983100  0.74215811  0.26703378  1
  O  O369  1  0.15041479  0.75692839  0.73469515  1
  O  O370  1  0.62122346  0.24953694  0.26111370  1
  O  O371  1  0.61103625  0.24736943  0.75317846  1
  O  O372  1  0.61635094  0.76102741  0.24483094  1
  O  O373  1  0.63351474  0.74070654  0.77071873  1
  O  O374  1  0.38523164  0.24723903  0.23942010  1
  O  O375  1  0.38419370  0.24376229  0.74592804  1
  O  O376  1  0.38664813  0.74483347  0.24629891  1
  O  O377  1  0.35782592  0.75015607  0.74259377  1
  O  O378  1  0.88479516  0.23821049  0.25219764  1
  O  O379  1  0.89465300  0.26217708  0.74819029  1
  O  O380  1  0.88524233  0.74277831  0.24832852  1
  O  O381  1  0.86970134  0.73575848  0.73901409  1
  O  O382  1  0.38540945  0.50786716  0.48291873  1
  O  O383  1  0.36921286  0.48439167  1.00289596  1
  O  O384  1  0.39033880  1.00151536  0.49884697  1
  O  O385  1  0.37092765  1.00479342  0.98604197  1
  O  O386  1  0.88026359  0.49265964  0.49382134  1
  O  O387  1  0.88782280  0.50331252  0.99035914  1
  O  O388  1  0.88694408  0.99882631  0.49926107  1
  O  O389  1  0.82974591  0.95004779  1.01717147  1
  O  O390  1  0.13279087  0.00600350  0.00445572  1
  O  O391  1  0.12043513  0.00727928  0.50497704  1
  O  O392  1  0.11300892  0.50269543  0.00556365  1
  O  O393  1  0.11516900  0.49680068  0.50744393  1
  O  O394  1  0.62660227  0.01158184  0.01453287  1
  O  O395  1  0.60980261  -0.00289604  0.51635955  1
  O  O396  1  0.62898823  0.51542932  0.00286759  1
  O  O397  1  0.61092405  0.51036560  0.49599682  1
  O  O398  1  0.36991360  0.36669960  0.11858717  1
  O  O399  1  0.36844382  0.36121915  0.63238294  1
  O  O400  1  0.37671572  0.88929521  0.11366202  1
  O  O401  1  0.36393604  0.88789693  0.62188852  1
  O  O402  1  0.85925548  0.37278452  0.12700441  1
  O  O403  1  0.88121866  0.37124045  0.61224212  1
  O  O404  1  0.88176311  0.85340697  0.13816628  1
  O  O405  1  0.86211961  0.85623802  0.62090745  1
  O  O406  1  0.11821853  0.13475717  0.38138941  1
  O  O407  1  0.11986763  0.11684899  0.89427136  1
  O  O408  1  0.13889786  0.62904063  0.37885352  1
  O  O409  1  0.13138672  0.61609214  0.89098722  1
  O  O410  1  0.63731543  0.11604920  0.36587193  1
  O  O411  1  0.62738859  0.12741150  0.88562662  1
  O  O412  1  0.63749545  0.62403713  0.37997179  1
  O  O413  1  0.63341875  0.63200145  0.88833846  1
