# generated using pymatgen
data_V79Zn79O256
_symmetry_space_group_name_H-M   'P 1'
_cell_length_a   16.87487804
_cell_length_b   16.88098816
_cell_length_c   16.88018225
_cell_angle_alpha   89.89672107
_cell_angle_beta   90.03633405
_cell_angle_gamma   89.99184856
_symmetry_Int_Tables_number   1
_chemical_formula_structural   V79Zn79O256
_chemical_formula_sum   'V79 Zn79 O256'
_cell_volume   4808.55781461
_cell_formula_units_Z   1
loop_
 _symmetry_equiv_pos_site_id
 _symmetry_equiv_pos_as_xyz
  1  'x, y, z'
loop_
 _atom_site_type_symbol
 _atom_site_label
 _atom_site_symmetry_multiplicity
 _atom_site_fract_x
 _atom_site_fract_y
 _atom_site_fract_z
 _atom_site_occupancy
  V  V0  1  0.62972360  0.24648294  0.37838422  1
  V  V1  1  0.63252225  0.13109606  -0.00519143  1
  V  V2  1  0.49984862  0.25198715  0.25189021  1
  V  V3  1  0.24205001  0.25249544  0.50260905  1
  V  V4  1  0.12345508  0.87171897  0.25500787  1
  V  V5  1  0.24886414  0.62344622  0.86051198  1
  V  V6  1  -0.00673909  0.74066235  0.75509365  1
  V  V7  1  0.63073672  0.86476735  0.76546448  1
  V  V8  1  0.13111732  0.49644818  0.13755849  1
  V  V9  1  0.11955399  0.50869462  0.61606553  1
  V  V10  1  0.37800645  0.36912605  0.50694133  1
  V  V11  1  0.62390727  -0.00124989  0.13501218  1
  V  V12  1  0.25004815  0.87611849  0.12399144  1
  V  V13  1  0.74538825  0.61293026  0.37078669  1
  V  V14  1  0.62167722  -0.01423519  0.61869474  1
  V  V15  1  0.75049664  0.37541576  0.62689666  1
  V  V16  1  0.12864598  0.38122165  0.74962665  1
  V  V17  1  0.12470407  0.12798612  0.00649842  1
  V  V18  1  0.50646956  0.87639834  0.38460268  1
  V  V19  1  0.51118429  0.76048159  0.25174855  1
  V  V20  1  0.24715723  0.12953416  0.38213049  1
  V  V21  1  0.87504402  0.76074594  0.62610200  1
  V  V22  1  -0.00485474  0.24121453  0.75191919  1
  V  V23  1  0.49376105  0.75212681  0.75934946  1
  V  V24  1  0.36616265  0.62368975  0.24859673  1
  V  V25  1  0.87444141  0.87643941  0.47984410  1
  V  V26  1  0.50397379  0.62740001  0.11919232  1
  V  V27  1  0.87235815  0.87761050  -0.00672893  1
  V  V28  1  0.00373374  -0.00367908  -0.00685487  1
  V  V29  1  0.37613015  0.26017408  0.12134843  1
  V  V30  1  0.75289858  0.00263694  0.75077415  1
  V  V31  1  0.62824345  0.49967865  0.12326619  1
  V  V32  1  0.25038844  0.25615393  0.00266481  1
  V  V33  1  0.63210919  0.37926870  0.25132392  1
  V  V34  1  0.11508502  0.87331612  0.75194753  1
  V  V35  1  0.49249734  0.36984448  0.87398914  1
  V  V36  1  0.63723786  0.50742640  0.63100845  1
  V  V37  1  -0.00439809  0.11734115  0.63287293  1
  V  V38  1  0.37522815  -0.00657388  0.40040966  1
  V  V39  1  -0.00945018  -0.00323826  0.48645108  1
  V  V40  1  0.49467269  0.00020783  -0.01512171  1
  V  V41  1  0.26441794  0.85964539  0.61311968  1
  V  V42  1  -0.00400884  0.49739579  -0.00318025  1
  V  V43  1  0.37536828  0.12414793  0.25249903  1
  V  V44  1  0.37093670  0.50473963  0.86548965  1
  V  V45  1  0.37401459  0.49819731  0.37446276  1
  V  V46  1  0.37292706  0.75224766  0.12431920  1
  V  V47  1  0.76166938  0.12133155  0.37213741  1
  V  V48  1  0.25071174  0.37893475  0.13934227  1
  V  V49  1  -0.00562174  0.37856632  0.87361886  1
  V  V50  1  0.62303897  0.12103800  0.49825970  1
  V  V51  1  -0.00193418  0.62219230  0.12544097  1
  V  V52  1  0.25390146  0.63013144  0.39840324  1
  V  V53  1  0.12627568  0.62512441  -0.00240377  1
  V  V54  1  0.87584825  0.37708375  0.49277122  1
  V  V55  1  0.49827195  0.12721670  0.12364947  1
  V  V56  1  0.12756919  0.25047922  0.87835209  1
  V  V57  1  0.25389529  0.37540856  0.63008702  1
  V  V58  1  0.75222158  0.36811413  0.12332718  1
  V  V59  1  0.11903876  0.00356870  0.12879788  1
  V  V60  1  0.01037882  0.24272784  0.26095855  1
  V  V61  1  0.85437366  0.59821557  0.74307875  1
  V  V62  1  0.49309583  0.49862415  0.00097000  1
  V  V63  1  0.25323443  -0.00042800  0.25248654  1
  V  V64  1  -0.00048889  0.75126866  0.25298264  1
  V  V65  1  0.76893507  -0.00089788  0.24965527  1
  V  V66  1  0.74377595  0.75567383  0.48996789  1
  V  V67  1  0.86778534  0.24107713  0.62050632  1
  V  V68  1  0.87305665  0.36681308  0.00119155  1
  V  V69  1  0.87123920  0.75409282  0.12116843  1
  V  V70  1  0.88352090  0.23723466  0.13397405  1
  V  V71  1  0.63361758  0.25421358  0.86796130  1
  V  V72  1  0.37317678  0.88128708  -0.01554259  1
  V  V73  1  0.87041538  0.61019935  0.25246019  1
  V  V74  1  0.12912369  0.74616315  0.38639280  1
  V  V75  1  0.50351505  0.14203409  0.63045071  1
  V  V76  1  0.50236018  0.50438302  0.50155037  1
  V  V77  1  0.12549594  -0.00860697  0.61961611  1
  V  V78  1  0.48814384  0.63135649  0.63183243  1
  Zn  Zn79  1  0.38130771  0.11466330  0.74318919  1
  Zn  Zn80  1  0.00090780  0.51533062  0.49236080  1
  Zn  Zn81  1  0.50281608  0.37672053  0.37724988  1
  Zn  Zn82  1  0.62474704  0.62965989  0.49264710  1
  Zn  Zn83  1  0.89244972  0.00636447  0.85572092  1
  Zn  Zn84  1  0.01589804  0.38338621  0.37067089  1
  Zn  Zn85  1  0.62730588  0.37917298  0.75094661  1
  Zn  Zn86  1  0.11224008  0.75286432  0.87859607  1
  Zn  Zn87  1  0.11662747  0.13052845  0.49756478  1
  Zn  Zn88  1  0.74901073  0.61931646  0.88155599  1
  Zn  Zn89  1  0.73734498  0.86451029  0.12337219  1
  Zn  Zn90  1  0.26923006  -0.00055428  0.76776565  1
  Zn  Zn91  1  0.24975753  0.75199128  -0.00793753  1
  Zn  Zn92  1  0.76958221  0.13303493  0.87034286  1
  Zn  Zn93  1  0.63444976  0.73454234  0.91187736  1
  Zn  Zn94  1  0.19058863  0.18600112  0.18839134  1
  Zn  Zn95  1  0.18955193  0.18730230  0.68976036  1
  Zn  Zn96  1  0.18660909  0.68694425  0.18647997  1
  Zn  Zn97  1  0.18460721  0.69030725  0.68259838  1
  Zn  Zn98  1  0.69194543  0.18576095  0.18904791  1
  Zn  Zn99  1  0.68488044  0.18350869  0.68826333  1
  Zn  Zn100  1  0.68745482  0.68565323  0.18312932  1
  Zn  Zn101  1  0.69474889  0.68945284  0.68059517  1
  Zn  Zn102  1  0.18548144  0.31280637  0.31742426  1
  Zn  Zn103  1  0.31184714  0.31393722  0.81559430  1
  Zn  Zn104  1  0.31663619  0.81135311  0.31981243  1
  Zn  Zn105  1  0.30037111  0.81057755  0.79788302  1
  Zn  Zn106  1  0.81466119  0.30700844  0.30735252  1
  Zn  Zn107  1  0.81313347  0.31728126  0.80909010  1
  Zn  Zn108  1  0.80548989  0.81133140  0.30569580  1
  Zn  Zn109  1  0.80717393  0.81268746  0.81789556  1
  Zn  Zn110  1  0.19194994  0.44616858  0.44224056  1
  Zn  Zn111  1  0.18774536  0.43691959  0.94269411  1
  Zn  Zn112  1  0.18865761  0.93530430  0.44076103  1
  Zn  Zn113  1  0.19166708  0.93973363  0.93298252  1
  Zn  Zn114  1  0.69389743  0.43324614  0.44352464  1
  Zn  Zn115  1  0.68651186  0.44174710  0.94147922  1
  Zn  Zn116  1  0.68790424  0.93965499  0.43129320  1
  Zn  Zn117  1  0.68799289  0.94006732  0.93797529  1
  Zn  Zn118  1  0.31044054  0.06617923  0.05944496  1
  Zn  Zn119  1  0.30255649  0.07749119  0.58973441  1
  Zn  Zn120  1  0.31289194  0.56234522  0.05812104  1
  Zn  Zn121  1  0.31118714  0.55725328  0.57200984  1
  Zn  Zn122  1  0.81326002  0.05903134  0.06046103  1
  Zn  Zn123  1  0.80525148  0.05821583  0.56219024  1
  Zn  Zn124  1  0.80696191  0.55610633  0.05877878  1
  Zn  Zn125  1  0.84812810  0.58528757  0.54497245  1
  Zn  Zn126  1  0.43879190  0.43876882  0.19147936  1
  Zn  Zn127  1  0.44365665  0.44033884  0.68953029  1
  Zn  Zn128  1  0.43741611  0.93962554  0.18503115  1
  Zn  Zn129  1  0.44182930  0.93788928  0.69031824  1
  Zn  Zn130  1  0.94253095  0.42762012  0.19135021  1
  Zn  Zn131  1  0.94203344  0.42950185  0.67884776  1
  Zn  Zn132  1  0.93903692  0.93539481  0.18657296  1
  Zn  Zn133  1  0.93434459  0.93004189  0.68004129  1
  Zn  Zn134  1  0.06178506  0.06595779  0.31003353  1
  Zn  Zn135  1  0.09782655  0.05274941  0.82292311  1
  Zn  Zn136  1  0.06570223  0.56235455  0.32194997  1
  Zn  Zn137  1  0.05609577  0.56450809  0.80759679  1
  Zn  Zn138  1  0.55756502  0.05937165  0.31864810  1
  Zn  Zn139  1  0.56871920  0.06149049  0.80487481  1
  Zn  Zn140  1  0.55930221  0.56834380  0.30731437  1
  Zn  Zn141  1  0.56852215  0.56769094  0.81551270  1
  Zn  Zn142  1  0.43746101  0.18430441  0.44170524  1
  Zn  Zn143  1  0.43863098  0.18956471  0.93711489  1
  Zn  Zn144  1  0.43882235  0.69328476  0.44054885  1
  Zn  Zn145  1  0.43723954  0.68994323  0.93424345  1
  Zn  Zn146  1  0.93990553  0.18929859  0.43931082  1
  Zn  Zn147  1  0.94298884  0.18424129  0.94393443  1
  Zn  Zn148  1  0.93661352  0.69023220  0.43136846  1
  Zn  Zn149  1  0.90869539  0.67671817  0.93796809  1
  Zn  Zn150  1  0.06133123  0.31384056  0.07085710  1
  Zn  Zn151  1  0.05974643  0.31647326  0.56275712  1
  Zn  Zn152  1  0.05942697  0.81243352  0.06303047  1
  Zn  Zn153  1  0.05433380  0.81141108  0.56185867  1
  Zn  Zn154  1  0.56440481  0.31610747  0.05699104  1
  Zn  Zn155  1  0.56960182  0.31644805  0.55907680  1
  Zn  Zn156  1  0.55617822  0.81781853  0.05689359  1
  Zn  Zn157  1  0.55872090  0.80918203  0.56478244  1
  O  O158  1  0.13367568  0.11241171  0.12075238  1
  O  O159  1  0.11345420  0.10751443  0.62023257  1
  O  O160  1  0.11802061  0.61842673  0.11758454  1
  O  O161  1  0.12812062  0.60619092  0.63619492  1
  O  O162  1  0.61714738  0.12270051  0.11366188  1
  O  O163  1  0.62145701  0.12077281  0.61475815  1
  O  O164  1  0.61317917  0.61186263  0.13711016  1
  O  O165  1  0.62391253  0.61505152  0.61737009  1
  O  O166  1  0.37903159  0.39226186  0.38866646  1
  O  O167  1  0.38510118  0.38650059  0.87476291  1
  O  O168  1  0.37891620  0.88917859  0.37518255  1
  O  O169  1  0.35679100  0.86988579  0.88719707  1
  O  O170  1  0.86108111  0.36330670  0.39316868  1
  O  O171  1  0.88646697  0.36647800  0.88414091  1
  O  O172  1  0.87823727  0.87026944  0.38065474  1
  O  O173  1  0.87267417  0.88493200  0.88996175  1
  O  O174  1  0.26226205  0.00284204  0.37423209  1
  O  O175  1  0.20540840  0.01897192  0.85773277  1
  O  O176  1  0.26229816  0.51968703  0.38467457  1
  O  O177  1  0.26127120  0.50638083  0.88228587  1
  O  O178  1  0.74958328  0.00767136  0.35926667  1
  O  O179  1  0.74692888  0.00200799  0.85952493  1
  O  O180  1  0.75081823  0.51353299  0.38051727  1
  O  O181  1  0.75509429  0.50663323  0.88506345  1
  O  O182  1  0.23902792  0.49523333  0.11867561  1
  O  O183  1  0.23728712  0.48489787  0.62198210  1
  O  O184  1  0.24344996  0.99231384  0.12975412  1
  O  O185  1  0.22773326  0.98638452  0.61245503  1
  O  O186  1  0.73887175  0.48914466  0.12165470  1
  O  O187  1  0.73816712  0.49440373  0.61789067  1
  O  O188  1  0.73619097  1.01014940  0.13650056  1
  O  O189  1  0.73485775  1.00615005  0.63794945  1
  O  O190  1  -0.00395384  0.35680181  0.25771858  1
  O  O191  1  0.00757664  0.36325080  0.75650386  1
  O  O192  1  0.01255582  0.86478698  0.24465341  1
  O  O193  1  0.00809275  0.86521714  0.74459231  1
  O  O194  1  0.50908320  0.36544458  0.25233383  1
  O  O195  1  0.50642265  0.38238374  0.76957832  1
  O  O196  1  0.49290953  0.86420277  0.25130636  1
  O  O197  1  0.51575013  0.85972005  0.74420154  1
  O  O198  1  0.49853124  0.13224368  0.24121310  1
  O  O199  1  0.50789869  0.12652216  0.73432683  1
  O  O200  1  0.48923980  0.63952199  0.24191620  1
  O  O201  1  0.50842950  0.63521794  0.73840395  1
  O  O202  1  1.00411099  0.14007792  0.24963218  1
  O  O203  1  1.01125807  0.13064620  0.74240164  1
  O  O204  1  0.99229944  0.63039257  0.24254337  1
  O  O205  1  0.99987793  0.63911644  0.73999623  1
  O  O206  1  0.36647415  0.24441288  0.01361453  1
  O  O207  1  0.37042448  0.26423906  0.49473789  1
  O  O208  1  0.37595407  0.76037139  0.00926059  1
  O  O209  1  0.36132527  0.75532707  0.48815986  1
  O  O210  1  0.88794486  0.26138975  0.01435106  1
  O  O211  1  0.87722448  0.25211581  0.51654153  1
  O  O212  1  0.89074890  0.77124190  0.00765743  1
  O  O213  1  0.87211621  0.76432623  0.50180249  1
  O  O214  1  0.13647732  0.24782883  0.50741798  1
  O  O215  1  0.12803656  0.24657550  1.00118565  1
  O  O216  1  0.11577149  0.75292556  0.48396280  1
  O  O217  1  0.12183118  0.73886952  0.99768551  1
  O  O218  1  0.62511462  0.24305095  0.48498020  1
  O  O219  1  0.62376236  0.23677666  0.99549457  1
  O  O220  1  0.64082034  0.75039467  0.50197327  1
  O  O221  1  0.63563212  0.75367970  1.02191296  1
  O  O222  1  0.49675879  0.24550943  0.12756867  1
  O  O223  1  0.51324782  0.24261716  0.62425764  1
  O  O224  1  0.48951599  0.74790207  0.13197733  1
  O  O225  1  0.50259772  0.73657031  0.63256244  1
  O  O226  1  0.99017503  0.25307844  0.13581295  1
  O  O227  1  0.99354795  0.23815584  0.63233422  1
  O  O228  1  0.99615230  0.73970003  0.13222110  1
  O  O229  1  0.98212922  0.75241969  0.62834945  1
  O  O230  1  0.00199960  0.24883378  0.36592077  1
  O  O231  1  0.00728087  0.25917480  0.87093095  1
  O  O232  1  0.01685357  0.73804477  0.36199105  1
  O  O233  1  -0.00672838  0.74365798  0.85909339  1
  O  O234  1  0.50781606  0.24845367  0.36532810  1
  O  O235  1  0.50993629  0.26680648  0.88587524  1
  O  O236  1  0.49598265  0.76061861  0.35967839  1
  O  O237  1  0.51381976  0.73747362  0.86218608  1
  O  O238  1  0.25272395  0.13692224  0.49934986  1
  O  O239  1  0.23822063  0.14062500  1.00671088  1
  O  O240  1  0.25778933  0.63207419  0.49693637  1
  O  O241  1  0.23799252  0.62766779  0.99565484  1
  O  O242  1  0.73906776  0.11543807  0.48188398  1
  O  O243  1  0.73312566  0.11401425  0.99368587  1
  O  O244  1  0.75713633  0.63580521  0.48327150  1
  O  O245  1  0.80798892  0.63420034  0.98220656  1
  O  O246  1  0.24274967  0.36329296  0.01570842  1
  O  O247  1  0.26008478  0.36984484  0.50837016  1
  O  O248  1  0.25266206  0.87617146  0.00856342  1
  O  O249  1  0.24306583  0.86897512  0.51335129  1
  O  O250  1  0.76109856  0.37549829  0.01079667  1
  O  O251  1  0.75736525  0.36837076  0.51609924  1
  O  O252  1  0.76838118  0.89320986  0.01010505  1
  O  O253  1  0.75995554  0.86598233  0.48617938  1
  O  O254  1  0.12597188  0.51188782  0.23514586  1
  O  O255  1  0.11647867  0.48491195  0.74471353  1
  O  O256  1  0.13085707  0.99084490  0.24763201  1
  O  O257  1  0.10835379  0.98452353  0.72947647  1
  O  O258  1  0.61229966  0.48650107  0.23998925  1
  O  O259  1  0.62039662  0.50066625  0.73313749  1
  O  O260  1  0.61855293  1.00623934  0.23566737  1
  O  O261  1  0.63058357  0.98393966  0.74273637  1
  O  O262  1  0.36871633  0.00905343  0.24675768  1
  O  O263  1  0.38223495  0.00098968  0.76111640  1
  O  O264  1  0.38578413  0.51172311  0.26289625  1
  O  O265  1  0.37876150  0.50196677  0.76631861  1
  O  O266  1  0.86791581  0.00592807  0.24095922  1
  O  O267  1  0.85866448  -0.01135324  0.74455429  1
  O  O268  1  0.87814091  0.51224529  0.24003702  1
  O  O269  1  0.87414794  0.49953633  0.73514774  1
  O  O270  1  0.12905702  0.37439851  0.38848485  1
  O  O271  1  0.11593217  0.37080368  0.87043975  1
  O  O272  1  0.13639633  0.86013042  0.36329096  1
  O  O273  1  0.12903945  0.86902685  0.85599533  1
  O  O274  1  0.62765110  0.36623139  0.36874990  1
  O  O275  1  0.62110876  0.36528980  0.87784015  1
  O  O276  1  0.60526973  0.88922762  0.37012216  1
  O  O277  1  0.62664926  0.86795898  0.86785652  1
  O  O278  1  0.38293193  0.13295253  0.12942078  1
  O  O279  1  0.40333513  0.12592332  0.61529044  1
  O  O280  1  0.38034656  0.63296311  0.12860976  1
  O  O281  1  0.38923339  0.61855966  0.62919129  1
  O  O282  1  0.87058707  0.13992360  0.11628688  1
  O  O283  1  0.88050974  0.13174666  0.62150366  1
  O  O284  1  0.88313441  0.63158536  0.13409225  1
  O  O285  1  0.86684620  0.64363348  0.64450101  1
  O  O286  1  0.25826498  0.25810410  0.12367188  1
  O  O287  1  0.24886568  0.26402064  0.61722415  1
  O  O288  1  0.25640420  0.75926520  0.12212645  1
  O  O289  1  0.25469494  0.75965007  0.63321084  1
  O  O290  1  0.76245462  0.25925474  0.13252134  1
  O  O291  1  0.76356488  0.25030959  0.63305310  1
  O  O292  1  0.76640924  0.75035145  0.13239961  1
  O  O293  1  0.76302114  0.74617115  0.60218331  1
  O  O294  1  0.25084289  0.23795624  0.38559466  1
  O  O295  1  0.23535586  0.26591126  0.88980272  1
  O  O296  1  0.24141103  0.74024141  0.37248312  1
  O  O297  1  0.24466658  0.73388971  0.87272760  1
  O  O298  1  0.73777381  0.23181987  0.35970848  1
  O  O299  1  0.73843534  0.25044429  0.87392059  1
  O  O300  1  0.75502179  0.74254049  0.38327325  1
  O  O301  1  0.74567082  0.73704730  0.87178206  1
  O  O302  1  0.01545253  0.11278776  0.00671604  1
  O  O303  1  -0.00326986  0.11206736  0.50923331  1
  O  O304  1  0.00232793  0.61722909  0.00728237  1
  O  O305  1  -0.04440730  0.61726438  0.51106422  1
  O  O306  1  0.50233714  0.11819231  0.00620909  1
  O  O307  1  0.51589236  0.12670402  0.50602208  1
  O  O308  1  0.49445726  0.62079716  0.01351343  1
  O  O309  1  0.50327091  0.62223257  0.51003460  1
  O  O310  1  0.49496844  0.38563668  0.50002743  1
  O  O311  1  0.50337162  0.38654366  0.98809450  1
  O  O312  1  0.49867594  0.86225718  0.48353429  1
  O  O313  1  0.48835942  0.89263767  1.00166297  1
  O  O314  1  0.98392004  0.36937838  0.49571767  1
  O  O315  1  0.99821450  0.37933718  0.99246340  1
  O  O316  1  0.98623897  0.88590003  0.49854383  1
  O  O317  1  0.99855547  0.88950052  1.00301674  1
  O  O318  1  0.49411058  0.50645024  0.38576578  1
  O  O319  1  0.49035115  0.49848924  0.88205863  1
  O  O320  1  0.48400519  0.99110190  0.37517007  1
  O  O321  1  0.50365967  1.00850192  0.88720034  1
  O  O322  1  0.99904615  0.49742877  0.37995798  1
  O  O323  1  1.00479561  0.48990355  0.88375369  1
  O  O324  1  0.99921385  1.00718498  0.38795997  1
  O  O325  1  1.00939646  1.00254346  0.89001643  1
  O  O326  1  0.01535862  -0.00491821  0.12170080  1
  O  O327  1  -0.00083578  0.00342624  0.61506153  1
  O  O328  1  0.01173334  0.50523186  0.12026139  1
  O  O329  1  0.01619117  0.48872445  0.61651210  1
  O  O330  1  0.50682240  0.01182460  0.11970809  1
  O  O331  1  0.52024580  0.00617792  0.62892933  1
  O  O332  1  0.50157134  0.50770038  0.12003499  1
  O  O333  1  0.50847428  0.51108703  0.61887527  1
  O  O334  1  0.24845154  0.37256075  0.23865884  1
  O  O335  1  0.24099002  0.36744327  0.74367452  1
  O  O336  1  0.24475897  0.87776337  0.24167439  1
  O  O337  1  0.23217498  0.87921777  0.73411936  1
  O  O338  1  0.73925407  0.37175158  0.24254061  1
  O  O339  1  0.74769536  0.37307192  0.73426186  1
  O  O340  1  0.75321288  0.89313635  0.24253633  1
  O  O341  1  0.73699359  0.88271123  0.75145700  1
  O  O342  1  0.25579502  0.12074333  0.26166034  1
  O  O343  1  0.26669471  0.10706331  0.70394298  1
  O  O344  1  0.26363487  0.62854217  0.24854249  1
  O  O345  1  0.24265640  0.62152121  0.76248559  1
  O  O346  1  0.74454280  0.11168456  0.25990573  1
  O  O347  1  0.74060106  0.10921417  0.75559393  1
  O  O348  1  0.76078757  0.62720645  0.25618812  1
  O  O349  1  0.75204278  0.61607560  0.74935461  1
  O  O350  1  0.37005349  0.11230697  0.37413723  1
  O  O351  1  0.36359299  0.16611117  0.85463417  1
  O  O352  1  0.36660587  0.62360468  0.36961664  1
  O  O353  1  0.36090701  0.61663341  0.87972525  1
  O  O354  1  0.85974708  0.12947269  0.37944139  1
  O  O355  1  0.87880299  0.11555679  0.88526410  1
  O  O356  1  0.86795832  0.62868063  0.35597009  1
  O  O357  1  0.88259307  0.62551805  0.83802143  1
  O  O358  1  0.12985245  0.39104434  0.12533859  1
  O  O359  1  0.13217862  0.37818113  0.63310784  1
  O  O360  1  0.13358221  0.87934847  0.13274507  1
  O  O361  1  0.12103781  0.87896711  0.62856630  1
  O  O362  1  0.63218743  0.37702198  0.13107217  1
  O  O363  1  0.63191627  0.38685964  0.62480724  1
  O  O364  1  0.62237309  0.89704740  0.11852187  1
  O  O365  1  0.62442378  0.88384021  0.62361268  1
  O  O366  1  0.11764787  0.25023290  0.24620822  1
  O  O367  1  0.11908734  0.25512707  0.75836701  1
  O  O368  1  0.11841688  0.75477709  0.25117019  1
  O  O369  1  0.10862097  0.75783928  0.74441274  1
  O  O370  1  0.61659699  0.25568517  0.25346944  1
  O  O371  1  0.62417449  0.25038353  0.76587363  1
  O  O372  1  0.60993975  0.75185662  0.23971301  1
  O  O373  1  0.62701195  0.76175878  0.74212107  1
  O  O374  1  0.38944667  0.24184037  0.23820163  1
  O  O375  1  0.38061542  0.22610312  0.79089775  1
  O  O376  1  0.37779332  0.74605651  0.23865288  1
  O  O377  1  0.39436169  0.75668219  0.75888014  1
  O  O378  1  0.88385485  0.24525069  0.24007287  1
  O  O379  1  0.88829095  0.25229517  0.74132786  1
  O  O380  1  0.88603881  0.74845024  0.24146912  1
  O  O381  1  0.88198224  0.76586379  0.73785063  1
  O  O382  1  0.38530416  0.49735660  0.49695459  1
  O  O383  1  0.38596840  0.50277684  0.99203545  1
  O  O384  1  0.36892241  1.00225124  0.49699506  1
  O  O385  1  0.38462909  0.99851624  1.00124757  1
  O  O386  1  0.87074683  0.47720535  0.50970435  1
  O  O387  1  0.89162479  0.48303137  1.01403027  1
  O  O388  1  0.87874973  0.98826606  0.50085131  1
  O  O389  1  0.89434808  0.99278573  1.01022692  1
  O  O390  1  0.12006797  0.00476022  0.00962795  1
  O  O391  1  0.10589206  -0.00875211  0.50713960  1
  O  O392  1  0.11551077  0.50864120  0.00692560  1
  O  O393  1  0.12494807  0.50755274  0.51207329  1
  O  O394  1  0.61147829  0.01128386  0.00496315  1
  O  O395  1  0.63244532  0.00432669  0.51129890  1
  O  O396  1  0.61141913  0.49480774  0.01646623  1
  O  O397  1  0.61518293  0.50019575  0.50664959  1
  O  O398  1  0.37015293  0.36758470  0.13020416  1
  O  O399  1  0.36931209  0.38626441  0.61803569  1
  O  O400  1  0.36574490  0.87124377  0.11769734  1
  O  O401  1  0.36150288  0.88218102  0.62787975  1
  O  O402  1  0.86867604  0.36657182  0.12146964  1
  O  O403  1  0.87064722  0.35827098  0.61910088  1
  O  O404  1  0.87759292  0.86636367  0.11789427  1
  O  O405  1  0.86906563  0.86509784  0.60978525  1
  O  O406  1  0.14330815  0.10907429  0.38342671  1
  O  O407  1  0.11707548  0.14566609  0.88937196  1
  O  O408  1  0.14354552  0.63465044  0.37308868  1
  O  O409  1  0.13319892  0.62008558  0.88105220  1
  O  O410  1  0.62614211  0.12825653  0.38018569  1
  O  O411  1  0.61765820  0.13825011  0.88478626  1
  O  O412  1  0.63941071  0.62450474  0.37068199  1
  O  O413  1  0.63224913  0.61878048  0.89005583  1
