# generated using pymatgen
data_V79Zn79O256
_symmetry_space_group_name_H-M   'P 1'
_cell_length_a   16.94338522
_cell_length_b   16.90821253
_cell_length_c   16.91424779
_cell_angle_alpha   89.67436558
_cell_angle_beta   90.12251226
_cell_angle_gamma   90.20028313
_symmetry_Int_Tables_number   1
_chemical_formula_structural   V79Zn79O256
_chemical_formula_sum   'V79 Zn79 O256'
_cell_volume   4845.51486089
_cell_formula_units_Z   1
loop_
 _symmetry_equiv_pos_site_id
 _symmetry_equiv_pos_as_xyz
  1  'x, y, z'
loop_
 _atom_site_type_symbol
 _atom_site_label
 _atom_site_symmetry_multiplicity
 _atom_site_fract_x
 _atom_site_fract_y
 _atom_site_fract_z
 _atom_site_occupancy
  V  V0  1  0.38059025  0.50056541  0.86737134  1
  V  V1  1  0.13434494  0.88442623  0.74363821  1
  V  V2  1  0.12608217  0.74340608  0.87948323  1
  V  V3  1  0.75669717  0.74990429  -0.00844225  1
  V  V4  1  0.00055107  0.87220907  0.37388503  1
  V  V5  1  0.51187563  0.85476322  0.36271651  1
  V  V6  1  0.55391740  0.68198233  0.17863568  1
  V  V7  1  0.62597336  0.49668772  0.62861992  1
  V  V8  1  0.00654528  0.00507663  0.49440994  1
  V  V9  1  0.47788490  0.19456882  0.64061731  1
  V  V10  1  0.87172148  0.75200456  0.62506094  1
  V  V11  1  0.24874413  0.37570124  0.12294457  1
  V  V12  1  0.62535098  0.62745887  -0.01191266  1
  V  V13  1  0.51577455  0.35691305  0.87178722  1
  V  V14  1  0.37396328  -0.00271071  0.86183963  1
  V  V15  1  -0.01381702  0.50235682  0.49924907  1
  V  V16  1  0.12072332  0.11989488  0.00073418  1
  V  V17  1  0.76370383  0.37354351  0.60766252  1
  V  V18  1  0.00394027  0.21726274  0.24133747  1
  V  V19  1  0.87334253  0.22598068  0.13331860  1
  V  V20  1  0.37886971  0.00109117  0.36350545  1
  V  V21  1  0.13364347  0.86958074  0.24635526  1
  V  V22  1  -0.01073576  0.73937229  0.24864322  1
  V  V23  1  0.87764246  0.87363643  0.49695869  1
  V  V24  1  0.37859599  0.24321173  0.13019788  1
  V  V25  1  0.25667548  0.62116445  0.87262022  1
  V  V26  1  0.76360282  0.00169450  0.25864164  1
  V  V27  1  0.50277024  0.50364990  0.50319674  1
  V  V28  1  0.50394201  0.50362407  0.00467395  1
  V  V29  1  0.75149324  0.12412020  0.86054461  1
  V  V30  1  0.49921992  0.37242197  0.38056093  1
  V  V31  1  0.74717638  0.37395186  0.14419926  1
  V  V32  1  0.50334793  -0.00384309  0.50292860  1
  V  V33  1  0.49811183  0.62040702  0.63797821  1
  V  V34  1  0.25757832  0.49961672  0.24572337  1
  V  V35  1  -0.01029796  0.12409814  0.63876067  1
  V  V36  1  0.61538833  0.12604635  0.50270210  1
  V  V37  1  0.75420760  0.86865038  0.13485901  1
  V  V38  1  0.25701207  0.00586216  0.24266843  1
  V  V39  1  0.73060901  0.74283085  0.49654772  1
  V  V40  1  0.12847078  0.50024421  0.62869619  1
  V  V41  1  0.49804504  -0.00431756  -0.00539600  1
  V  V42  1  0.62575845  0.49319284  0.13780494  1
  V  V43  1  0.12235301  -0.00715714  0.12112806  1
  V  V44  1  0.74586270  0.24571559  -0.00248232  1
  V  V45  1  0.38100415  0.37156609  -0.00106448  1
  V  V46  1  -0.00393224  0.37467500  0.88362306  1
  V  V47  1  0.35859243  0.87078902  0.49808288  1
  V  V48  1  0.74572775  0.48505774  0.75480039  1
  V  V49  1  0.13268678  0.62774400  0.50225048  1
  V  V50  1  0.13115299  0.52470783  0.11940677  1
  V  V51  1  0.73808260  0.88605718  0.62716009  1
  V  V52  1  0.86829502  0.50343203  0.88064577  1
  V  V53  1  -0.00082746  0.62719790  0.62838943  1
  V  V54  1  0.25372045  0.12157105  0.85887384  1
  V  V55  1  -0.02358746  0.25322133  0.75171735  1
  V  V56  1  0.49853378  0.12077010  0.13425173  1
  V  V57  1  0.62538332  0.12426135  -0.00354719  1
  V  V58  1  0.37075092  0.74249289  0.13052930  1
  V  V59  1  0.25069244  0.24519351  -0.00108652  1
  V  V60  1  0.86916197  0.00011031  0.86386009  1
  V  V61  1  0.00056269  0.87914294  0.87890815  1
  V  V62  1  0.37572591  0.87306083  0.00213481  1
  V  V63  1  0.50388824  0.25372025  0.25349545  1
  V  V64  1  -0.02174828  0.62758087  0.12595860  1
  V  V65  1  0.62177108  0.76645437  0.86816989  1
  V  V66  1  -0.00114209  0.75284761  0.75298831  1
  V  V67  1  0.87303141  0.37427328  0.00731476  1
  V  V68  1  0.13273162  0.74501066  0.37694285  1
  V  V69  1  0.63690150  0.25609390  0.37435847  1
  V  V70  1  0.36128577  0.74885182  0.62581564  1
  V  V71  1  0.25011793  0.74927052  -0.00030051  1
  V  V72  1  0.62349689  -0.00718150  0.13806005  1
  V  V73  1  0.86248575  0.62637891  0.75689997  1
  V  V74  1  0.12410231  0.24821393  0.87825559  1
  V  V75  1  0.50140280  0.76984949  0.74803635  1
  V  V76  1  0.74656847  0.61719914  0.36291307  1
  V  V77  1  0.12649741  0.38125627  0.75378595  1
  V  V78  1  0.37445867  0.49441147  0.38243804  1
  Zn  Zn79  1  -0.00956328  0.35437576  0.39370996  1
  Zn  Zn80  1  0.00842866  0.50997629  -0.00024215  1
  Zn  Zn81  1  0.30932720  0.93654875  0.68003807  1
  Zn  Zn82  1  0.87683438  0.87411601  0.00441323  1
  Zn  Zn83  1  0.83599449  0.23127863  0.53143114  1
  Zn  Zn84  1  0.21041113  0.19614232  0.40207447  1
  Zn  Zn85  1  0.87335059  0.51440846  0.34342396  1
  Zn  Zn86  1  0.14747612  0.02243603  0.62478210  1
  Zn  Zn87  1  0.38393022  0.62727342  0.25652815  1
  Zn  Zn88  1  0.11907743  0.34157598  0.26716932  1
  Zn  Zn89  1  0.25339918  0.62239228  0.37865759  1
  Zn  Zn90  1  0.26285876  0.50099856  0.74231011  1
  Zn  Zn91  1  0.66940528  0.95209125  0.77949066  1
  Zn  Zn92  1  -0.00975071  0.00649808  0.00721463  1
  Zn  Zn93  1  0.75605028  0.12028319  0.37316073  1
  Zn  Zn94  1  0.19582712  0.17712773  0.17909755  1
  Zn  Zn95  1  0.17030316  0.19264708  0.69030987  1
  Zn  Zn96  1  0.19459009  0.69015556  0.19606420  1
  Zn  Zn97  1  0.18461620  0.68672493  0.69753766  1
  Zn  Zn98  1  0.68771337  0.18121150  0.18988704  1
  Zn  Zn99  1  0.69193157  0.18295810  0.65771876  1
  Zn  Zn100  1  0.71680681  0.67918895  0.17744309  1
  Zn  Zn101  1  0.68124985  0.68791739  0.68254731  1
  Zn  Zn102  1  0.31780632  0.29891864  0.32406229  1
  Zn  Zn103  1  0.31081223  0.31611267  0.81635556  1
  Zn  Zn104  1  0.31549175  0.81584330  0.31539218  1
  Zn  Zn105  1  0.31658986  0.81162003  0.81542183  1
  Zn  Zn106  1  0.83567867  0.30883368  0.34646812  1
  Zn  Zn107  1  0.68481326  0.30207268  0.80495491  1
  Zn  Zn108  1  0.80865753  0.80652380  0.31746122  1
  Zn  Zn109  1  0.80856616  0.81709108  0.81045896  1
  Zn  Zn110  1  0.18978698  0.39831687  0.40480238  1
  Zn  Zn111  1  0.19018489  0.43831930  0.94047183  1
  Zn  Zn112  1  0.18776690  0.99839442  0.43842635  1
  Zn  Zn113  1  0.19217098  0.93518619  0.93459048  1
  Zn  Zn114  1  0.68616576  0.44439021  0.43470064  1
  Zn  Zn115  1  0.68746427  0.43713679  0.94532723  1
  Zn  Zn116  1  0.68398815  0.92990872  0.43971234  1
  Zn  Zn117  1  0.68774361  0.93846639  0.94829476  1
  Zn  Zn118  1  0.30885692  0.05916216  0.05974566  1
  Zn  Zn119  1  0.33845248  0.07365026  0.56742858  1
  Zn  Zn120  1  0.31835697  0.56614533  0.05503562  1
  Zn  Zn121  1  0.31632218  0.56204043  0.56323615  1
  Zn  Zn122  1  0.80760960  0.04999183  0.05802434  1
  Zn  Zn123  1  0.81693810  0.06450429  0.54773306  1
  Zn  Zn124  1  0.80702482  0.55822777  0.06694176  1
  Zn  Zn125  1  0.80604339  0.56585996  0.56800527  1
  Zn  Zn126  1  0.43938846  0.43521044  0.19206912  1
  Zn  Zn127  1  0.45196189  0.40390649  0.67695103  1
  Zn  Zn128  1  0.44214841  0.92459009  0.18496342  1
  Zn  Zn129  1  0.49860969  0.98568149  0.71546962  1
  Zn  Zn130  1  0.93455493  0.41380718  0.21632761  1
  Zn  Zn131  1  0.93593934  0.44071949  0.69310930  1
  Zn  Zn132  1  0.93979012  0.93487413  0.18992452  1
  Zn  Zn133  1  0.93632754  0.93725568  0.68742570  1
  Zn  Zn134  1  0.07882654  0.06684247  0.31638378  1
  Zn  Zn135  1  0.06091277  0.06253877  0.81293380  1
  Zn  Zn136  1  0.07652653  0.53100533  0.32465497  1
  Zn  Zn137  1  0.05862741  0.56456264  0.81559564  1
  Zn  Zn138  1  0.56469018  0.06041007  0.32330395  1
  Zn  Zn139  1  0.57723584  0.13569259  0.78298931  1
  Zn  Zn140  1  0.56785753  0.56574807  0.32458991  1
  Zn  Zn141  1  0.56298155  0.55961214  0.81386112  1
  Zn  Zn142  1  0.42076176  0.18354907  0.44333624  1
  Zn  Zn143  1  0.43621511  0.17928871  0.93757032  1
  Zn  Zn144  1  0.43645752  0.68372779  0.44537443  1
  Zn  Zn145  1  0.44064793  0.68813432  0.93332318  1
  Zn  Zn146  1  0.94026787  0.17686208  0.42006101  1
  Zn  Zn147  1  0.93167058  0.18666611  0.93926832  1
  Zn  Zn148  1  0.93523774  0.68417028  0.43529645  1
  Zn  Zn149  1  0.94069366  0.68711093  0.93896703  1
  Zn  Zn150  1  0.04678098  0.31768536  0.09098430  1
  Zn  Zn151  1  0.04754632  0.31968426  0.57282904  1
  Zn  Zn152  1  0.06298606  0.80825615  0.06472903  1
  Zn  Zn153  1  0.06749139  0.81285598  0.56076984  1
  Zn  Zn154  1  0.56473864  0.31173381  0.06349971  1
  Zn  Zn155  1  0.57781208  0.31959342  0.55688917  1
  Zn  Zn156  1  0.56611027  0.81720672  0.05784292  1
  Zn  Zn157  1  0.55452286  0.81714017  0.56408161  1
  O  O158  1  0.13439787  0.10749718  0.10908718  1
  O  O159  1  0.09814203  0.12939433  0.62690906  1
  O  O160  1  0.13769499  0.62427789  0.11759532  1
  O  O161  1  0.11593606  0.62473562  0.62558224  1
  O  O162  1  0.61781754  0.11403670  0.11846015  1
  O  O163  1  0.56692216  0.15703268  0.60399008  1
  O  O164  1  0.62000275  0.61946010  0.11929518  1
  O  O165  1  0.61371842  0.60820326  0.63000548  1
  O  O166  1  0.38845800  0.38586742  0.36739013  1
  O  O167  1  0.38494252  0.37648675  0.88651687  1
  O  O168  1  0.38560319  0.87143283  0.38624827  1
  O  O169  1  0.37270067  0.88931438  0.88468992  1
  O  O170  1  0.90115592  0.39891719  0.33089519  1
  O  O171  1  0.88572237  0.38467830  0.89003719  1
  O  O172  1  0.88944515  0.86269866  0.38418673  1
  O  O173  1  0.88160936  0.88400188  0.87412378  1
  O  O174  1  0.26834192  -0.01218581  0.35868138  1
  O  O175  1  0.26470279  0.00556227  0.87375859  1
  O  O176  1  0.25948770  0.48813987  0.36466686  1
  O  O177  1  0.26310539  0.50655731  0.88217741  1
  O  O178  1  0.74538122  -0.00967533  0.36085894  1
  O  O179  1  0.75430703  0.00436740  0.87289742  1
  O  O180  1  0.75613304  0.51109763  0.37740762  1
  O  O181  1  0.76057220  0.49280579  0.87149817  1
  O  O182  1  0.24949211  0.49728009  0.12296114  1
  O  O183  1  0.23490420  0.50726209  0.62796659  1
  O  O184  1  0.24469315  0.99486909  0.13509828  1
  O  O185  1  0.25987464  1.01392730  0.61535478  1
  O  O186  1  0.74107516  0.48289728  0.12311644  1
  O  O187  1  0.74398625  0.49547164  0.63571513  1
  O  O188  1  0.74268054  0.98860681  0.13638190  1
  O  O189  1  0.76428525  0.98165626  0.61139733  1
  O  O190  1  0.01777996  0.34319671  0.20531422  1
  O  O191  1  0.00040928  0.36868932  0.76394884  1
  O  O192  1  0.00797604  0.86422657  0.25559685  1
  O  O193  1  0.00598013  0.87176156  0.76101612  1
  O  O194  1  0.50269326  0.36195172  0.25868073  1
  O  O195  1  0.50432256  0.37727652  0.77524794  1
  O  O196  1  0.49775020  0.86384541  0.26184094  1
  O  O197  1  0.51019146  0.86700384  0.73751779  1
  O  O198  1  0.50538042  0.12916240  0.23881762  1
  O  O199  1  0.46882877  0.15443050  0.73308054  1
  O  O200  1  0.50151956  0.62706352  0.24875854  1
  O  O201  1  0.49643777  0.62329886  0.74121486  1
  O  O202  1  0.99736466  0.11630724  0.25277343  1
  O  O203  1  0.99110240  0.13631899  0.74712873  1
  O  O204  1  1.00377940  0.63568875  0.24115625  1
  O  O205  1  0.98956135  0.63207879  0.74565777  1
  O  O206  1  0.37346566  0.25445788  0.00754346  1
  O  O207  1  0.32154102  0.22757626  0.41692559  1
  O  O208  1  0.37161590  0.75507041  0.00122838  1
  O  O209  1  0.37576201  0.76012470  0.51323627  1
  O  O210  1  0.86450715  0.25228316  0.01046078  1
  O  O211  1  0.89634328  0.28116993  0.44834927  1
  O  O212  1  0.85906383  0.75066349  -0.00947168  1
  O  O213  1  0.87454852  0.75611931  0.51267207  1
  O  O214  1  0.13159913  0.28135885  0.49637536  1
  O  O215  1  0.13174632  0.23924498  0.99585640  1
  O  O216  1  0.11782072  0.73896725  0.49008738  1
  O  O217  1  0.13647859  0.76059003  0.98824756  1
  O  O218  1  0.61703137  0.24188102  0.48110896  1
  O  O219  1  0.63513703  0.23673074  1.00976504  1
  O  O220  1  0.63304739  0.75311471  0.50832502  1
  O  O221  1  0.62714145  0.74664055  0.98721660  1
  O  O222  1  0.49817151  0.24219996  0.13226561  1
  O  O223  1  0.49095551  0.29776702  0.63135260  1
  O  O224  1  0.49395990  0.74618361  0.12017662  1
  O  O225  1  0.50021620  0.74102408  0.63693801  1
  O  O226  1  0.97831562  0.22473319  0.11962047  1
  O  O227  1  0.99718999  0.24724353  0.64489314  1
  O  O228  1  1.00242848  0.73817799  0.13559164  1
  O  O229  1  0.99185206  0.74525691  0.63254003  1
  O  O230  1  0.00486483  0.24285142  0.34428776  1
  O  O231  1  0.00008545  0.25608143  0.86994364  1
  O  O232  1  0.00852572  0.74936941  0.36430666  1
  O  O233  1  0.00724330  0.75699480  0.87306260  1
  O  O234  1  0.50077099  0.25518498  0.36883882  1
  O  O235  1  0.50053734  0.25675525  0.88187334  1
  O  O236  1  0.49661120  0.75561142  0.38307583  1
  O  O237  1  0.50462812  0.75150817  0.85742620  1
  O  O238  1  0.23930409  0.17506260  0.54377475  1
  O  O239  1  0.24259936  0.12754042  0.99014896  1
  O  O240  1  0.23652613  0.61901813  0.49978236  1
  O  O241  1  0.25559094  0.63819527  0.98717215  1
  O  O242  1  0.70631943  0.12108416  0.55626935  1
  O  O243  1  0.74084496  0.12838699  1.00045936  1
  O  O244  1  0.74644429  0.64245274  0.51143171  1
  O  O245  1  0.73872142  0.64143619  1.01198373  1
  O  O246  1  0.26350249  0.36735324  0.00288315  1
  O  O247  1  0.18860329  0.33721066  0.50609378  1
  O  O248  1  0.26215233  0.86115183  -0.00680268  1
  O  O249  1  0.26288203  0.88281060  0.48907220  1
  O  O250  1  0.75851689  0.36207381  0.00132693  1
  O  O251  1  0.75625234  0.38895419  0.50851471  1
  O  O252  1  0.75066668  0.86310036  0.00751187  1
  O  O253  1  0.75893799  0.86280525  0.50562697  1
  O  O254  1  0.14267776  0.50472266  0.22901043  1
  O  O255  1  0.11845658  0.49735955  0.74510058  1
  O  O256  1  0.13785119  0.99084017  0.24283853  1
  O  O257  1  0.12072301  0.98884643  0.74421224  1
  O  O258  1  0.61488298  0.50270754  0.23587033  1
  O  O259  1  0.63712089  0.50332100  0.74631687  1
  O  O260  1  0.62962556  1.00269830  0.24083425  1
  O  O261  1  0.59591793  1.02746091  0.74923087  1
  O  O262  1  0.36449794  -0.01796040  0.25068978  1
  O  O263  1  0.38651748  -0.01177153  0.75984498  1
  O  O264  1  0.37513836  0.50458108  0.25751997  1
  O  O265  1  0.37844536  0.48447591  0.76598175  1
  O  O266  1  0.86256959  -0.00710488  0.25131978  1
  O  O267  1  0.87667066  -0.00083412  0.76432074  1
  O  O268  1  0.89102922  0.51293669  0.23025280  1
  O  O269  1  0.86599826  0.50730899  0.76125671  1
  O  O270  1  0.08744214  0.41429273  0.35283206  1
  O  O271  1  0.11054831  0.37265523  0.87844365  1
  O  O272  1  0.11299329  0.86173222  0.36607025  1
  O  O273  1  0.11853751  0.87066953  0.86534004  1
  O  O274  1  0.61894183  0.36187806  0.37806414  1
  O  O275  1  0.62167582  0.36578841  0.88243465  1
  O  O276  1  0.61069122  0.87018996  0.37776674  1
  O  O277  1  0.63142128  0.87060811  0.86901825  1
  O  O278  1  0.38570983  0.13345128  0.11523975  1
  O  O279  1  0.40209383  0.16559959  0.57391171  1
  O  O280  1  0.38027882  0.63865327  0.12183169  1
  O  O281  1  0.38237522  0.64020663  0.62059824  1
  O  O282  1  0.85638798  0.12874389  0.12555194  1
  O  O283  1  0.89234543  0.14239893  0.60417487  1
  O  O284  1  0.87909839  0.62511416  0.12742605  1
  O  O285  1  0.88031609  0.63527366  0.63697138  1
  O  O286  1  0.26223143  0.25417025  0.12020651  1
  O  O287  1  0.24338710  0.22727116  0.59843776  1
  O  O288  1  0.26259604  0.74405033  0.11398800  1
  O  O289  1  0.26300938  0.74392882  0.63497355  1
  O  O290  1  0.75407431  0.25585738  0.12170188  1
  O  O291  1  0.75922592  0.26690844  0.60923579  1
  O  O292  1  0.74667103  0.76345749  0.11076622  1
  O  O293  1  0.75545370  0.75983977  0.61972302  1
  O  O294  1  0.20284697  0.29730425  0.33967753  1
  O  O295  1  0.24719900  0.24203753  0.88028141  1
  O  O296  1  0.23631583  0.74505539  0.36691867  1
  O  O297  1  0.24624908  0.74252727  0.87853788  1
  O  O298  1  0.73770824  0.25352400  0.36697382  1
  O  O299  1  0.75081039  0.23340878  0.88583568  1
  O  O300  1  0.74878507  0.74316374  0.39148398  1
  O  O301  1  0.74004305  0.75531271  0.88507159  1
  O  O302  1  0.01624180  0.12188172  -0.01343136  1
  O  O303  1  0.00276092  0.10639096  0.49232261  1
  O  O304  1  -0.00492762  0.62787870  0.01943096  1
  O  O305  1  0.00370410  0.62726004  0.51754203  1
  O  O306  1  0.50797533  0.11738673  0.01056865  1
  O  O307  1  0.50465480  0.10358939  0.47128818  1
  O  O308  1  0.50991952  0.61432795  -0.00374604  1
  O  O309  1  0.49484170  0.61007772  0.51622891  1
  O  O310  1  0.50255074  0.38290074  0.48666043  1
  O  O311  1  0.49783405  0.37830744  0.99258766  1
  O  O312  1  0.49393043  0.88499524  0.49188433  1
  O  O313  1  0.49283115  0.88563404  1.00078571  1
  O  O314  1  1.00176349  0.39895075  0.50373045  1
  O  O315  1  0.98895493  0.37272649  1.00150191  1
  O  O316  1  0.99527430  0.87222709  0.49220315  1
  O  O317  1  0.99868445  0.87185015  0.98781166  1
  O  O318  1  0.49625547  0.49456226  0.38360979  1
  O  O319  1  0.49897279  0.49101096  0.88781989  1
  O  O320  1  0.49114075  0.98045192  0.37132302  1
  O  O321  1  0.48170737  1.00972740  0.89078169  1
  O  O322  1  0.98642858  0.52825616  0.39834954  1
  O  O323  1  0.99139233  0.49301672  0.88136806  1
  O  O324  1  1.01219204  0.98634818  0.38748243  1
  O  O325  1  0.98894472  0.99391842  0.87663791  1
  O  O326  1  0.01551802  -0.00811388  0.12275890  1
  O  O327  1  -0.00882939  0.01691951  0.62257350  1
  O  O328  1  0.02044762  0.52119032  0.12687001  1
  O  O329  1  0.00403012  0.51345994  0.62752909  1
  O  O330  1  0.50436603  0.00309412  0.12050330  1
  O  O331  1  0.48222081  0.00266472  0.60083602  1
  O  O332  1  0.50921984  0.48518451  0.11102576  1
  O  O333  1  0.50353403  0.49605576  0.62322624  1
  O  O334  1  0.26728419  0.39017245  0.23113811  1
  O  O335  1  0.22880140  0.38722795  0.77065277  1
  O  O336  1  0.23710225  0.87612773  0.25334137  1
  O  O337  1  0.23927351  0.87597617  0.75318707  1
  O  O338  1  0.75266980  0.36666616  0.24014536  1
  O  O339  1  0.74860752  0.38266232  0.74589874  1
  O  O340  1  0.75188795  0.87511081  0.23963236  1
  O  O341  1  0.74632719  0.87923826  0.73560378  1
  O  O342  1  0.25507844  0.10591397  0.24765371  1
  O  O343  1  0.24420061  0.13342497  0.75949803  1
  O  O344  1  0.25893153  0.61162326  0.25415756  1
  O  O345  1  0.24799440  0.61893930  0.76702806  1
  O  O346  1  0.75051910  0.10752785  0.25477198  1
  O  O347  1  0.75059377  0.12419436  0.76329031  1
  O  O348  1  0.75537478  0.62411600  0.26205300  1
  O  O349  1  0.76048298  0.62109838  0.74520659  1
  O  O350  1  0.38935065  0.09765303  0.35917183  1
  O  O351  1  0.36627260  0.10971773  0.87911085  1
  O  O352  1  0.37281959  0.61090903  0.37789444  1
  O  O353  1  0.37093379  0.61261027  0.87963373  1
  O  O354  1  0.83487242  0.13161141  0.45092176  1
  O  O355  1  0.86094038  0.11213129  0.88215786  1
  O  O356  1  0.85486541  0.62596878  0.38523062  1
  O  O357  1  0.88155944  0.61433990  0.86927287  1
  O  O358  1  0.14720193  0.37245913  0.11821199  1
  O  O359  1  0.11144924  0.38892322  0.64338807  1
  O  O360  1  0.12301846  0.87767601  0.13504642  1
  O  O361  1  0.12054643  0.86830243  0.64438881  1
  O  O362  1  0.63871101  0.37758460  0.12251918  1
  O  O363  1  0.64310605  0.38764387  0.62381908  1
  O  O364  1  0.63795083  0.88438396  0.11827312  1
  O  O365  1  0.63851836  0.88091050  0.61698828  1
  O  O366  1  0.10746194  0.22755814  0.22420714  1
  O  O367  1  0.11700163  0.26397241  0.76213811  1
  O  O368  1  0.11856279  0.75306494  0.25605164  1
  O  O369  1  0.11947314  0.75981588  0.76216210  1
  O  O370  1  0.61546396  0.23810723  0.26548894  1
  O  O371  1  0.63176285  0.22770648  0.74121594  1
  O  O372  1  0.61948580  0.73774429  0.22577837  1
  O  O373  1  0.61312731  0.74483927  0.75685803  1
  O  O374  1  0.38593464  0.25258886  0.23625015  1
  O  O375  1  0.34516065  0.28813877  0.70575086  1
  O  O376  1  0.36704994  0.74830103  0.23377663  1
  O  O377  1  0.38892290  0.76244801  0.73719475  1
  O  O378  1  0.88354136  0.24244885  0.23679858  1
  O  O379  1  0.88183373  0.25691322  0.75771638  1
  O  O380  1  0.89106536  0.75255380  0.25403894  1
  O  O381  1  0.87658929  0.74540813  0.74623726  1
  O  O382  1  0.38288117  0.49684184  0.49272305  1
  O  O383  1  0.38612747  0.48979036  0.99506732  1
  O  O384  1  0.38111121  0.99085670  0.48159476  1
  O  O385  1  0.38021168  0.98933604  1.00229711  1
  O  O386  1  0.88814082  0.51014421  0.51660979  1
  O  O387  1  0.87332225  0.49177856  0.99731918  1
  O  O388  1  0.89437723  0.98010664  0.50486051  1
  O  O389  1  0.87529389  0.99316092  0.98768970  1
  O  O390  1  0.12732946  0.00062816  0.00498007  1
  O  O391  1  0.10795677  -0.01767908  0.51959182  1
  O  O392  1  0.12696943  0.49680828  0.01593908  1
  O  O393  1  0.10725115  0.51643498  0.51661399  1
  O  O394  1  0.61686192  0.00575604  0.00958858  1
  O  O395  1  0.60981641  0.00462486  0.49528604  1
  O  O396  1  0.62317114  0.51009565  0.00797292  1
  O  O397  1  0.61188499  0.49513071  0.51139582  1
  O  O398  1  0.37526841  0.36620005  0.11339536  1
  O  O399  1  0.34319265  0.35384952  0.66089633  1
  O  O400  1  0.38173638  0.85669371  0.11190796  1
  O  O401  1  0.37075293  0.86434135  0.61090467  1
  O  O402  1  0.86136923  0.36579014  0.11931844  1
  O  O403  1  0.86234340  0.38555665  0.62840318  1
  O  O404  1  0.85891224  0.88059603  0.12224578  1
  O  O405  1  0.87340441  0.86403053  0.62067823  1
  O  O406  1  0.15121531  0.10135904  0.39548316  1
  O  O407  1  0.13400104  0.12709961  0.87865729  1
  O  O408  1  0.12672912  0.62661611  0.38450624  1
  O  O409  1  0.13016789  0.63702958  0.87367783  1
  O  O410  1  0.63635292  0.13150323  0.38697951  1
  O  O411  1  0.63874021  0.11831408  0.88846084  1
  O  O412  1  0.64483338  0.62185114  0.38152839  1
  O  O413  1  0.62432234  0.63424944  0.88401510  1
