# generated using pymatgen
data_V79Zn79O256
_symmetry_space_group_name_H-M   'P 1'
_cell_length_a   16.90402458
_cell_length_b   16.87220137
_cell_length_c   16.92078545
_cell_angle_alpha   90.09954665
_cell_angle_beta   89.95853563
_cell_angle_gamma   89.99430552
_symmetry_Int_Tables_number   1
_chemical_formula_structural   V79Zn79O256
_chemical_formula_sum   'V79 Zn79 O256'
_cell_volume   4825.93661016
_cell_formula_units_Z   1
loop_
 _symmetry_equiv_pos_site_id
 _symmetry_equiv_pos_as_xyz
  1  'x, y, z'
loop_
 _atom_site_type_symbol
 _atom_site_label
 _atom_site_symmetry_multiplicity
 _atom_site_fract_x
 _atom_site_fract_y
 _atom_site_fract_z
 _atom_site_occupancy
  V  V0  1  0.88305100  0.74302038  0.62296529  1
  V  V1  1  0.12144902  0.35661184  0.24851638  1
  V  V2  1  0.74960335  0.25883902  -0.00143347  1
  V  V3  1  0.39328575  -0.00343984  0.36954969  1
  V  V4  1  0.25947404  0.11435428  0.36789735  1
  V  V5  1  0.36617590  0.61367376  0.75402540  1
  V  V6  1  0.49830131  0.00557256  -0.00132197  1
  V  V7  1  0.12045189  0.87441655  0.75219217  1
  V  V8  1  0.24638457  0.74931213  0.00058929  1
  V  V9  1  0.24073837  0.88760775  0.13688483  1
  V  V10  1  0.87491914  0.12672047  0.73616620  1
  V  V11  1  0.12916400  0.75967511  0.35841918  1
  V  V12  1  0.87690790  0.87773867  0.49916552  1
  V  V13  1  0.74454966  0.37406701  0.14066919  1
  V  V14  1  0.25013714  0.36426415  0.11873175  1
  V  V15  1  0.36977580  0.37362192  -0.00770956  1
  V  V16  1  0.74880782  0.87665438  0.62474263  1
  V  V17  1  0.24784270  0.75039399  0.50221004  1
  V  V18  1  0.00032828  0.01141105  0.50353291  1
  V  V19  1  0.00072572  0.01170228  0.01101064  1
  V  V20  1  0.24863994  0.88132774  0.62765761  1
  V  V21  1  0.24967566  0.61001114  0.87549846  1
  V  V22  1  0.74878595  -0.00619482  0.24094612  1
  V  V23  1  0.86742653  0.87720818  0.00369373  1
  V  V24  1  0.00722139  0.87631941  0.36475894  1
  V  V25  1  0.13806841  0.24289687  0.87324715  1
  V  V26  1  -0.00833220  0.36994712  0.88265574  1
  V  V27  1  0.13037631  0.38568303  0.74791271  1
  V  V28  1  0.49836713  0.75512645  0.25948555  1
  V  V29  1  -0.00571229  0.73909951  0.74710202  1
  V  V30  1  0.37231646  0.87986614  -0.00357152  1
  V  V31  1  0.47281716  0.38337708  0.36642496  1
  V  V32  1  0.25235281  0.62225360  0.37481794  1
  V  V33  1  0.62371212  0.75055014  0.87130156  1
  V  V34  1  0.38262518  0.74636585  0.12333284  1
  V  V35  1  0.74627348  0.75184109  0.00458950  1
  V  V36  1  0.63862357  0.38876402  0.74494320  1
  V  V37  1  0.49659004  0.75455008  0.75345439  1
  V  V38  1  0.25544215  0.00279024  0.76901742  1
  V  V39  1  0.14732906  0.12650680  0.50656885  1
  V  V40  1  0.88178335  0.13248307  0.24512940  1
  V  V41  1  0.49436940  0.88208250  0.87447873  1
  V  V42  1  0.37254823  0.74744638  0.62786250  1
  V  V43  1  -0.00266284  0.24299479  0.74247663  1
  V  V44  1  0.37846617  0.24661613  0.12304794  1
  V  V45  1  0.87155550  0.00498076  0.87328837  1
  V  V46  1  0.74302537  0.12998669  0.38085320  1
  V  V47  1  0.88026580  0.74474380  0.12700471  1
  V  V48  1  0.52359087  0.62370354  0.62338382  1
  V  V49  1  0.13566665  0.12951929  0.00359480  1
  V  V50  1  0.62377394  0.87728600  0.25196626  1
  V  V51  1  0.37902783  0.62465225  0.24644030  1
  V  V52  1  0.75221607  0.74002355  0.49142853  1
  V  V53  1  0.12033726  0.00397885  0.62928976  1
  V  V54  1  0.25539463  0.49539384  0.25169451  1
  V  V55  1  0.38594916  0.88507059  0.49975184  1
  V  V56  1  0.11734909  0.62345593  0.00341771  1
  V  V57  1  0.81068386  0.31128836  0.56499821  1
  V  V58  1  -0.00107139  0.37716644  0.38853790  1
  V  V59  1  0.37735047  0.13484889  0.75008720  1
  V  V60  1  0.61568097  0.00576918  0.61165028  1
  V  V61  1  0.62221299  0.49677951  0.13316667  1
  V  V62  1  0.75113182  0.62249750  0.86529747  1
  V  V63  1  0.50258618  0.25343840  0.72531807  1
  V  V64  1  0.49353569  0.37942051  0.87021666  1
  V  V65  1  0.12788376  0.24392719  0.37805528  1
  V  V66  1  0.62133688  0.62334913  0.00248363  1
  V  V67  1  -0.01679901  0.49695368  0.00601525  1
  V  V68  1  0.49466835  0.50291990  -0.00352088  1
  V  V69  1  0.11396573  0.62186884  0.50383674  1
  V  V70  1  -0.00293739  0.87306562  0.87619204  1
  V  V71  1  0.11984176  0.49647249  0.12613429  1
  V  V72  1  0.87364293  0.00112790  0.37340947  1
  V  V73  1  0.62185933  0.25048261  0.87416292  1
  V  V74  1  0.86875756  0.50040865  0.85955508  1
  V  V75  1  0.26288087  0.37250455  0.60252741  1
  V  V76  1  0.62173200  0.74111268  0.38163218  1
  V  V77  1  0.63083998  0.27373537  0.36745695  1
  V  V78  1  0.88487205  0.25448377  0.12190763  1
  Zn  Zn79  1  0.74404468  0.00419292  0.74779409  1
  Zn  Zn80  1  0.10268263  0.50010338  0.61627091  1
  Zn  Zn81  1  0.60913739  0.13482231  0.50256039  1
  Zn  Zn82  1  0.49358610  0.48736472  0.50287887  1
  Zn  Zn83  1  0.62174684  0.88169339  0.74664927  1
  Zn  Zn84  1  0.12070664  0.74545726  0.87312859  1
  Zn  Zn85  1  0.67595463  0.48592374  0.60072932  1
  Zn  Zn86  1  0.82510909  0.58629629  0.31742987  1
  Zn  Zn87  1  0.62836628  -0.00350318  0.11961457  1
  Zn  Zn88  1  0.50563922  0.25224627  0.24786140  1
  Zn  Zn89  1  0.74863404  0.12768347  0.87463971  1
  Zn  Zn90  1  0.37435110  0.11293161  0.23904556  1
  Zn  Zn91  1  0.50735089  0.12456843  0.12895359  1
  Zn  Zn92  1  0.62655168  0.12533202  0.00189148  1
  Zn  Zn93  1  0.00309019  0.64264392  0.16707546  1
  Zn  Zn94  1  0.15776604  0.14125031  0.20641804  1
  Zn  Zn95  1  0.19520556  0.19022281  0.68849141  1
  Zn  Zn96  1  0.19289328  0.68582656  0.18232931  1
  Zn  Zn97  1  0.18212771  0.68432451  0.68811363  1
  Zn  Zn98  1  0.68910778  0.18290298  0.18856931  1
  Zn  Zn99  1  0.68581347  0.18901792  0.68512464  1
  Zn  Zn100  1  0.68445363  0.68938464  0.18995802  1
  Zn  Zn101  1  0.74026249  0.63825302  0.65089062  1
  Zn  Zn102  1  0.30398826  0.30039977  0.31112843  1
  Zn  Zn103  1  0.31362314  0.31518300  0.80047863  1
  Zn  Zn104  1  0.31512775  0.81619134  0.31390214  1
  Zn  Zn105  1  0.30736110  0.81032618  0.81508750  1
  Zn  Zn106  1  0.81614220  0.31368486  0.31446011  1
  Zn  Zn107  1  0.81301937  0.31217317  0.80956529  1
  Zn  Zn108  1  0.83132542  0.78224395  0.32746717  1
  Zn  Zn109  1  0.81015952  0.81041333  0.80923749  1
  Zn  Zn110  1  0.18570618  0.43528050  0.43724861  1
  Zn  Zn111  1  0.17995365  0.43199633  0.93687985  1
  Zn  Zn112  1  0.19125809  0.93929583  0.43989401  1
  Zn  Zn113  1  0.17983729  0.93722037  0.94757847  1
  Zn  Zn114  1  0.70401657  0.45149335  0.43750703  1
  Zn  Zn115  1  0.68717467  0.43772211  0.93726965  1
  Zn  Zn116  1  0.68477467  0.93446473  0.43211542  1
  Zn  Zn117  1  0.68442834  0.93755224  0.93452165  1
  Zn  Zn118  1  0.31117601  0.06213499  0.05535214  1
  Zn  Zn119  1  0.40858074  0.09633310  0.55057128  1
  Zn  Zn120  1  0.30947570  0.55855979  0.06345933  1
  Zn  Zn121  1  0.30411022  0.54152115  0.56349498  1
  Zn  Zn122  1  0.81150797  0.07092982  0.06041521  1
  Zn  Zn123  1  0.80745417  0.06359406  0.56150765  1
  Zn  Zn124  1  0.81042446  0.55967370  0.16009043  1
  Zn  Zn125  1  0.87787487  0.52150183  0.58025855  1
  Zn  Zn126  1  0.43901407  0.43625932  0.18193211  1
  Zn  Zn127  1  0.43949700  0.43861495  0.68019639  1
  Zn  Zn128  1  0.43600574  0.93285709  0.18214094  1
  Zn  Zn129  1  0.42997391  0.95381189  0.68513485  1
  Zn  Zn130  1  0.93627415  0.43259290  0.20225301  1
  Zn  Zn131  1  0.94483550  0.42450750  0.68778656  1
  Zn  Zn132  1  0.93454156  0.93746880  0.18675875  1
  Zn  Zn133  1  0.93631919  0.93669759  0.68784971  1
  Zn  Zn134  1  0.06227813  0.05674504  0.31748710  1
  Zn  Zn135  1  0.06016117  0.06178972  0.81678879  1
  Zn  Zn136  1  0.07270255  0.54998477  0.31526557  1
  Zn  Zn137  1  0.05662656  0.56088607  0.82096033  1
  Zn  Zn138  1  0.56010724  0.07066831  0.30895179  1
  Zn  Zn139  1  0.56105017  0.06629589  0.80385067  1
  Zn  Zn140  1  0.56028445  0.56189285  0.31770568  1
  Zn  Zn141  1  0.55826843  0.56586605  0.81073038  1
  Zn  Zn142  1  0.46524437  0.25561631  0.49146425  1
  Zn  Zn143  1  0.43237133  0.18913945  0.93032214  1
  Zn  Zn144  1  0.41897165  0.64727568  0.46072522  1
  Zn  Zn145  1  0.43397015  0.68726450  0.93605635  1
  Zn  Zn146  1  0.93460472  0.19548663  0.43554714  1
  Zn  Zn147  1  0.93486395  0.18959082  0.93738414  1
  Zn  Zn148  1  0.96545226  0.66174522  0.38212981  1
  Zn  Zn149  1  0.93220202  0.68400753  0.93984558  1
  Zn  Zn150  1  0.06716969  0.30785716  0.05852821  1
  Zn  Zn151  1  0.06570580  0.30592204  0.56485894  1
  Zn  Zn152  1  0.06066419  0.81912687  0.06534197  1
  Zn  Zn153  1  0.06196978  0.81513199  0.55815879  1
  Zn  Zn154  1  0.56124376  0.31679881  0.05852668  1
  Zn  Zn155  1  0.61049786  0.35190644  0.52926905  1
  Zn  Zn156  1  0.56263375  0.81662115  0.06520631  1
  Zn  Zn157  1  0.56453184  0.80813235  0.56465809  1
  O  O158  1  0.12171198  0.14944870  0.10033870  1
  O  O159  1  0.13662451  0.11559042  0.61730224  1
  O  O160  1  0.11909079  0.61596314  0.12192732  1
  O  O161  1  0.12536129  0.62475119  0.60901066  1
  O  O162  1  0.62319198  0.11807285  0.11966697  1
  O  O163  1  0.63055124  0.11157251  0.61863728  1
  O  O164  1  0.63020042  0.61094582  0.11049040  1
  O  O165  1  0.62130911  0.62907095  0.64143561  1
  O  O166  1  0.37305530  0.37282871  0.36938274  1
  O  O167  1  0.38135491  0.36775561  0.87943004  1
  O  O168  1  0.36802141  0.88597806  0.39031062  1
  O  O169  1  0.38330697  0.86266126  0.88710057  1
  O  O170  1  0.89995645  0.36069923  0.36947866  1
  O  O171  1  0.88106712  0.38612005  0.87272076  1
  O  O172  1  0.88464300  0.87756375  0.38330392  1
  O  O173  1  0.87918350  0.88255807  0.88059573  1
  O  O174  1  0.25236862  0.01007296  0.37725342  1
  O  O175  1  0.23231299  -0.00083166  0.86561126  1
  O  O176  1  0.24075967  0.50966689  0.36143262  1
  O  O177  1  0.24546119  0.51077852  0.88150547  1
  O  O178  1  0.75646285  0.00805827  0.36668491  1
  O  O179  1  0.75974991  0.00036522  0.87059747  1
  O  O180  1  0.79986080  0.51553702  0.41597347  1
  O  O181  1  0.76214349  0.50498006  0.88010912  1
  O  O182  1  0.23882893  0.49113203  0.13135918  1
  O  O183  1  0.22929852  0.47834123  0.61779354  1
  O  O184  1  0.26067863  0.98622899  0.12319674  1
  O  O185  1  0.23967514  0.98713479  0.63989591  1
  O  O186  1  0.73533860  0.48216891  0.11699716  1
  O  O187  1  0.77171887  0.53338421  0.62156828  1
  O  O188  1  0.75315235  1.00391779  0.13769249  1
  O  O189  1  0.74303399  0.99011358  0.62484951  1
  O  O190  1  0.01880847  0.37029913  0.25383836  1
  O  O191  1  0.00449321  0.35972688  0.76305604  1
  O  O192  1  -0.00196380  0.88550617  0.26562311  1
  O  O193  1  0.00122711  0.87009272  0.75957042  1
  O  O194  1  0.49232404  0.37477706  0.26047100  1
  O  O195  1  0.49785972  0.36695729  0.75346523  1
  O  O196  1  0.50379909  0.86269534  0.24780654  1
  O  O197  1  0.49408364  0.86895175  0.75749663  1
  O  O198  1  0.48884268  0.13215162  0.24499941  1
  O  O199  1  0.49914928  0.14907309  0.74842596  1
  O  O200  1  0.48519890  0.63308494  0.25587985  1
  O  O201  1  0.48535113  0.63523979  0.74597086  1
  O  O202  1  0.97916523  0.12131827  0.25799653  1
  O  O203  1  0.98992395  0.13383163  0.75569526  1
  O  O204  1  1.00299177  0.62684597  0.27655672  1
  O  O205  1  1.00193641  0.64008597  0.75740958  1
  O  O206  1  0.37957699  0.26281521  0.00605916  1
  O  O207  1  0.37335170  0.20372063  0.53057189  1
  O  O208  1  0.36743168  0.75338420  0.00618214  1
  O  O209  1  0.36276334  0.75173699  0.51020072  1
  O  O210  1  0.86496531  0.24410826  0.01417690  1
  O  O211  1  0.87124500  0.25279606  0.50685666  1
  O  O212  1  0.86570842  0.75762776  0.00277614  1
  O  O213  1  0.86771466  0.76518970  0.50896924  1
  O  O214  1  0.12549149  0.22951017  0.49934076  1
  O  O215  1  0.12380563  0.24379501  0.98149871  1
  O  O216  1  0.13740715  0.74695787  0.49964521  1
  O  O217  1  0.12965800  0.73945679  1.00289121  1
  O  O218  1  0.62581442  0.25006458  0.47332049  1
  O  O219  1  0.62860710  0.25160511  0.98851981  1
  O  O220  1  0.63662878  0.75847073  0.48964983  1
  O  O221  1  0.62528653  0.74672036  0.99260151  1
  O  O222  1  0.48813490  0.25275783  0.12202938  1
  O  O223  1  0.50989365  0.25986873  0.62922780  1
  O  O224  1  0.48783742  0.75144834  0.13146042  1
  O  O225  1  0.49257368  0.74489693  0.63711892  1
  O  O226  1  0.98354287  0.25855465  0.11904234  1
  O  O227  1  1.00325376  0.24917800  0.64437515  1
  O  O228  1  0.98685584  0.75176578  0.11862458  1
  O  O229  1  0.98957317  0.76181093  0.63101114  1
  O  O230  1  0.02111412  0.25066334  0.37918795  1
  O  O231  1  0.00121329  0.25740838  0.87139659  1
  O  O232  1  0.02413979  0.76417298  0.37937181  1
  O  O233  1  -0.00726946  0.75915264  0.86858829  1
  O  O234  1  0.51661432  0.27521627  0.36793703  1
  O  O235  1  0.50692301  0.26334652  0.87275610  1
  O  O236  1  0.51150056  0.74906989  0.36664289  1
  O  O237  1  0.50390233  0.75765885  0.87155717  1
  O  O238  1  0.24489936  0.11925580  0.49481919  1
  O  O239  1  0.23423478  0.11697377  0.99294696  1
  O  O240  1  0.24480768  0.63485494  0.49187485  1
  O  O241  1  0.24067357  0.62940079  0.99695536  1
  O  O242  1  0.75314596  0.12226525  0.48169596  1
  O  O243  1  0.74627455  0.13963173  0.99471294  1
  O  O244  1  0.74797368  0.64466615  0.49933860  1
  O  O245  1  0.73308854  0.63753835  0.98430809  1
  O  O246  1  0.25853984  0.38397362  0.00618434  1
  O  O247  1  0.24516256  0.36546345  0.50245656  1
  O  O248  1  0.25558942  0.86720984  0.00158982  1
  O  O249  1  0.25667943  0.86973993  0.51093886  1
  O  O250  1  0.74626329  0.36315290  0.00441260  1
  O  O251  1  0.74173053  0.36861400  0.51107498  1
  O  O252  1  0.75640877  0.86571494  -0.00907287  1
  O  O253  1  0.76079267  0.87531343  0.50541949  1
  O  O254  1  0.13643667  0.48624803  0.24087433  1
  O  O255  1  0.10845172  0.48642430  0.75148578  1
  O  O256  1  0.12725065  1.03600551  0.23284672  1
  O  O257  1  0.12773369  0.99670724  0.74513336  1
  O  O258  1  0.61406991  0.50615215  0.23073176  1
  O  O259  1  0.62342301  0.48897395  0.75828240  1
  O  O260  1  0.63558924  0.99656482  0.25101480  1
  O  O261  1  0.62610448  0.99977064  0.73578449  1
  O  O262  1  0.38122648  -0.00701233  0.26542078  1
  O  O263  1  0.35372081  -0.02010349  0.76947893  1
  O  O264  1  0.36271198  0.50893260  0.23643613  1
  O  O265  1  0.37517734  0.51606118  0.74600429  1
  O  O266  1  0.86524015  0.00746627  0.25230450  1
  O  O267  1  0.87743161  0.01138256  0.75664225  1
  O  O268  1  0.86733145  0.50599216  0.24513623  1
  O  O269  1  0.87792712  0.49976053  0.76269023  1
  O  O270  1  0.12692028  0.36150225  0.36570951  1
  O  O271  1  0.11478281  0.36424484  0.86708629  1
  O  O272  1  0.12500406  0.86767122  0.37883642  1
  O  O273  1  0.11059000  0.87166508  0.87411894  1
  O  O274  1  0.64955682  0.37240911  0.36601431  1
  O  O275  1  0.61521277  0.36895379  0.86541333  1
  O  O276  1  0.62305317  0.86846156  0.35995329  1
  O  O277  1  0.61374023  0.86551673  0.87287090  1
  O  O278  1  0.37290975  0.13946252  0.11600056  1
  O  O279  1  0.39524438  0.07693642  0.66357156  1
  O  O280  1  0.36381216  0.63571286  0.13455559  1
  O  O281  1  0.36621012  0.63934797  0.64014188  1
  O  O282  1  0.86975120  0.13751075  0.13597482  1
  O  O283  1  0.87669765  0.11652898  0.63790221  1
  O  O284  1  0.88520187  0.64034477  0.12241758  1
  O  O285  1  0.88089496  0.64586094  0.61286066  1
  O  O286  1  0.26173038  0.26200864  0.12001605  1
  O  O287  1  0.24408968  0.27679326  0.63830026  1
  O  O288  1  0.25728763  0.75607100  0.11354320  1
  O  O289  1  0.25357521  0.76076574  0.62357153  1
  O  O290  1  0.74762177  0.26099194  0.11847958  1
  O  O291  1  0.75611976  0.25121866  0.62591331  1
  O  O292  1  0.75592455  0.74332492  0.10858660  1
  O  O293  1  0.76143719  0.75638580  0.61187864  1
  O  O294  1  0.24072630  0.23080581  0.37837290  1
  O  O295  1  0.23661849  0.25056548  0.86288276  1
  O  O296  1  0.24361752  0.74996904  0.38302842  1
  O  O297  1  0.24551236  0.74257867  0.88890651  1
  O  O298  1  0.74406652  0.23697694  0.36545734  1
  O  O299  1  0.74011404  0.25382280  0.88055393  1
  O  O300  1  0.73230028  0.76320750  0.38477542  1
  O  O301  1  0.74078810  0.74704402  0.88046528  1
  O  O302  1  0.00021146  0.11446662  -0.00382542  1
  O  O303  1  0.00067685  0.11259306  0.49525676  1
  O  O304  1  0.01027530  0.61550524  -0.00383188  1
  O  O305  1  0.01703678  0.63641684  0.48408317  1
  O  O306  1  0.49641897  0.11301740  -0.00577354  1
  O  O307  1  0.49505053  0.14279985  0.49242018  1
  O  O308  1  0.50800583  0.61643479  -0.01050376  1
  O  O309  1  0.51525558  0.64489422  0.52398906  1
  O  O310  1  0.49486701  0.36676846  0.48053440  1
  O  O311  1  0.49116291  0.38299639  0.98857764  1
  O  O312  1  0.48181215  0.86155048  0.50505440  1
  O  O313  1  0.49206260  0.88088261  0.99327558  1
  O  O314  1  1.01308969  0.36827285  0.48841517  1
  O  O315  1  1.00850143  0.38313708  0.98914935  1
  O  O316  1  0.99458030  0.88635448  0.49352082  1
  O  O317  1  0.99177237  0.88562040  0.99118407  1
  O  O318  1  0.50047876  0.48536962  0.37617449  1
  O  O319  1  0.50102813  0.48924854  0.88142587  1
  O  O320  1  0.49181862  1.00205272  0.37684969  1
  O  O321  1  0.50555811  0.98799372  0.87824701  1
  O  O322  1  1.01230454  0.47694427  0.37584722  1
  O  O323  1  0.98465368  0.49370685  0.88532371  1
  O  O324  1  0.99503118  0.99443393  0.38575823  1
  O  O325  1  0.98926644  0.99147845  0.88047179  1
  O  O326  1  -0.00763229  -0.00069581  0.10906453  1
  O  O327  1  0.01258351  -0.00582075  0.61915021  1
  O  O328  1  0.01275859  0.49097987  0.12301447  1
  O  O329  1  -0.01460892  0.50050576  0.61627151  1
  O  O330  1  0.49729857  0.00063865  0.11014387  1
  O  O331  1  0.51688039  -0.01202200  0.62024758  1
  O  O332  1  0.51307567  0.49050197  0.10922533  1
  O  O333  1  0.50130470  0.52166002  0.62729100  1
  O  O334  1  0.24396319  0.37808488  0.24010967  1
  O  O335  1  0.23122796  0.38247942  0.75787150  1
  O  O336  1  0.25468580  0.86951952  0.23499231  1
  O  O337  1  0.23958045  0.87895643  0.74804922  1
  O  O338  1  0.74705630  0.37148977  0.23905664  1
  O  O339  1  0.73714836  0.37661546  0.75587903  1
  O  O340  1  0.74457486  0.89195414  0.25469036  1
  O  O341  1  0.74777533  0.87570519  0.73674576  1
  O  O342  1  0.26051149  0.12717128  0.26410846  1
  O  O343  1  0.26459258  0.11317332  0.74655500  1
  O  O344  1  0.25486383  0.61672526  0.25470814  1
  O  O345  1  0.25743083  0.63155194  0.75992198  1
  O  O346  1  0.75674540  0.11349963  0.25907411  1
  O  O347  1  0.76530905  0.12714187  0.75315739  1
  O  O348  1  0.74539889  0.61353845  0.24038681  1
  O  O349  1  0.74674025  0.63528431  0.76711968  1
  O  O350  1  0.36564575  0.10629216  0.37865502  1
  O  O351  1  0.38706869  0.11934010  0.85018940  1
  O  O352  1  0.35910780  0.63832131  0.36079062  1
  O  O353  1  0.36593751  0.62977333  0.86220756  1
  O  O354  1  0.86534582  0.12380552  0.36414445  1
  O  O355  1  0.87408888  0.11527559  0.86935442  1
  O  O356  1  0.85743368  0.67821765  0.37342674  1
  O  O357  1  0.86642638  0.60934272  0.88195756  1
  O  O358  1  0.13247832  0.37465099  0.12828513  1
  O  O359  1  0.11798444  0.37474747  0.64307217  1
  O  O360  1  0.14131070  0.87594934  0.11756200  1
  O  O361  1  0.13062625  0.88247546  0.62956003  1
  O  O362  1  0.63213742  0.38357122  0.12235710  1
  O  O363  1  0.62407773  0.38344700  0.64238288  1
  O  O364  1  0.62186055  0.87738672  0.14199603  1
  O  O365  1  0.63458381  0.88027129  0.62299779  1
  O  O366  1  0.13512020  0.24904598  0.25858899  1
  O  O367  1  0.11322569  0.25095023  0.76023792  1
  O  O368  1  0.13552187  0.75108233  0.26029982  1
  O  O369  1  0.11368806  0.75695370  0.75093056  1
  O  O370  1  0.62506464  0.24293243  0.26399248  1
  O  O371  1  0.61468105  0.26165687  0.75324471  1
  O  O372  1  0.61733185  0.75529389  0.25737250  1
  O  O373  1  0.60901941  0.75326988  0.76221740  1
  O  O374  1  0.37316319  0.25146814  0.22840060  1
  O  O375  1  0.38493328  0.24272807  0.74011070  1
  O  O376  1  0.38018321  0.74617528  0.24353910  1
  O  O377  1  0.37981643  0.75031907  0.74461451  1
  O  O378  1  0.86887473  0.23946244  0.23791126  1
  O  O379  1  0.88557105  0.23790255  0.75548192  1
  O  O380  1  0.86508556  0.76971109  0.22182241  1
  O  O381  1  0.87975238  0.75668416  0.73260986  1
  O  O382  1  0.39094053  0.54086314  0.49572933  1
  O  O383  1  0.38461974  0.49092928  1.00716308  1
  O  O384  1  0.38156049  0.98920734  0.49793807  1
  O  O385  1  0.38186961  0.98763745  0.99769405  1
  O  O386  1  0.86479698  0.50048664  0.45961884  1
  O  O387  1  0.88631062  0.49971126  1.01121486  1
  O  O388  1  0.88136605  0.99482749  0.49588947  1
  O  O389  1  0.87976377  0.99756248  0.99270163  1
  O  O390  1  0.10925020  0.01481521  -0.00433705  1
  O  O391  1  0.12097611  0.00901499  0.50893775  1
  O  O392  1  0.12032187  0.50609788  0.00986215  1
  O  O393  1  0.12649523  0.51970069  0.49120467  1
  O  O394  1  0.61328801  0.00014366  -0.00117993  1
  O  O395  1  0.62962748  0.00104918  0.50849124  1
  O  O396  1  0.61513454  0.50641121  -0.00051519  1
  O  O397  1  0.61443388  0.47566505  0.50604345  1
  O  O398  1  0.36913385  0.36828760  0.11342055  1
  O  O399  1  0.36371258  0.38603464  0.61587717  1
  O  O400  1  0.36676456  0.86431255  0.11308456  1
  O  O401  1  0.36748934  0.86940747  0.61798676  1
  O  O402  1  0.86066315  0.36122704  0.13278451  1
  O  O403  1  0.86493654  0.37703018  0.62235668  1
  O  O404  1  0.87882748  0.87102093  0.10694541  1
  O  O405  1  0.86837093  0.87559478  0.61584959  1
  O  O406  1  0.13527328  0.12339189  0.38979231  1
  O  O407  1  0.11917831  0.13826542  0.87928777  1
  O  O408  1  0.13833507  0.64211915  0.38143341  1
  O  O409  1  0.13089368  0.62519374  0.88594135  1
  O  O410  1  0.63751230  0.12231531  0.37789228  1
  O  O411  1  0.62427087  0.14047103  0.87093554  1
  O  O412  1  0.62463850  0.64086919  0.37283299  1
  O  O413  1  0.62668366  0.63436681  0.87917153  1
