# generated using pymatgen
data_V79Zn79O256
_symmetry_space_group_name_H-M   'P 1'
_cell_length_a   16.91686449
_cell_length_b   16.88855214
_cell_length_c   16.93386966
_cell_angle_alpha   89.92792392
_cell_angle_beta   90.03764543
_cell_angle_gamma   90.58454929
_symmetry_Int_Tables_number   1
_chemical_formula_structural   V79Zn79O256
_chemical_formula_sum   'V79 Zn79 O256'
_cell_volume   4837.77277006
_cell_formula_units_Z   1
loop_
 _symmetry_equiv_pos_site_id
 _symmetry_equiv_pos_as_xyz
  1  'x, y, z'
loop_
 _atom_site_type_symbol
 _atom_site_label
 _atom_site_symmetry_multiplicity
 _atom_site_fract_x
 _atom_site_fract_y
 _atom_site_fract_z
 _atom_site_occupancy
  V  V0  1  0.24443210  0.25379188  0.00551421  1
  V  V1  1  0.00611152  0.87187174  0.36978109  1
  V  V2  1  0.36360253  -0.00252537  0.38904057  1
  V  V3  1  0.27818322  0.85083586  0.11808704  1
  V  V4  1  0.86473028  0.23766476  0.13876204  1
  V  V5  1  0.63167167  0.49493937  0.62291923  1
  V  V6  1  0.11401780  0.37726418  0.26219867  1
  V  V7  1  0.75246043  0.12282366  0.37367887  1
  V  V8  1  0.87432366  0.74055247  0.13007954  1
  V  V9  1  0.49941919  0.24208762  0.27349741  1
  V  V10  1  0.87501994  0.87281448  0.00150453  1
  V  V11  1  0.24538992  0.12366630  0.87965976  1
  V  V12  1  0.37549533  0.61989926  0.74933397  1
  V  V13  1  0.36787660  0.12854916  0.75447895  1
  V  V14  1  0.37909737  0.51178800  0.37787162  1
  V  V15  1  0.61085335  0.37681987  0.26983389  1
  V  V16  1  0.00237344  0.62313793  0.12046127  1
  V  V17  1  0.87709923  0.37543900  0.48892022  1
  V  V18  1  0.62864959  0.37486228  0.76634182  1
  V  V19  1  0.52049984  0.73550690  0.76392045  1
  V  V20  1  -0.00031807  0.00085548  0.00093533  1
  V  V21  1  0.62739619  0.87035950  0.75904841  1
  V  V22  1  0.38802891  0.37495636  -0.00458011  1
  V  V23  1  0.73731607  0.36322283  0.13097429  1
  V  V24  1  0.49272133  0.87571535  0.38565470  1
  V  V25  1  0.37904592  0.24669420  0.13319748  1
  V  V26  1  0.12034234  0.00715103  0.62533386  1
  V  V27  1  0.74110138  0.12994785  0.86528513  1
  V  V28  1  0.62429809  0.86894562  0.26037901  1
  V  V29  1  0.38738665  0.50320028  0.87556899  1
  V  V30  1  0.12620776  0.50737279  0.11687225  1
  V  V31  1  0.75462560  0.87082410  0.61996468  1
  V  V32  1  0.74358182  0.74856384  -0.00433909  1
  V  V33  1  0.74687634  0.62997890  0.36958156  1
  V  V34  1  -0.00426055  0.25234062  0.74872465  1
  V  V35  1  0.87606720  0.01275004  0.86984008  1
  V  V36  1  0.13206367  0.72445318  0.89600738  1
  V  V37  1  0.61133764  -0.00131696  0.12127254  1
  V  V38  1  0.24824576  0.37828790  0.12896908  1
  V  V39  1  0.49898989  0.11810533  0.62593184  1
  V  V40  1  0.37629077  0.25413535  0.62455494  1
  V  V41  1  0.75507520  0.00298797  0.25127970  1
  V  V42  1  0.23678995  0.00621737  0.75224920  1
  V  V43  1  0.12597644  0.37928489  0.74334688  1
  V  V44  1  0.87236016  0.24581237  0.62504190  1
  V  V45  1  0.88063872  0.86382977  0.49999121  1
  V  V46  1  0.12357017  0.23679821  0.38106543  1
  V  V47  1  0.37637054  0.62814896  0.23247879  1
  V  V48  1  0.62043795  0.61559091  -0.00105267  1
  V  V49  1  0.75573351  0.63317356  0.86927250  1
  V  V50  1  -0.00153515  0.12838123  0.62086386  1
  V  V51  1  0.50928741  0.49286018  0.49506782  1
  V  V52  1  0.00039097  0.74441795  0.25140114  1
  V  V53  1  0.74390279  0.24909286  0.49516589  1
  V  V54  1  0.25055340  0.38852990  0.62600435  1
  V  V55  1  0.35520771  0.11956572  0.25754377  1
  V  V56  1  0.51353850  0.62433228  0.61609993  1
  V  V57  1  0.61999436  0.12397790  0.49670035  1
  V  V58  1  0.13680831  0.62400602  0.49603504  1
  V  V59  1  0.00281104  0.49640220  0.49986429  1
  V  V60  1  0.10889636  0.86615601  0.75555380  1
  V  V61  1  0.75915183  0.50118472  0.24751507  1
  V  V62  1  0.00101527  0.64809925  0.61555580  1
  V  V63  1  0.11621127  0.26141718  0.87706612  1
  V  V64  1  0.00169498  0.00354830  0.49821010  1
  V  V65  1  0.37773013  0.37732665  0.49256600  1
  V  V66  1  0.62182049  -0.00315516  0.62287503  1
  V  V67  1  -0.00914240  0.12561118  0.13814402  1
  V  V68  1  0.50337435  0.74251804  0.24482552  1
  V  V69  1  0.25085202  0.50520985  0.26009379  1
  V  V70  1  0.50554481  0.25695556  0.76573926  1
  V  V71  1  0.88425497  0.65422624  0.73899978  1
  V  V72  1  0.12733290  -0.01167113  0.13853825  1
  V  V73  1  0.14149542  0.74549252  0.37024230  1
  V  V74  1  0.74623686  0.87507640  0.12743337  1
  V  V75  1  0.73535551  0.74460163  0.49446350  1
  V  V76  1  0.76919969  0.49937510  0.74603126  1
  V  V77  1  0.11480861  0.12827756  0.00544604  1
  V  V78  1  0.24774571  0.23956784  0.49750418  1
  Zn  Zn79  1  0.61162053  0.12062882  0.00109190  1
  Zn  Zn80  1  0.75312809  0.37261323  0.62294344  1
  Zn  Zn81  1  0.45683325  -0.01194922  -0.04860536  1
  Zn  Zn82  1  0.87962955  0.00146952  0.37133506  1
  Zn  Zn83  1  0.73264725  0.24280371  -0.00805466  1
  Zn  Zn84  1  0.75678932  0.00484728  0.74273180  1
  Zn  Zn85  1  -0.05212066  0.44728813  0.92806565  1
  Zn  Zn86  1  0.61488439  0.49976358  0.12347435  1
  Zn  Zn87  1  0.38250893  0.77128877  0.61676278  1
  Zn  Zn88  1  -0.01187908  0.25120034  0.26334980  1
  Zn  Zn89  1  0.88363552  0.50433261  0.36246565  1
  Zn  Zn90  1  0.27157752  0.87949547  0.61507205  1
  Zn  Zn91  1  0.86184522  0.36407479  0.01232128  1
  Zn  Zn92  1  -0.00741000  0.84986265  0.87587788  1
  Zn  Zn93  1  0.24722607  0.50512980  0.75703784  1
  Zn  Zn94  1  0.18187768  0.18804832  0.19158204  1
  Zn  Zn95  1  0.18299450  0.19392667  0.68410233  1
  Zn  Zn96  1  0.19111435  0.69083524  0.18631576  1
  Zn  Zn97  1  0.18968019  0.69106592  0.67395410  1
  Zn  Zn98  1  0.66828917  0.18303364  0.19476095  1
  Zn  Zn99  1  0.68734704  0.18588247  0.69113117  1
  Zn  Zn100  1  0.68270347  0.68639488  0.18363084  1
  Zn  Zn101  1  0.69393609  0.68520571  0.68001852  1
  Zn  Zn102  1  0.30854849  0.31297394  0.31553171  1
  Zn  Zn103  1  0.30839542  0.31136324  0.81556369  1
  Zn  Zn104  1  0.31322057  0.82093060  0.29737331  1
  Zn  Zn105  1  0.29147267  0.79448030  0.77880737  1
  Zn  Zn106  1  0.80514510  0.31215374  0.31258165  1
  Zn  Zn107  1  0.81635638  0.31974668  0.81365513  1
  Zn  Zn108  1  0.81730617  0.81343677  0.31396989  1
  Zn  Zn109  1  0.81344076  0.81929246  0.81275294  1
  Zn  Zn110  1  0.19002143  0.43649669  0.44160686  1
  Zn  Zn111  1  0.19688435  0.44548246  0.93605107  1
  Zn  Zn112  1  0.19043260  0.93177104  0.44284013  1
  Zn  Zn113  1  0.19812713  0.91793408  0.93389228  1
  Zn  Zn114  1  0.69456870  0.43954083  0.43502600  1
  Zn  Zn115  1  0.72355013  0.45155818  0.94462362  1
  Zn  Zn116  1  0.68571435  0.93855808  0.43946649  1
  Zn  Zn117  1  0.68931964  0.94058847  0.93905656  1
  Zn  Zn118  1  0.30631164  0.05701986  0.07050319  1
  Zn  Zn119  1  0.31374954  0.05932480  0.56786930  1
  Zn  Zn120  1  0.44739808  0.55974455  0.05492353  1
  Zn  Zn121  1  0.33817967  0.59677902  0.54848242  1
  Zn  Zn122  1  0.80578983  0.06490625  0.05618945  1
  Zn  Zn123  1  0.81376507  0.05907717  0.55754633  1
  Zn  Zn124  1  0.81534169  0.55817993  0.05938648  1
  Zn  Zn125  1  0.81947184  0.56744925  0.55903043  1
  Zn  Zn126  1  0.43808877  0.43347599  0.19251714  1
  Zn  Zn127  1  0.44311317  0.43748529  0.68703967  1
  Zn  Zn128  1  0.43126957  0.93758240  0.20164046  1
  Zn  Zn129  1  0.42229332  0.92287719  0.74642389  1
  Zn  Zn130  1  0.94509201  0.42459464  0.15340118  1
  Zn  Zn131  1  0.94720748  0.43512559  0.67212949  1
  Zn  Zn132  1  0.93939064  0.93488237  0.18852036  1
  Zn  Zn133  1  0.93857460  0.93410038  0.68594047  1
  Zn  Zn134  1  0.06783380  0.06133938  0.31528156  1
  Zn  Zn135  1  0.05426199  0.07421936  0.81443991  1
  Zn  Zn136  1  0.06076081  0.56466683  0.31297866  1
  Zn  Zn137  1  0.06548811  0.56472373  0.79961209  1
  Zn  Zn138  1  0.55934886  0.05598311  0.31264427  1
  Zn  Zn139  1  0.54127826  0.06919317  0.83031767  1
  Zn  Zn140  1  0.56560675  0.56303537  0.31423544  1
  Zn  Zn141  1  0.57296177  0.55299138  0.81904227  1
  Zn  Zn142  1  0.43165959  0.17980582  0.44206840  1
  Zn  Zn143  1  0.42166047  0.15859984  0.96233774  1
  Zn  Zn144  1  0.43415344  0.70184613  0.43588178  1
  Zn  Zn145  1  0.44486138  0.83141951  0.89565185  1
  Zn  Zn146  1  0.93517867  0.18853228  0.43687035  1
  Zn  Zn147  1  0.91100089  0.22483021  0.92626281  1
  Zn  Zn148  1  0.93410580  0.68203011  0.43135148  1
  Zn  Zn149  1  0.96868595  0.63986577  0.91111204  1
  Zn  Zn150  1  0.05174323  0.31533399  0.06579450  1
  Zn  Zn151  1  0.06425534  0.31450952  0.55984372  1
  Zn  Zn152  1  0.06601365  0.80669425  0.05766821  1
  Zn  Zn153  1  0.09398761  0.82439383  0.55180049  1
  Zn  Zn154  1  0.56248183  0.30618261  0.06938230  1
  Zn  Zn155  1  0.56440497  0.31264807  0.56792559  1
  Zn  Zn156  1  0.48059039  0.82960841  0.07080130  1
  Zn  Zn157  1  0.56396594  0.81250111  0.56128503  1
  O  O158  1  0.11167959  0.12614825  0.12035694  1
  O  O159  1  0.11059549  0.12195571  0.62401969  1
  O  O160  1  0.12207760  0.61350634  0.13169370  1
  O  O161  1  0.11468923  0.63222935  0.60897323  1
  O  O162  1  0.62200659  0.10180397  0.12947072  1
  O  O163  1  0.61912339  0.11709265  0.62130372  1
  O  O164  1  0.63669062  0.61914096  0.10492653  1
  O  O165  1  0.62170202  0.60969143  0.62707085  1
  O  O166  1  0.37053163  0.38582074  0.38771501  1
  O  O167  1  0.37419673  0.36953824  0.89245522  1
  O  O168  1  0.38265009  0.88425454  0.36743595  1
  O  O169  1  0.36413536  0.86189935  0.83039944  1
  O  O170  1  0.87233051  0.37490068  0.38549169  1
  O  O171  1  0.88925452  0.34454664  0.89627722  1
  O  O172  1  0.88782917  0.87681757  0.38247007  1
  O  O173  1  0.87660568  0.88476927  0.88669607  1
  O  O174  1  0.26337830  -0.01458228  0.37635411  1
  O  O175  1  0.23419302  0.01784081  0.86937125  1
  O  O176  1  0.26051674  0.49575617  0.36631495  1
  O  O177  1  0.27445869  0.48970326  0.86882031  1
  O  O178  1  0.75028211  0.00424421  0.36832026  1
  O  O179  1  0.76408109  0.00521221  0.87243884  1
  O  O180  1  0.75539303  0.50542875  0.36171450  1
  O  O181  1  0.75739585  0.51487072  0.84895352  1
  O  O182  1  0.23670785  0.49272721  0.14142154  1
  O  O183  1  0.26001140  0.48781681  0.62882048  1
  O  O184  1  0.22550994  1.01340152  0.13045397  1
  O  O185  1  0.23373418  1.00863906  0.63391315  1
  O  O186  1  0.74385989  0.48574792  0.13811193  1
  O  O187  1  0.74738177  0.50352054  0.63023089  1
  O  O188  1  0.74646921  0.99045424  0.13302086  1
  O  O189  1  0.74400523  0.99053961  0.62341129  1
  O  O190  1  0.01282215  0.37390668  0.24370602  1
  O  O191  1  0.01168326  0.36336913  0.73676432  1
  O  O192  1  -0.00343164  0.86379751  0.26057511  1
  O  O193  1  0.00357727  0.87958135  0.76034808  1
  O  O194  1  0.50490448  0.36639681  0.25948350  1
  O  O195  1  0.51085721  0.36463312  0.74763830  1
  O  O196  1  0.50716675  0.86217490  0.25653214  1
  O  O197  1  0.52260148  0.84796779  0.74071676  1
  O  O198  1  0.49529948  0.13871579  0.25852201  1
  O  O199  1  0.48855028  0.14100498  0.74458677  1
  O  O200  1  0.49283945  0.63444535  0.25804411  1
  O  O201  1  0.51716620  0.62620469  0.74341935  1
  O  O202  1  1.00256116  0.12643378  0.24128335  1
  O  O203  1  0.99909386  0.14170697  0.73597314  1
  O  O204  1  0.99965594  0.63690665  0.24293926  1
  O  O205  1  0.99247198  0.63143714  0.72879025  1
  O  O206  1  0.36667134  0.25220921  0.01419058  1
  O  O207  1  0.36914819  0.25849078  0.50538067  1
  O  O208  1  0.38383956  0.71948380  -0.01479465  1
  O  O209  1  0.37094203  0.70701987  0.52529687  1
  O  O210  1  0.85195967  0.24348328  0.02514214  1
  O  O211  1  0.86638628  0.25529893  0.50453419  1
  O  O212  1  0.86870691  0.76369955  0.01342230  1
  O  O213  1  0.87042914  0.76104039  0.49421382  1
  O  O214  1  0.13175692  0.25536559  0.48871141  1
  O  O215  1  0.12024968  0.24943935  0.99750750  1
  O  O216  1  0.12342386  0.73211054  0.48225424  1
  O  O217  1  0.13174696  0.73761422  0.99755918  1
  O  O218  1  0.63493334  0.23938923  0.51047703  1
  O  O219  1  0.62341308  0.23212196  1.01763025  1
  O  O220  1  0.63703862  0.75173784  0.49164120  1
  O  O221  1  0.64382657  0.73541135  1.00057038  1
  O  O222  1  0.48155275  0.25678990  0.14224059  1
  O  O223  1  0.48826649  0.24368247  0.62795329  1
  O  O224  1  0.50224199  0.74864908  0.14418049  1
  O  O225  1  0.51253751  0.72936162  0.62509003  1
  O  O226  1  0.98378344  0.24084678  0.13181413  1
  O  O227  1  0.99333027  0.24508211  0.62474227  1
  O  O228  1  0.99505267  0.74468201  0.13248727  1
  O  O229  1  1.00841959  0.74602654  0.60631353  1
  O  O230  1  0.01546849  0.24649387  0.37759772  1
  O  O231  1  0.00813599  0.24019465  0.86288604  1
  O  O232  1  0.00099231  0.75337457  0.36603956  1
  O  O233  1  0.02324678  0.73901517  0.87973400  1
  O  O234  1  0.49197953  0.25047409  0.37238778  1
  O  O235  1  0.49666887  0.24970566  0.86115166  1
  O  O236  1  0.49233597  0.76498055  0.36317373  1
  O  O237  1  0.51360240  0.74050618  0.86162308  1
  O  O238  1  0.25558391  0.14074481  0.50651267  1
  O  O239  1  0.23074552  0.13593742  0.99825522  1
  O  O240  1  0.23341324  0.60950531  0.50519259  1
  O  O241  1  0.31419209  0.69818455  0.97818685  1
  O  O242  1  0.74080579  0.12913576  0.49467098  1
  O  O243  1  0.73810656  0.11763909  0.98067199  1
  O  O244  1  0.75390726  0.63857387  0.49157802  1
  O  O245  1  0.76015298  0.63398080  0.98490375  1
  O  O246  1  0.25531962  0.37121782  0.01305010  1
  O  O247  1  0.25923514  0.37048656  0.50898240  1
  O  O248  1  0.25588422  0.89046166  0.02371609  1
  O  O249  1  0.20397184  0.86305700  0.52878066  1
  O  O250  1  0.73221234  0.36280108  0.02582931  1
  O  O251  1  0.75749589  0.36524633  0.49997133  1
  O  O252  1  0.75537275  0.86939613  0.00857373  1
  O  O253  1  0.75721184  0.86496640  0.49899179  1
  O  O254  1  0.13270401  0.49132559  0.25354023  1
  O  O255  1  0.12906147  0.48415181  0.75112303  1
  O  O256  1  0.11298991  0.99540014  0.23752663  1
  O  O257  1  0.12312640  1.01474378  0.74346401  1
  O  O258  1  0.62708940  0.48631531  0.25099842  1
  O  O259  1  0.63792081  0.49220429  0.74021128  1
  O  O260  1  0.63236275  0.98792264  0.24312846  1
  O  O261  1  0.63113976  0.98035498  0.73564467  1
  O  O262  1  0.37070987  0.01657873  0.25399774  1
  O  O263  1  0.34981658  0.02412407  0.74299523  1
  O  O264  1  0.37220317  0.50930954  0.25779834  1
  O  O265  1  0.38008154  0.50089692  0.75850653  1
  O  O266  1  0.85959458  -0.00672413  0.25128669  1
  O  O267  1  0.87881473  -0.00397029  0.76729560  1
  O  O268  1  0.85985864  0.48969942  0.24316382  1
  O  O269  1  0.86901408  0.49719709  0.73502534  1
  O  O270  1  0.12433643  0.37540280  0.36444253  1
  O  O271  1  0.12940468  0.36646396  0.86857041  1
  O  O272  1  0.11374129  0.85718182  0.38276347  1
  O  O273  1  0.11379074  0.88011909  0.86497838  1
  O  O274  1  0.62530743  0.37496452  0.36814940  1
  O  O275  1  0.64708735  0.38502526  0.86322682  1
  O  O276  1  0.61122326  0.88331584  0.36713157  1
  O  O277  1  0.63868169  0.87649441  0.85716340  1
  O  O278  1  0.36354420  0.13732457  0.14560622  1
  O  O279  1  0.37914452  0.13534412  0.63268976  1
  O  O280  1  0.38336067  0.62049300  0.13484690  1
  O  O281  1  0.40721919  0.60078432  0.64361658  1
  O  O282  1  0.87819331  0.12539361  0.12587556  1
  O  O283  1  0.88206351  0.13616815  0.61706116  1
  O  O284  1  0.87875181  0.63394310  0.12322667  1
  O  O285  1  0.88665897  0.63380072  0.62852182  1
  O  O286  1  0.25195354  0.26067092  0.12664473  1
  O  O287  1  0.26117454  0.25585700  0.61907116  1
  O  O288  1  0.25667317  0.75120230  0.11654060  1
  O  O289  1  0.27007684  0.76879449  0.66713284  1
  O  O290  1  0.74619869  0.25547650  0.14599737  1
  O  O291  1  0.75778195  0.24684892  0.61566732  1
  O  O292  1  0.75681417  0.75638617  0.12109141  1
  O  O293  1  0.74633679  0.75782604  0.60524975  1
  O  O294  1  0.23649755  0.25894769  0.38607903  1
  O  O295  1  0.23455098  0.24540214  0.88443844  1
  O  O296  1  0.23940246  0.75796103  0.36393615  1
  O  O297  1  0.22234758  0.76433844  0.86568083  1
  O  O298  1  0.74956693  0.23936717  0.38704013  1
  O  O299  1  0.75813751  0.23431069  0.87286773  1
  O  O300  1  0.75264473  0.74045043  0.37929994  1
  O  O301  1  0.75939244  0.74482783  0.88261650  1
  O  O302  1  0.00344952  0.11943932  0.01276687  1
  O  O303  1  -0.00726505  0.11492086  0.50688757  1
  O  O304  1  -0.00591513  0.62386304  0.02207079  1
  O  O305  1  0.00165265  0.62018427  0.50573935  1
  O  O306  1  0.51480571  0.09706034  -0.05345458  1
  O  O307  1  0.50821619  0.13115643  0.51388472  1
  O  O308  1  0.52093458  0.62076362  -0.00976768  1
  O  O309  1  0.50553245  0.60969057  0.51294244  1
  O  O310  1  0.48968714  0.38242281  0.50906012  1
  O  O311  1  0.48496377  0.36524361  1.00803546  1
  O  O312  1  0.49888148  0.86664845  0.48519223  1
  O  O313  1  0.49531390  0.88349044  0.97888199  1
  O  O314  1  0.99496677  0.38860964  0.50388032  1
  O  O315  1  0.97714368  0.39280218  1.03538617  1
  O  O316  1  0.99676175  0.88078882  0.49282938  1
  O  O317  1  0.99082196  0.88377427  1.00114281  1
  O  O318  1  0.49547022  0.50329276  0.38743776  1
  O  O319  1  0.48857249  0.49286437  0.86991010  1
  O  O320  1  0.48742948  0.98419348  0.36858763  1
  O  O321  1  0.47874919  0.97756984  0.83383731  1
  O  O322  1  0.99428102  0.51178480  0.39068882  1
  O  O323  1  0.99284249  0.53224049  0.87733005  1
  O  O324  1  1.00307621  0.99160594  0.38150360  1
  O  O325  1  0.98805027  1.01038846  0.88828490  1
  O  O326  1  0.00267041  0.00619645  0.11887965  1
  O  O327  1  -0.00105728  0.01160985  0.61923610  1
  O  O328  1  0.01883569  0.51113358  0.14143179  1
  O  O329  1  -0.00041419  0.51360510  0.60557372  1
  O  O330  1  0.51272815  -0.01733281  0.13095614  1
  O  O331  1  0.50809985  0.01523964  0.63747936  1
  O  O332  1  0.50275679  0.49569079  0.12727010  1
  O  O333  1  0.51611173  0.50021372  0.61796345  1
  O  O334  1  0.24497953  0.38367079  0.24563765  1
  O  O335  1  0.24233937  0.36971737  0.74099584  1
  O  O336  1  0.25664735  0.87620927  0.21588241  1
  O  O337  1  0.22155221  0.90098051  0.75259226  1
  O  O338  1  0.73448422  0.38259958  0.25118144  1
  O  O339  1  0.75029474  0.38709419  0.74538484  1
  O  O340  1  0.74361621  0.87843450  0.24793822  1
  O  O341  1  0.74378932  0.87055186  0.73535077  1
  O  O342  1  0.25683238  0.13239021  0.25981878  1
  O  O343  1  0.24687037  0.12966542  0.75905199  1
  O  O344  1  0.26613733  0.61718192  0.24457628  1
  O  O345  1  0.27353276  0.62142864  0.73354281  1
  O  O346  1  0.73490066  0.11405419  0.26347401  1
  O  O347  1  0.75711277  0.12210174  0.75769005  1
  O  O348  1  0.74414481  0.61101236  0.25430975  1
  O  O349  1  0.76747739  0.62162382  0.74308178  1
  O  O350  1  0.37599760  0.10986664  0.36876764  1
  O  O351  1  0.35439168  0.14861924  0.86060323  1
  O  O352  1  0.37908722  0.61356259  0.37334307  1
  O  O353  1  0.38286488  0.60878162  0.85799354  1
  O  O354  1  0.85805922  0.12028505  0.38138896  1
  O  O355  1  0.86973968  0.11563268  0.88206387  1
  O  O356  1  0.85705353  0.61997843  0.37413140  1
  O  O357  1  0.87018690  0.63514440  0.84569336  1
  O  O358  1  0.13133334  0.38246893  0.13832873  1
  O  O359  1  0.13775899  0.36621325  0.63256082  1
  O  O360  1  0.12010918  0.88856058  0.11887604  1
  O  O361  1  0.10396053  0.89921370  0.64635447  1
  O  O362  1  0.62922249  0.37219377  0.14362319  1
  O  O363  1  0.63255763  0.38124756  0.63567545  1
  O  O364  1  0.63832424  0.87886021  0.13849813  1
  O  O365  1  0.63589938  0.88005081  0.62193262  1
  O  O366  1  0.12674750  0.26363604  0.26353990  1
  O  O367  1  0.11693387  0.25807714  0.75779855  1
  O  O368  1  0.11681250  0.74272346  0.26260814  1
  O  O369  1  0.11904746  0.76811555  0.74082841  1
  O  O370  1  0.60676760  0.25975695  0.25505675  1
  O  O371  1  0.61342852  0.25786636  0.74612345  1
  O  O372  1  0.61599201  0.75478720  0.25118531  1
  O  O373  1  0.62959775  0.75399447  0.74594371  1
  O  O374  1  0.37998903  0.24288660  0.25512677  1
  O  O375  1  0.38214944  0.25165336  0.74136437  1
  O  O376  1  0.38396833  0.73382464  0.25294571  1
  O  O377  1  0.40517181  0.72339575  0.74380536  1
  O  O378  1  0.87210605  0.24813005  0.24569173  1
  O  O379  1  0.88359894  0.26126087  0.73450513  1
  O  O380  1  0.88254566  0.75599717  0.23712637  1
  O  O381  1  0.87768508  0.75296685  0.73979421  1
  O  O382  1  0.38584325  0.49660685  0.49531372  1
  O  O383  1  0.38006524  0.48609974  0.98955232  1
  O  O384  1  0.37334927  1.00331623  0.48914852  1
  O  O385  1  0.37064022  1.05226581  0.98507234  1
  O  O386  1  0.88252034  0.49078618  0.49879437  1
  O  O387  1  0.83819700  0.47816280  0.98446780  1
  O  O388  1  0.88587379  0.98810094  0.49697872  1
  O  O389  1  0.87995104  0.99197685  0.99557698  1
  O  O390  1  0.11196156  0.01214554  0.00738641  1
  O  O391  1  0.10914761  -0.00250064  0.51035360  1
  O  O392  1  0.13261062  0.49460454  0.01894682  1
  O  O393  1  0.11230574  0.51029731  0.48961117  1
  O  O394  1  0.62837350  -0.00781328  0.01876517  1
  O  O395  1  0.62729796  0.00772156  0.51385453  1
  O  O396  1  0.63978576  0.51252092  -0.00314467  1
  O  O397  1  0.62110501  0.48641789  0.50976693  1
  O  O398  1  0.36376075  0.36979231  0.12151196  1
  O  O399  1  0.37100361  0.36931080  0.61777323  1
  O  O400  1  0.38324947  0.86560127  0.12408258  1
  O  O401  1  0.38254436  0.88366575  0.64335104  1
  O  O402  1  0.84988853  0.36040508  0.13679231  1
  O  O403  1  0.87473277  0.36298626  0.60970838  1
  O  O404  1  0.86480149  0.87106298  0.12015745  1
  O  O405  1  0.86380935  0.88136594  0.61460784  1
  O  O406  1  0.13046326  0.13811736  0.37217027  1
  O  O407  1  0.12575066  0.13753059  0.88691496  1
  O  O408  1  0.12781967  0.63372990  0.38158045  1
  O  O409  1  0.13806214  0.62697286  0.86719347  1
  O  O410  1  0.62977985  0.11371533  0.39049934  1
  O  O411  1  0.64161714  0.11661271  0.85781891  1
  O  O412  1  0.64628043  0.61574088  0.37651122  1
  O  O413  1  0.64708352  0.62073626  0.88096356  1
