# generated using pymatgen
data_V79Zn79O256
_symmetry_space_group_name_H-M   'P 1'
_cell_length_a   16.92242787
_cell_length_b   17.00038351
_cell_length_c   16.93394659
_cell_angle_alpha   90.21454303
_cell_angle_beta   90.05348717
_cell_angle_gamma   90.06219536
_symmetry_Int_Tables_number   1
_chemical_formula_structural   V79Zn79O256
_chemical_formula_sum   'V79 Zn79 O256'
_cell_volume   4871.65006092
_cell_formula_units_Z   1
loop_
 _symmetry_equiv_pos_site_id
 _symmetry_equiv_pos_as_xyz
  1  'x, y, z'
loop_
 _atom_site_type_symbol
 _atom_site_label
 _atom_site_symmetry_multiplicity
 _atom_site_fract_x
 _atom_site_fract_y
 _atom_site_fract_z
 _atom_site_occupancy
  V  V0  1  0.49505784  0.62715228  0.10550612  1
  V  V1  1  0.50000556  0.37949378  0.88610719  1
  V  V2  1  0.63125836  0.61592722  0.51283102  1
  V  V3  1  0.11768837  0.00405514  0.62126885  1
  V  V4  1  0.11800960  -0.00201784  0.12517019  1
  V  V5  1  0.11325368  0.12535669  0.00962761  1
  V  V6  1  0.86807549  0.25753493  0.61035570  1
  V  V7  1  0.61782564  0.50206741  0.10503251  1
  V  V8  1  0.11894822  0.50765899  0.63127759  1
  V  V9  1  0.12072930  0.87866091  0.74969474  1
  V  V10  1  0.49247399  0.88581483  0.37644828  1
  V  V11  1  0.87612969  0.86976823  0.51479126  1
  V  V12  1  0.87045478  0.11956051  0.76061062  1
  V  V13  1  0.50826159  0.12592256  0.62199908  1
  V  V14  1  0.12418330  0.12888444  0.49200346  1
  V  V15  1  0.25760348  0.75275144  0.02927933  1
  V  V16  1  0.87617372  0.49900576  0.38047511  1
  V  V17  1  0.37740273  0.37562425  0.49719797  1
  V  V18  1  0.24819321  0.38373045  0.14517700  1
  V  V19  1  0.11935313  0.62735137  0.50475013  1
  V  V20  1  -0.00671327  0.25425180  0.75033072  1
  V  V21  1  0.72265351  0.74254073  0.01065799  1
  V  V22  1  0.50869334  0.49018576  0.49950234  1
  V  V23  1  0.50855878  0.35793869  0.36615445  1
  V  V24  1  0.88555060  0.62618724  0.74292742  1
  V  V25  1  0.86878326  0.38299285  0.01585426  1
  V  V26  1  0.25187006  0.88012844  0.62406421  1
  V  V27  1  0.25432426  0.37474085  0.62673137  1
  V  V28  1  0.12623248  0.25624092  0.37074593  1
  V  V29  1  0.87467193  0.23093944  0.12712936  1
  V  V30  1  0.49479860  0.25466689  0.74693536  1
  V  V31  1  -0.00564857  0.37880488  0.88422161  1
  V  V32  1  0.37819815  0.24101133  0.12424134  1
  V  V33  1  0.73411657  0.50267395  0.25090120  1
  V  V34  1  0.62576994  0.24443693  0.88001656  1
  V  V35  1  0.14697163  0.74397176  0.87225927  1
  V  V36  1  0.86229583  -0.00509787  0.36560075  1
  V  V37  1  0.36392150  0.00512211  0.38049747  1
  V  V38  1  0.24663357  0.00698070  0.24786671  1
  V  V39  1  -0.00028256  0.24037680  0.24330841  1
  V  V40  1  0.74784393  0.37981832  0.61153365  1
  V  V41  1  -0.00023471  0.74814956  0.23472839  1
  V  V42  1  0.75838435  0.75650006  0.51728148  1
  V  V43  1  0.13164831  0.87446103  0.25028004  1
  V  V44  1  0.12102550  0.74681735  0.37632506  1
  V  V45  1  0.37066226  0.50305699  0.87663441  1
  V  V46  1  0.58656904  0.74070787  0.82293523  1
  V  V47  1  0.74753917  0.63020123  0.88036795  1
  V  V48  1  0.62835187  0.38084416  0.74963131  1
  V  V49  1  0.24903712  0.75201520  0.50036428  1
  V  V50  1  0.49258142  0.74194005  0.25759524  1
  V  V51  1  0.63032027  0.87405558  0.24780940  1
  V  V52  1  0.88778851  0.84532593  0.00730392  1
  V  V53  1  0.25068451  0.50659370  0.75396112  1
  V  V54  1  0.24627144  0.00931326  0.74809876  1
  V  V55  1  0.75960505  0.86501282  0.12649531  1
  V  V56  1  0.37270467  0.37843934  0.00180946  1
  V  V57  1  0.62598288  0.13779868  0.47493368  1
  V  V58  1  -0.00953402  -0.00118709  0.00155239  1
  V  V59  1  0.88321788  0.63010445  0.24103827  1
  V  V60  1  0.36493120  0.13916363  0.73799373  1
  V  V61  1  -0.00971681  0.00305677  0.49699045  1
  V  V62  1  0.37785732  0.12083613  0.24912812  1
  V  V63  1  0.75835605  0.14112989  0.36387442  1
  V  V64  1  0.87356782  0.50202740  0.88069044  1
  V  V65  1  0.00004597  0.38026038  0.36800707  1
  V  V66  1  0.47703691  0.61261671  0.62354423  1
  V  V67  1  0.62832285  0.76138558  0.38735105  1
  V  V68  1  0.10620426  0.50705127  0.13053864  1
  V  V69  1  0.12179005  0.37992826  0.75310540  1
  V  V70  1  0.74906806  0.62914286  0.37973809  1
  V  V71  1  0.24483162  0.12636959  0.87359920  1
  V  V72  1  0.00136687  0.87696146  0.87666426  1
  V  V73  1  0.25116188  0.25032815  0.50148418  1
  V  V74  1  0.74862001  0.23881408  -0.00089897  1
  V  V75  1  -0.00196371  0.49596284  0.50359523  1
  V  V76  1  -0.00899218  0.12949677  0.62203035  1
  V  V77  1  0.12090424  0.25194837  0.87996136  1
  V  V78  1  0.00395704  0.74655757  0.74293241  1
  Zn  Zn79  1  0.75317380  0.00376925  0.22744548  1
  Zn  Zn80  1  0.40379350  0.98895465  0.88095263  1
  Zn  Zn81  1  0.74757218  0.50302671  0.74772624  1
  Zn  Zn82  1  0.12900348  0.61869195  0.00467902  1
  Zn  Zn83  1  0.72017075  0.07592018  0.83833917  1
  Zn  Zn84  1  0.24236097  0.25050256  0.00905440  1
  Zn  Zn85  1  0.51287052  0.23224365  0.25031104  1
  Zn  Zn86  1  0.36580065  0.88363354  0.01369497  1
  Zn  Zn87  1  -0.00438207  0.87275929  0.37154896  1
  Zn  Zn88  1  0.37986289  0.88089915  0.50543683  1
  Zn  Zn89  1  0.55480353  -0.03816128  0.54241726  1
  Zn  Zn90  1  0.37703898  0.63934620  0.76524910  1
  Zn  Zn91  1  0.32902997  0.54098698  0.30137070  1
  Zn  Zn92  1  0.63990222  0.35503644  0.24715304  1
  Zn  Zn93  1  0.38297807  0.76132198  0.62745994  1
  Zn  Zn94  1  0.19052703  0.19067672  0.19046285  1
  Zn  Zn95  1  0.17642296  0.19425877  0.68366793  1
  Zn  Zn96  1  0.18563843  0.67755346  0.18757986  1
  Zn  Zn97  1  0.19610072  0.68961174  0.68807389  1
  Zn  Zn98  1  0.69372506  0.17665870  0.17882793  1
  Zn  Zn99  1  0.68808195  0.19441308  0.68832292  1
  Zn  Zn100  1  0.67639572  0.68196600  0.19341787  1
  Zn  Zn101  1  0.69876550  0.68216764  0.69142807  1
  Zn  Zn102  1  0.31773072  0.30773557  0.31642771  1
  Zn  Zn103  1  0.30871021  0.31745229  0.81589560  1
  Zn  Zn104  1  0.31142179  0.70415636  0.32213016  1
  Zn  Zn105  1  0.34009716  0.81761665  0.81338790  1
  Zn  Zn106  1  0.82083815  0.32190653  0.30431333  1
  Zn  Zn107  1  0.80941828  0.31224871  0.81448047  1
  Zn  Zn108  1  0.81434746  0.80949257  0.31733473  1
  Zn  Zn109  1  0.81810160  0.80556996  0.81787344  1
  Zn  Zn110  1  0.18508868  0.43348929  0.43961851  1
  Zn  Zn111  1  0.18992591  0.43835657  0.94599833  1
  Zn  Zn112  1  0.18358723  0.93600705  0.43503770  1
  Zn  Zn113  1  0.22412212  0.91540991  0.91912125  1
  Zn  Zn114  1  0.68367790  0.43351972  0.42871976  1
  Zn  Zn115  1  0.69421775  0.42962891  0.93515703  1
  Zn  Zn116  1  0.66149602  0.94625624  0.68255644  1
  Zn  Zn117  1  0.69260514  0.91686855  0.84765541  1
  Zn  Zn118  1  0.29657059  0.06329229  0.06043467  1
  Zn  Zn119  1  0.31110956  0.06738173  0.56359510  1
  Zn  Zn120  1  0.30981079  0.56601286  0.06465192  1
  Zn  Zn121  1  0.31111539  0.56566464  0.46676201  1
  Zn  Zn122  1  0.77526320  0.02277559  0.01310130  1
  Zn  Zn123  1  0.74802988  0.01677281  0.51867441  1
  Zn  Zn124  1  0.80429082  0.56492604  0.06582566  1
  Zn  Zn125  1  0.81361332  0.56096160  0.56551375  1
  Zn  Zn126  1  0.44276460  0.43369321  0.17348403  1
  Zn  Zn127  1  0.43640745  0.43753101  0.68769932  1
  Zn  Zn128  1  0.47488633  1.01467562  0.05468582  1
  Zn  Zn129  1  0.45889084  0.93443060  0.69016529  1
  Zn  Zn130  1  0.93676853  0.44468201  0.19683291  1
  Zn  Zn131  1  0.93279152  0.43886521  0.69012958  1
  Zn  Zn132  1  0.94074690  0.93311066  0.18493668  1
  Zn  Zn133  1  0.82655767  0.93899830  0.69109495  1
  Zn  Zn134  1  0.05617125  0.06442084  0.31213024  1
  Zn  Zn135  1  0.05531382  0.06290493  0.81440450  1
  Zn  Zn136  1  0.16702635  0.55917918  0.31466936  1
  Zn  Zn137  1  0.06265987  0.56906671  0.83547972  1
  Zn  Zn138  1  0.56595941  0.05705069  0.30577029  1
  Zn  Zn139  1  0.54608885  0.05125893  0.80429370  1
  Zn  Zn140  1  0.51857735  0.53757934  0.29931456  1
  Zn  Zn141  1  0.55683760  0.56082320  0.81158972  1
  Zn  Zn142  1  0.43475593  0.18609909  0.44005929  1
  Zn  Zn143  1  0.43217660  0.19130207  0.93382361  1
  Zn  Zn144  1  0.44494781  0.69054813  0.44843787  1
  Zn  Zn145  1  0.42792073  0.69630604  0.93908022  1
  Zn  Zn146  1  0.93468507  0.18845657  0.42892149  1
  Zn  Zn147  1  0.93457750  0.18998203  0.94277964  1
  Zn  Zn148  1  0.94112042  0.68345583  0.43506724  1
  Zn  Zn149  1  0.95694467  0.68135258  0.93136885  1
  Zn  Zn150  1  0.06133270  0.32331717  0.06878408  1
  Zn  Zn151  1  0.06162735  0.31810310  0.56193702  1
  Zn  Zn152  1  0.07862325  0.81437518  0.05824015  1
  Zn  Zn153  1  0.05935658  0.81742241  0.56338185  1
  Zn  Zn154  1  0.58083885  0.30007571  0.08868763  1
  Zn  Zn155  1  0.56738047  0.30726948  0.56436942  1
  Zn  Zn156  1  0.54208188  0.82127994  0.08041644  1
  Zn  Zn157  1  0.57969792  0.78720501  0.60795521  1
  O  O158  1  0.12608614  0.12276036  0.11531512  1
  O  O159  1  0.10821766  0.12638689  0.61534327  1
  O  O160  1  0.11555867  0.61309534  0.12521109  1
  O  O161  1  0.12735464  0.61451079  0.62254338  1
  O  O162  1  0.62746907  0.09656111  0.09639779  1
  O  O163  1  0.60762511  0.12553043  0.64031632  1
  O  O164  1  0.61020585  0.60951446  0.13390314  1
  O  O165  1  0.63227340  0.62172809  0.61475233  1
  O  O166  1  0.38972086  0.36302633  0.38877786  1
  O  O167  1  0.38048045  0.37885831  0.88378389  1
  O  O168  1  0.38665968  0.88982550  0.37412038  1
  O  O169  1  0.34017875  0.89529720  0.88960847  1
  O  O170  1  0.88170049  0.39090135  0.37354264  1
  O  O171  1  0.87663805  0.38322809  0.88297864  1
  O  O172  1  0.87638823  0.88471209  0.38180628  1
  O  O173  1  0.89548739  0.85945750  0.89052411  1
  O  O174  1  0.25823415  -0.00305622  0.36863301  1
  O  O175  1  0.22902948  0.01849579  0.86058725  1
  O  O176  1  0.24842653  0.50660838  0.38259039  1
  O  O177  1  0.25678362  0.49026657  0.86512242  1
  O  O178  1  0.76265776  0.00274454  0.37912242  1
  O  O179  1  0.74609968  -0.00489227  0.90959098  1
  O  O180  1  0.75639370  0.51015424  0.37342218  1
  O  O181  1  0.75618851  0.51121299  0.87563257  1
  O  O182  1  0.26799718  0.48274713  0.13338651  1
  O  O183  1  0.23370664  0.48548351  0.63662692  1
  O  O184  1  0.23219213  1.00588685  0.13757418  1
  O  O185  1  0.23807165  0.99949449  0.62760081  1
  O  O186  1  0.73146794  0.51266541  0.14364146  1
  O  O187  1  0.75895740  0.48342369  0.63038155  1
  O  O188  1  0.75037096  0.97111294  0.11424253  1
  O  O189  1  0.74796480  0.98894636  0.62518955  1
  O  O190  1  -0.00503809  0.36838879  0.26302849  1
  O  O191  1  0.00092409  0.36908434  0.75943489  1
  O  O192  1  0.00788145  0.86534360  0.25273320  1
  O  O193  1  0.01226133  0.86811489  0.75923700  1
  O  O194  1  0.49948261  0.36390648  0.26332322  1
  O  O195  1  0.50536763  0.36935962  0.75647443  1
  O  O196  1  0.52024206  0.86083066  0.26580113  1
  O  O197  1  0.47870186  0.95644437  0.79728016  1
  O  O198  1  0.48494352  0.11811077  0.24873717  1
  O  O199  1  0.48392851  0.13549043  0.74192814  1
  O  O200  1  0.51204139  0.64537219  0.27375176  1
  O  O201  1  0.48833074  0.60842764  0.72921612  1
  O  O202  1  0.99501235  0.14186092  0.25292381  1
  O  O203  1  0.99531012  0.13646156  0.74202198  1
  O  O204  1  0.98466458  0.63261296  0.25153425  1
  O  O205  1  0.99212962  0.62953241  0.75918331  1
  O  O206  1  0.36843820  0.25264343  0.01049229  1
  O  O207  1  0.35760784  0.25263885  0.49795320  1
  O  O208  1  0.36120385  0.76006162  0.00524402  1
  O  O209  1  0.36046414  0.75937754  0.50531400  1
  O  O210  1  0.87068759  0.25853784  0.01189263  1
  O  O211  1  0.88022452  0.24950261  0.51241430  1
  O  O212  1  0.90013942  0.74642735  0.00661627  1
  O  O213  1  0.87156300  0.76014777  0.49454401  1
  O  O214  1  0.12614335  0.24660483  0.49178780  1
  O  O215  1  0.11615790  0.24545382  0.99338272  1
  O  O216  1  0.12392601  0.74692832  0.49683533  1
  O  O217  1  0.13860573  0.74840774  0.98517340  1
  O  O218  1  0.63303818  0.23258354  0.50965240  1
  O  O219  1  0.64104479  0.25644242  0.99959727  1
  O  O220  1  0.64320919  0.74693352  0.50746261  1
  O  O221  1  0.62584141  0.75870368  1.00988893  1
  O  O222  1  0.47905846  0.25079221  0.12198023  1
  O  O223  1  0.50161212  0.24448948  0.64019535  1
  O  O224  1  0.51070205  0.73257184  0.14810690  1
  O  O225  1  0.48916763  0.71845247  0.60329399  1
  O  O226  1  0.99305449  0.25656443  0.13619443  1
  O  O227  1  0.99240750  0.25103169  0.63126535  1
  O  O228  1  1.01387818  0.75285890  0.13649765  1
  O  O229  1  1.00979861  0.75299605  0.64319357  1
  O  O230  1  0.00112583  0.25912922  0.36460759  1
  O  O231  1  0.00299837  0.25926803  0.86960680  1
  O  O232  1  0.00928737  0.75021647  0.36812445  1
  O  O233  1  0.02217424  0.76042830  0.86537614  1
  O  O234  1  0.49938556  0.25331328  0.37209742  1
  O  O235  1  0.50518194  0.25949435  0.86829790  1
  O  O236  1  0.50869572  0.76199367  0.37883112  1
  O  O237  1  0.48823918  0.74154085  0.85072702  1
  O  O238  1  0.23216938  0.13597326  0.50956280  1
  O  O239  1  0.23099080  0.13024070  0.98918095  1
  O  O240  1  0.23381338  0.64232827  0.51013203  1
  O  O241  1  0.24782262  0.64571741  1.00990524  1
  O  O242  1  0.73875595  0.12790156  0.47153442  1
  O  O243  1  0.75788151  0.14013071  0.99850612  1
  O  O244  1  0.75264285  0.63346977  0.49835580  1
  O  O245  1  0.74314154  0.63474483  0.99710447  1
  O  O246  1  0.26208516  0.36756697  0.00607329  1
  O  O247  1  0.25657219  0.36961814  0.50694510  1
  O  O248  1  0.24319276  0.86039930  0.01652806  1
  O  O249  1  0.24659191  0.87424208  0.51136532  1
  O  O250  1  0.76566116  0.36382968  0.00072780  1
  O  O251  1  0.74319503  0.37861992  0.51271663  1
  O  O252  1  0.76888199  0.84333846  0.00944306  1
  O  O253  1  0.76499223  0.86188795  0.50495696  1
  O  O254  1  0.12515968  0.49764083  0.23087187  1
  O  O255  1  0.12811217  0.49818410  0.75109074  1
  O  O256  1  0.12419418  0.99761170  0.24792449  1
  O  O257  1  0.12358747  0.99877014  0.74065852  1
  O  O258  1  0.63454265  0.50772810  0.26721000  1
  O  O259  1  0.62652457  0.48502749  0.75791048  1
  O  O260  1  0.63559843  0.97685166  0.26117431  1
  O  O261  1  0.64484564  1.00381765  0.77930158  1
  O  O262  1  0.36030444  0.00831253  0.25925835  1
  O  O263  1  0.34861806  0.02204137  0.74490889  1
  O  O264  1  0.41920914  0.50309287  0.25542490  1
  O  O265  1  0.36476484  0.49161847  0.76147607  1
  O  O266  1  0.87047607  -0.01064454  0.26153416  1
  O  O267  1  0.88206863  0.02175305  0.74727797  1
  O  O268  1  0.86609845  0.51347837  0.26129116  1
  O  O269  1  0.87435168  0.51097568  0.76244174  1
  O  O270  1  0.11379963  0.36483669  0.37940943  1
  O  O271  1  0.11484421  0.36975045  0.87626128  1
  O  O272  1  0.11746661  0.86760230  0.36903414  1
  O  O273  1  0.12582111  0.87181765  0.86326255  1
  O  O274  1  0.61554003  0.36362228  0.36801091  1
  O  O275  1  0.61731628  0.36772867  0.87173021  1
  O  O276  1  0.62255824  0.86501708  0.37730336  1
  O  O277  1  0.63047117  0.82102100  0.86024205  1
  O  O278  1  0.36533924  0.13476713  0.12961777  1
  O  O279  1  0.37311847  0.13627886  0.63345233  1
  O  O280  1  0.39622134  0.61938597  0.12260052  1
  O  O281  1  0.37949599  0.61027109  0.61339898  1
  O  O282  1  0.88018319  0.13618361  0.12278288  1
  O  O283  1  0.88406546  0.14548090  0.63662435  1
  O  O284  1  0.86782774  0.61999484  0.14300372  1
  O  O285  1  0.87576867  0.61877474  0.64464666  1
  O  O286  1  0.25824936  0.26144729  0.12776625  1
  O  O287  1  0.23339662  0.26541672  0.61418975  1
  O  O288  1  0.24794990  0.75339803  0.12856289  1
  O  O289  1  0.24166021  0.76835032  0.61574300  1
  O  O290  1  0.76512788  0.24576951  0.11522682  1
  O  O291  1  0.76289735  0.25959951  0.62632442  1
  O  O292  1  0.74107717  0.74713681  0.11741612  1
  O  O293  1  0.76025076  0.74532398  0.61580125  1
  O  O294  1  0.23617394  0.25752836  0.38637178  1
  O  O295  1  0.23235029  0.24659560  0.87406462  1
  O  O296  1  0.23428805  0.76028095  0.39094998  1
  O  O297  1  0.24490042  0.76490250  0.87123745  1
  O  O298  1  0.76177233  0.23958872  0.35719011  1
  O  O299  1  0.74315257  0.25575197  0.89013967  1
  O  O300  1  0.74753492  0.74490239  0.38889827  1
  O  O301  1  0.75969935  0.73569585  0.89603394  1
  O  O302  1  0.00594610  0.11425613  -0.00858381  1
  O  O303  1  0.00126297  0.12363226  0.50400869  1
  O  O304  1  0.03343428  0.60414923  -0.05423855  1
  O  O305  1  0.01095231  0.61501972  0.49964020  1
  O  O306  1  0.49956899  0.10801855  -0.01933583  1
  O  O307  1  0.51101295  0.13886071  0.51308927  1
  O  O308  1  0.50373839  0.64398109  0.00812590  1
  O  O309  1  0.51189028  0.60752649  0.50533010  1
  O  O310  1  0.49631874  0.37032294  0.49990623  1
  O  O311  1  0.48753099  0.36575834  0.99117505  1
  O  O312  1  0.49905337  0.87966070  0.48279968  1
  O  O313  1  0.54671669  0.89805527  0.96000911  1
  O  O314  1  1.00384165  0.38834216  0.49007489  1
  O  O315  1  0.98268515  0.36759786  0.99228023  1
  O  O316  1  0.99133070  0.88475431  0.49656484  1
  O  O317  1  1.00241698  0.87884723  0.99644822  1
  O  O318  1  0.50764997  0.47253980  0.39272329  1
  O  O319  1  0.48939966  0.48611978  0.87087081  1
  O  O320  1  0.49282169  0.99005572  0.36765145  1
  O  O321  1  0.50050034  1.05211198  0.91565182  1
  O  O322  1  0.99219345  0.49378996  0.38465733  1
  O  O323  1  0.98666602  0.48325458  0.86803652  1
  O  O324  1  0.98571155  1.00611783  0.38548907  1
  O  O325  1  1.00930900  0.98549828  0.88575960  1
  O  O326  1  0.00794700  -0.00016445  0.11863070  1
  O  O327  1  -0.00115103  0.01517778  0.60877115  1
  O  O328  1  0.00770372  0.48810737  0.12072461  1
  O  O329  1  0.00860290  0.49107090  0.61914730  1
  O  O330  1  0.57096185  0.05340264  0.12553310  1
  O  O331  1  0.48265043  0.02609601  0.61748936  1
  O  O332  1  0.50859308  0.51240201  0.11108616  1
  O  O333  1  0.49938470  0.50085326  0.61152335  1
  O  O334  1  0.25769370  0.37250056  0.24451920  1
  O  O335  1  0.24109106  0.37903899  0.74464660  1
  O  O336  1  0.23207751  0.89055364  0.25423364  1
  O  O337  1  0.23799134  0.89180465  0.73955529  1
  O  O338  1  0.74922011  0.39836270  0.25758744  1
  O  O339  1  0.74168203  0.37626201  0.74830878  1
  O  O340  1  0.74603690  0.86674843  0.24307274  1
  O  O341  1  0.75664297  0.87535274  0.75663143  1
  O  O342  1  0.25662417  0.11645091  0.25170523  1
  O  O343  1  0.24371922  0.12945068  0.75181915  1
  O  O344  1  0.25209107  0.62465988  0.26236211  1
  O  O345  1  0.25905079  0.60789458  0.73916776  1
  O  O346  1  0.73924842  0.11269975  0.26010784  1
  O  O347  1  0.76609707  0.13813611  0.75256186  1
  O  O348  1  0.75462362  0.62062345  0.26381803  1
  O  O349  1  0.76653843  0.62580231  0.76294870  1
  O  O350  1  0.38028685  0.11051112  0.36910381  1
  O  O351  1  0.35258101  0.13292869  0.86386694  1
  O  O352  1  0.37091301  0.62727667  0.38882772  1
  O  O353  1  0.38125824  0.60669078  0.87852897  1
  O  O354  1  0.86381927  0.11360767  0.37479885  1
  O  O355  1  0.88228472  0.13236276  0.86039511  1
  O  O356  1  0.86576819  0.61939583  0.37136345  1
  O  O357  1  0.86814338  0.61444122  0.87737771  1
  O  O358  1  0.14347345  0.38136172  0.12381599  1
  O  O359  1  0.12698041  0.38449339  0.63362062  1
  O  O360  1  0.11923416  0.88885013  0.13696709  1
  O  O361  1  0.12866997  0.88540965  0.63081655  1
  O  O362  1  0.61124950  0.40209016  0.13757291  1
  O  O363  1  0.64070556  0.36567764  0.63544417  1
  O  O364  1  0.63305670  0.86388519  0.14474661  1
  O  O365  1  0.56856548  0.89519366  0.63780562  1
  O  O366  1  0.11195610  0.24603201  0.25858390  1
  O  O367  1  0.11084870  0.25796719  0.75870761  1
  O  O368  1  0.11995116  0.75525009  0.25860281  1
  O  O369  1  0.12702514  0.76161686  0.75364439  1
  O  O370  1  0.61470988  0.25298659  0.20047465  1
  O  O371  1  0.61661421  0.26182029  0.75968348  1
  O  O372  1  0.62850552  0.75675488  0.27015997  1
  O  O373  1  0.60729023  0.74626572  0.72075214  1
  O  O374  1  0.37471097  0.23715659  0.24089629  1
  O  O375  1  0.38200488  0.24895488  0.75830396  1
  O  O376  1  0.39425486  0.75532377  0.26205368  1
  O  O377  1  0.35557904  0.74507538  0.73488001  1
  O  O378  1  0.88474316  0.25542662  0.23512034  1
  O  O379  1  0.88522506  0.25034877  0.74732044  1
  O  O380  1  0.88300169  0.73869863  0.25600662  1
  O  O381  1  0.88888161  0.73311874  0.76124656  1
  O  O382  1  0.38670128  0.48167512  0.49870600  1
  O  O383  1  0.36595425  0.48725476  0.99050873  1
  O  O384  1  0.36619012  1.00255511  0.48506384  1
  O  O385  1  0.36988805  1.00456850  1.00053852  1
  O  O386  1  0.88591792  0.51037071  0.49198626  1
  O  O387  1  0.86398146  0.48980438  0.99625188  1
  O  O388  1  0.87514983  0.98589704  0.49184685  1
  O  O389  1  0.88994263  0.98498665  1.00699767  1
  O  O390  1  0.11427193  0.00911151  0.01213168  1
  O  O391  1  0.11282734  0.00990965  0.49907991  1
  O  O392  1  0.14404333  0.50135083  0.02536984  1
  O  O393  1  0.11855143  0.50792463  0.51053276  1
  O  O394  1  0.60638354  -0.05943583  -0.03024092  1
  O  O395  1  0.62897699  0.03333534  0.50194387  1
  O  O396  1  0.63586002  0.49756740  0.00755856  1
  O  O397  1  0.62241373  0.50568814  0.49633272  1
  O  O398  1  0.36895002  0.36269350  0.11973602  1
  O  O399  1  0.36167338  0.37624477  0.61797394  1
  O  O400  1  0.46400378  0.90160499  0.07451272  1
  O  O401  1  0.36556816  0.88456946  0.62691227  1
  O  O402  1  0.87669166  0.37970025  0.11608833  1
  O  O403  1  0.86490435  0.36497854  0.62912693  1
  O  O404  1  0.87132980  0.86543432  0.11998800  1
  O  O405  1  0.88660278  0.87465670  0.61250694  1
  O  O406  1  0.11368231  0.13812989  0.38564474  1
  O  O407  1  0.12281329  0.13767071  0.87947387  1
  O  O408  1  0.12439250  0.63806607  0.38975821  1
  O  O409  1  0.14944747  0.64617345  0.85324494  1
  O  O410  1  0.62602762  0.13533297  0.37037740  1
  O  O411  1  0.62522718  0.14569956  0.86532497  1
  O  O412  1  0.63951300  0.63966966  0.39575026  1
  O  O413  1  0.63113298  0.64425965  0.85334453  1
