# generated using pymatgen
data_V79Zn79O256
_symmetry_space_group_name_H-M   'P 1'
_cell_length_a   16.86784906
_cell_length_b   16.88442541
_cell_length_c   16.89119158
_cell_angle_alpha   89.97767908
_cell_angle_beta   89.98094248
_cell_angle_gamma   89.86067114
_symmetry_Int_Tables_number   1
_chemical_formula_structural   V79Zn79O256
_chemical_formula_sum   'V79 Zn79 O256'
_cell_volume   4810.66304830
_cell_formula_units_Z   1
loop_
 _symmetry_equiv_pos_site_id
 _symmetry_equiv_pos_as_xyz
  1  'x, y, z'
loop_
 _atom_site_type_symbol
 _atom_site_label
 _atom_site_symmetry_multiplicity
 _atom_site_fract_x
 _atom_site_fract_y
 _atom_site_fract_z
 _atom_site_occupancy
  V  V0  1  0.12088235  0.86794050  0.76580341  1
  V  V1  1  0.57219396  0.04819618  0.06968144  1
  V  V2  1  0.74100310  0.48841703  0.75096203  1
  V  V3  1  0.74619475  0.13172112  0.38682537  1
  V  V4  1  0.75495194  0.50141892  0.24425241  1
  V  V5  1  0.38958427  -0.00937393  0.88427818  1
  V  V6  1  0.61102245  0.25167861  0.86897028  1
  V  V7  1  0.51077150  0.13482104  0.62509752  1
  V  V8  1  0.11388655  0.62286952  0.49258179  1
  V  V9  1  0.74982317  0.37792750  0.11782281  1
  V  V10  1  0.62924882  0.85885330  0.24932694  1
  V  V11  1  0.12847443  0.13013184  -0.00246622  1
  V  V12  1  0.87505880  0.12374787  0.24735570  1
  V  V13  1  0.74178935  0.24684621  -0.00106999  1
  V  V14  1  0.24168766  0.49775327  0.24256552  1
  V  V15  1  0.75003009  0.63088345  0.36637497  1
  V  V16  1  0.38076295  0.13196155  0.74018117  1
  V  V17  1  0.62249430  0.86345700  0.75982799  1
  V  V18  1  -0.00149111  0.74714214  0.24663871  1
  V  V19  1  0.38955641  0.75187058  0.11111394  1
  V  V20  1  0.48690522  0.75026616  0.75566893  1
  V  V21  1  0.25788652  0.87493627  0.12275359  1
  V  V22  1  0.51383865  0.00111268  0.51054511  1
  V  V23  1  0.00297968  0.87259080  0.37398994  1
  V  V24  1  0.38040811  0.24304162  0.12184101  1
  V  V25  1  0.00303004  -0.00280082  0.50043086  1
  V  V26  1  0.37631844  0.87141756  0.50687757  1
  V  V27  1  0.01446874  0.62002199  0.12518904  1
  V  V28  1  0.25048891  0.50491265  0.75741796  1
  V  V29  1  0.26252939  0.26134236  -0.00516441  1
  V  V30  1  -0.01577106  0.37956123  0.87912318  1
  V  V31  1  0.24647432  0.62333062  0.89018092  1
  V  V32  1  0.49420915  0.23969405  0.25061787  1
  V  V33  1  0.74444603  0.87392299  0.62412030  1
  V  V34  1  0.75379005  0.36222586  0.61308304  1
  V  V35  1  0.25655571  0.00757610  0.25020762  1
  V  V36  1  0.25711530  0.12515006  0.87152018  1
  V  V37  1  0.61433074  0.61069224  0.00220024  1
  V  V38  1  0.74108486  -0.00099323  0.74535298  1
  V  V39  1  -0.00211742  0.12807123  0.62474090  1
  V  V40  1  0.12846522  0.12465420  0.49921710  1
  V  V41  1  0.74916784  0.61341001  0.88096689  1
  V  V42  1  0.37906640  0.00319432  0.37432097  1
  V  V43  1  0.87889108  0.00007254  0.37655455  1
  V  V44  1  0.62114520  0.61735982  0.50192387  1
  V  V45  1  0.11233605  0.50265420  0.61901671  1
  V  V46  1  0.47065468  0.47558070  -0.01001076  1
  V  V47  1  0.12073554  0.38050201  0.74825556  1
  V  V48  1  0.74535550  0.12197164  0.87476581  1
  V  V49  1  0.12915470  -0.00275207  0.62855232  1
  V  V50  1  0.12548370  0.25748230  0.37199291  1
  V  V51  1  0.25112529  0.86753768  0.62635503  1
  V  V52  1  0.87402908  0.25209564  0.11588207  1
  V  V53  1  0.25795784  0.12692393  0.37301365  1
  V  V54  1  0.74328159  -0.00605638  0.24829937  1
  V  V55  1  0.25280649  0.74045749  0.49497911  1
  V  V56  1  0.23605929  0.75138326  -0.00095837  1
  V  V57  1  0.62086740  0.38473144  0.24030325  1
  V  V58  1  -0.00365006  0.50592843  -0.00186973  1
  V  V59  1  0.12828125  0.00514728  0.12466988  1
  V  V60  1  0.87271095  0.12428664  0.74674529  1
  V  V61  1  0.38413011  0.37594996  0.50175978  1
  V  V62  1  0.00113677  0.25945727  0.24924968  1
  V  V63  1  0.86855936  0.62378073  0.74368178  1
  V  V64  1  0.86725368  0.74497334  0.12607075  1
  V  V65  1  0.74457618  0.74905020  0.50166095  1
  V  V66  1  0.87779844  0.86571166  0.50796917  1
  V  V67  1  -0.00738133  0.25192950  0.74568346  1
  V  V68  1  0.12567861  0.87563386  0.24867661  1
  V  V69  1  0.36544022  0.50849944  0.37678367  1
  V  V70  1  0.87968706  0.87526600  -0.00459181  1
  V  V71  1  0.51015001  0.86454688  0.37495154  1
  V  V72  1  0.87472917  0.49411885  0.38922715  1
  V  V73  1  0.12815177  0.25258243  0.87182084  1
  V  V74  1  0.50083080  0.38917587  0.36971400  1
  V  V75  1  0.25020619  0.37251477  0.62006289  1
  V  V76  1  0.73798837  0.75598512  -0.00418988  1
  V  V77  1  0.37803311  0.63564022  0.25188154  1
  V  V78  1  -0.00148499  0.12463690  0.11867960  1
  Zn  Zn79  1  0.01312140  -0.01199444  -0.01127305  1
  Zn  Zn80  1  0.37050996  0.63039565  0.74561092  1
  Zn  Zn81  1  0.25587988  -0.00329314  0.75104643  1
  Zn  Zn82  1  -0.00475219  0.37861019  0.38155190  1
  Zn  Zn83  1  -0.01619083  0.63176918  0.62030719  1
  Zn  Zn84  1  -0.01388638  0.75992953  0.75630038  1
  Zn  Zn85  1  0.50921787  0.60494427  0.13143526  1
  Zn  Zn86  1  0.87914333  -0.01217860  0.86957285  1
  Zn  Zn87  1  0.61319970  0.49170513  0.62222316  1
  Zn  Zn88  1  0.60331188  0.37306742  0.75369619  1
  Zn  Zn89  1  0.24619024  0.38156541  0.12173580  1
  Zn  Zn90  1  0.13141294  0.74370539  0.36802255  1
  Zn  Zn91  1  0.26009199  0.24792300  0.50092591  1
  Zn  Zn92  1  0.63594477  0.25946793  0.37935316  1
  Zn  Zn93  1  0.48621599  0.62925456  0.62071475  1
  Zn  Zn94  1  0.16775751  0.22762214  0.16492884  1
  Zn  Zn95  1  0.18873262  0.18877445  0.68829245  1
  Zn  Zn96  1  0.19361896  0.68500551  0.18720891  1
  Zn  Zn97  1  0.17841226  0.68822179  0.68354725  1
  Zn  Zn98  1  0.68056972  0.18971592  0.19047626  1
  Zn  Zn99  1  0.68236779  0.19047062  0.68704425  1
  Zn  Zn100  1  0.68162224  0.68696164  0.18372819  1
  Zn  Zn101  1  0.69031181  0.68807101  0.68503797  1
  Zn  Zn102  1  0.31620221  0.31489848  0.30966823  1
  Zn  Zn103  1  0.31968194  0.31474444  0.80407972  1
  Zn  Zn104  1  0.31694428  0.81646671  0.31397134  1
  Zn  Zn105  1  0.30954576  0.81265019  0.81727430  1
  Zn  Zn106  1  0.81255244  0.31485438  0.30816262  1
  Zn  Zn107  1  0.80698925  0.30700651  0.81033975  1
  Zn  Zn108  1  0.81710084  0.81126735  0.31421795  1
  Zn  Zn109  1  0.80367913  0.80657630  0.81669245  1
  Zn  Zn110  1  0.19065212  0.44022739  0.43438204  1
  Zn  Zn111  1  0.17589397  0.44375377  0.93892954  1
  Zn  Zn112  1  0.18959272  0.93465256  0.43728641  1
  Zn  Zn113  1  0.19993413  0.94166668  0.94080162  1
  Zn  Zn114  1  0.68905443  0.43953104  0.43346859  1
  Zn  Zn115  1  0.67651428  0.43235497  0.93821380  1
  Zn  Zn116  1  0.69188019  0.93975749  0.43592255  1
  Zn  Zn117  1  0.65882838  0.93604752  0.94620437  1
  Zn  Zn118  1  0.32121369  0.06846683  0.06402903  1
  Zn  Zn119  1  0.31679497  0.05902965  0.55913702  1
  Zn  Zn120  1  0.32219959  0.56128181  0.06590881  1
  Zn  Zn121  1  0.30923394  0.55943687  0.56781784  1
  Zn  Zn122  1  0.77750842  0.04368987  0.05139106  1
  Zn  Zn123  1  0.81100378  0.05949124  0.56460665  1
  Zn  Zn124  1  0.81953021  0.56128763  0.06091674  1
  Zn  Zn125  1  0.79938987  0.55463786  0.56485623  1
  Zn  Zn126  1  0.42677738  0.43466853  0.17849392  1
  Zn  Zn127  1  0.43366644  0.45096505  0.68100008  1
  Zn  Zn128  1  0.44333846  0.93391489  0.19004273  1
  Zn  Zn129  1  0.43853600  0.94099037  0.69547520  1
  Zn  Zn130  1  0.93318048  0.44022368  0.18647303  1
  Zn  Zn131  1  0.92734516  0.44358380  0.68864143  1
  Zn  Zn132  1  0.93352716  0.93453359  0.17935230  1
  Zn  Zn133  1  0.93893824  0.93773343  0.68901955  1
  Zn  Zn134  1  0.06694255  0.06726587  0.31011577  1
  Zn  Zn135  1  0.06284313  0.05895715  0.81399511  1
  Zn  Zn136  1  0.05595400  0.55966822  0.31221551  1
  Zn  Zn137  1  0.04230576  0.60973558  0.83914677  1
  Zn  Zn138  1  0.56414661  0.05731462  0.31585757  1
  Zn  Zn139  1  0.56256214  0.06231214  0.81039642  1
  Zn  Zn140  1  0.56483012  0.56813402  0.31291047  1
  Zn  Zn141  1  0.55874630  0.56676169  0.81955763  1
  Zn  Zn142  1  0.47519572  0.20911736  0.45654185  1
  Zn  Zn143  1  0.44304069  0.16709814  0.94824033  1
  Zn  Zn144  1  0.43705453  0.68751088  0.43867062  1
  Zn  Zn145  1  0.43470180  0.68448579  0.92654117  1
  Zn  Zn146  1  0.93816585  0.19071029  0.43825331  1
  Zn  Zn147  1  0.93642890  0.18498743  0.93208633  1
  Zn  Zn148  1  0.93229909  0.68341678  0.43026742  1
  Zn  Zn149  1  0.92769376  0.69061014  0.93561053  1
  Zn  Zn150  1  0.07719425  0.34275324  0.05118993  1
  Zn  Zn151  1  0.06591653  0.30995625  0.55961080  1
  Zn  Zn152  1  0.06076771  0.81341204  0.06459457  1
  Zn  Zn153  1  0.06145020  0.80378729  0.57093975  1
  Zn  Zn154  1  0.55941119  0.31155811  0.05957216  1
  Zn  Zn155  1  0.57921873  0.30962252  0.56251326  1
  Zn  Zn156  1  0.56696717  0.83414945  0.05786595  1
  Zn  Zn157  1  0.56283765  0.80779603  0.56902760  1
  O  O158  1  0.11735748  0.12588098  0.11922150  1
  O  O159  1  0.12061912  0.11670685  0.62167795  1
  O  O160  1  0.11365223  0.63050377  0.12249434  1
  O  O161  1  0.12364380  0.61594449  0.61229091  1
  O  O162  1  0.62729924  0.11404939  0.12822669  1
  O  O163  1  0.61043324  0.12155255  0.63124797  1
  O  O164  1  0.62116657  0.62886297  0.10955784  1
  O  O165  1  0.63549533  0.62476755  0.60650606  1
  O  O166  1  0.37845467  0.39118721  0.38031224  1
  O  O167  1  0.42631816  0.36747267  0.82692282  1
  O  O168  1  0.38678395  0.88212575  0.38395585  1
  O  O169  1  0.36621847  0.89243620  0.87399194  1
  O  O170  1  0.86977739  0.38961599  0.37153207  1
  O  O171  1  0.88657580  0.37429230  0.86133976  1
  O  O172  1  0.88272611  0.88303694  0.38302323  1
  O  O173  1  0.87116447  0.86792681  0.88904453  1
  O  O174  1  0.25728015  0.00430137  0.37006653  1
  O  O175  1  0.25640946  0.01536923  0.87276646  1
  O  O176  1  0.26076511  0.50474464  0.36575590  1
  O  O177  1  0.24230928  0.50561760  0.86625018  1
  O  O178  1  0.76359104  0.00920015  0.37167641  1
  O  O179  1  0.75586081  0.00987906  0.86198271  1
  O  O180  1  0.75745151  0.50775878  0.36658182  1
  O  O181  1  0.74085203  0.50558265  0.86973919  1
  O  O182  1  0.25575787  0.49990936  0.13660482  1
  O  O183  1  0.23636439  0.48989297  0.63348500  1
  O  O184  1  0.25165352  0.99491395  0.13126534  1
  O  O185  1  0.24101696  0.99066955  0.62223512  1
  O  O186  1  0.75862529  0.48876858  0.12938009  1
  O  O187  1  0.73502550  0.49085778  0.63925365  1
  O  O188  1  0.76772615  0.99262902  0.15246909  1
  O  O189  1  0.75500644  0.98942528  0.63443625  1
  O  O190  1  -0.00762136  0.36168439  0.25083401  1
  O  O191  1  0.00287124  0.37117945  0.75256943  1
  O  O192  1  0.00522247  0.86806783  0.25071815  1
  O  O193  1  0.01480143  0.87789833  0.75140674  1
  O  O194  1  0.50670020  0.38083860  0.25084283  1
  O  O195  1  0.47141859  0.37030059  0.76104764  1
  O  O196  1  0.51510779  0.87898566  0.26668741  1
  O  O197  1  0.51591547  0.86689361  0.74182293  1
  O  O198  1  0.50557407  0.14234219  0.26482514  1
  O  O199  1  0.49057466  0.11732093  0.73598968  1
  O  O200  1  0.48647843  0.61992038  0.24557295  1
  O  O201  1  0.49637447  0.63997787  0.75503208  1
  O  O202  1  0.99173495  0.12735193  0.24108398  1
  O  O203  1  0.99412756  0.13159481  0.74317524  1
  O  O204  1  1.00393062  0.63712789  0.23878520  1
  O  O205  1  0.97094970  0.60169020  0.74956663  1
  O  O206  1  0.37498056  0.24282305  0.00769898  1
  O  O207  1  0.37739152  0.27151462  0.48961105  1
  O  O208  1  0.36843686  0.74591541  0.01027129  1
  O  O209  1  0.36336271  0.75825651  0.49675062  1
  O  O210  1  0.86723310  0.24507041  0.01079127  1
  O  O211  1  0.91098956  0.28450287  0.50328108  1
  O  O212  1  0.86663372  0.75587304  0.00785620  1
  O  O213  1  0.86754779  0.76048087  0.49204046  1
  O  O214  1  0.12883350  0.24059703  0.48958835  1
  O  O215  1  0.13802000  0.24736329  0.98821111  1
  O  O216  1  0.13374200  0.73958375  0.49766561  1
  O  O217  1  0.13726526  0.74947679  1.00704321  1
  O  O218  1  0.58511329  0.24145404  0.47703340  1
  O  O219  1  0.63597606  0.24852579  0.99221767  1
  O  O220  1  0.63939805  0.74629596  0.49859516  1
  O  O221  1  0.63663520  0.74848115  1.00822704  1
  O  O222  1  0.49219148  0.25510305  0.13774465  1
  O  O223  1  0.49913559  0.23339533  0.61781942  1
  O  O224  1  0.48886935  0.76611004  0.11082561  1
  O  O225  1  0.50758828  0.74341949  0.64225426  1
  O  O226  1  0.99078266  0.24002845  0.13271321  1
  O  O227  1  1.01103129  0.23724889  0.63477088  1
  O  O228  1  0.99436971  0.74147365  0.12917893  1
  O  O229  1  1.00648576  0.74054861  0.64429893  1
  O  O230  1  0.00744715  0.24784542  0.36432444  1
  O  O231  1  0.00430410  0.25673328  0.86147913  1
  O  O232  1  -0.00238374  0.75394114  0.36115374  1
  O  O233  1  0.00433345  0.71730491  0.86084986  1
  O  O234  1  0.48645238  0.27383519  0.35535761  1
  O  O235  1  0.51471257  0.23225149  0.88463856  1
  O  O236  1  0.49723890  0.76650144  0.37990778  1
  O  O237  1  0.49603806  0.75479232  0.85806108  1
  O  O238  1  0.24776239  0.12683131  0.49205056  1
  O  O239  1  0.24863485  0.13549157  0.98673870  1
  O  O240  1  0.24393549  0.63756612  0.50193057  1
  O  O241  1  0.25454104  0.63363675  0.99641193  1
  O  O242  1  0.76233940  0.12461934  0.48636336  1
  O  O243  1  0.76323267  0.13680955  0.98460963  1
  O  O244  1  0.74417599  0.63167434  0.49051394  1
  O  O245  1  0.74361472  0.62420088  0.99466124  1
  O  O246  1  0.24791988  0.36351101  -0.00936601  1
  O  O247  1  0.25894575  0.37559320  0.50451416  1
  O  O248  1  0.24889335  0.86342957  0.01134240  1
  O  O249  1  0.25677914  0.86793456  0.50656437  1
  O  O250  1  0.74474983  0.36503940  0.00957770  1
  O  O251  1  0.73559600  0.37327342  0.51324020  1
  O  O252  1  0.75337897  0.85784783  -0.00397615  1
  O  O253  1  0.75772732  0.87044726  0.50408103  1
  O  O254  1  0.14304395  0.51421811  0.25580560  1
  O  O255  1  0.12887568  0.48826798  0.74020585  1
  O  O256  1  0.13482951  0.99608355  0.24391145  1
  O  O257  1  0.12804804  0.99404242  0.74030492  1
  O  O258  1  0.63589920  0.49338570  0.25079314  1
  O  O259  1  0.63049098  0.49620103  0.75723328  1
  O  O260  1  0.64059705  0.99424724  0.25646160  1
  O  O261  1  0.63617356  0.98871524  0.75183500  1
  O  O262  1  0.36748547  -0.01074540  0.26357645  1
  O  O263  1  0.37272216  0.00923015  0.76113332  1
  O  O264  1  0.36770916  0.50953582  0.25883025  1
  O  O265  1  0.35090477  0.49703855  0.74891920  1
  O  O266  1  0.87566195  0.00282355  0.26175327  1
  O  O267  1  0.86780811  0.00856556  0.74994684  1
  O  O268  1  0.85915923  0.49958457  0.25492689  1
  O  O269  1  0.84844347  0.50720541  0.75172598  1
  O  O270  1  0.11760474  0.36253265  0.38726280  1
  O  O271  1  0.11372768  0.37165349  0.86302701  1
  O  O272  1  0.11915433  0.87368999  0.36749800  1
  O  O273  1  0.13397675  0.88660644  0.86372506  1
  O  O274  1  0.61633751  0.38043299  0.36241450  1
  O  O275  1  0.61929470  0.35756038  0.87409520  1
  O  O276  1  0.61472169  0.87734446  0.37608286  1
  O  O277  1  0.63476065  0.87273660  0.85842176  1
  O  O278  1  0.37853106  0.14043573  0.12956935  1
  O  O279  1  0.37842876  0.11655504  0.63599048  1
  O  O280  1  0.38352839  0.64110682  0.13158010  1
  O  O281  1  0.37065348  0.62522483  0.63175246  1
  O  O282  1  0.88056909  0.13002218  0.13298835  1
  O  O283  1  0.88822802  0.11817209  0.63206886  1
  O  O284  1  0.88785069  0.64036438  0.11703858  1
  O  O285  1  0.86373858  0.61793123  0.63793481  1
  O  O286  1  0.26518509  0.23928375  0.10681414  1
  O  O287  1  0.24388136  0.26717733  0.62309827  1
  O  O288  1  0.25814496  0.75637155  0.11598355  1
  O  O289  1  0.24216872  0.76049303  0.61149318  1
  O  O290  1  0.75474278  0.25334782  0.11922029  1
  O  O291  1  0.74800672  0.26184903  0.63060070  1
  O  O292  1  0.76214614  0.73927375  0.11470200  1
  O  O293  1  0.75350544  0.76022466  0.61328835  1
  O  O294  1  0.24467277  0.24219598  0.37119379  1
  O  O295  1  0.25210982  0.24630775  0.87448337  1
  O  O296  1  0.24856695  0.75766153  0.38968565  1
  O  O297  1  0.25064557  0.74342387  0.89257954  1
  O  O298  1  0.75305343  0.23611330  0.36769053  1
  O  O299  1  0.74206368  0.24356333  0.88094781  1
  O  O300  1  0.75885904  0.73582602  0.38019568  1
  O  O301  1  0.74974961  0.73392823  0.89116154  1
  O  O302  1  0.00749755  0.13377562  0.00992745  1
  O  O303  1  0.00540837  0.11865897  0.50729645  1
  O  O304  1  0.00077993  0.61235177  0.00735052  1
  O  O305  1  0.01008018  0.63244478  0.50194137  1
  O  O306  1  0.51742701  0.10635567  0.00816814  1
  O  O307  1  0.48871788  0.10790180  0.51392486  1
  O  O308  1  0.51044619  0.62757579  -0.00311383  1
  O  O309  1  0.51880773  0.63670632  0.49777757  1
  O  O310  1  0.48741072  0.38232250  0.49001755  1
  O  O311  1  0.49127864  0.37583263  0.99578429  1
  O  O312  1  0.49642678  0.88139676  0.49590949  1
  O  O313  1  0.56004622  0.93503073  1.01069889  1
  O  O314  1  0.97020470  0.34190194  0.49826222  1
  O  O315  1  0.98989022  0.35875222  0.97913606  1
  O  O316  1  0.99629698  0.87625781  0.49671035  1
  O  O317  1  0.98708673  0.87387052  1.00080217  1
  O  O318  1  0.48756456  0.49522164  0.36810292  1
  O  O319  1  0.50071783  0.50420254  0.89528120  1
  O  O320  1  0.49416013  0.99506260  0.38669165  1
  O  O321  1  0.48982617  1.00097326  0.87106257  1
  O  O322  1  0.98124029  0.49829231  0.37078572  1
  O  O323  1  1.00216077  0.49096878  0.88902025  1
  O  O324  1  0.99662311  0.99596539  0.37907801  1
  O  O325  1  0.98595764  1.02468332  0.88667270  1
  O  O326  1  0.00622911  0.01020862  0.12059873  1
  O  O327  1  0.01022487  0.00773412  0.62104470  1
  O  O328  1  -0.00179961  0.51659483  0.12998186  1
  O  O329  1  0.00901529  0.50081583  0.62623202  1
  O  O330  1  0.50828648  0.00639524  0.13875766  1
  O  O331  1  0.49938654  -0.00283236  0.61261443  1
  O  O332  1  0.48161630  0.49881910  0.09984766  1
  O  O333  1  0.50446811  0.51587184  0.62995392  1
  O  O334  1  0.25261997  0.39446093  0.25516309  1
  O  O335  1  0.24065060  0.38214612  0.74496958  1
  O  O336  1  0.24612693  0.88262045  0.24267154  1
  O  O337  1  0.24131781  0.87666106  0.74052596  1
  O  O338  1  0.74052337  0.38132395  0.24050627  1
  O  O339  1  0.74388698  0.38370815  0.75140604  1
  O  O340  1  0.74062974  0.88512873  0.27095032  1
  O  O341  1  0.74614835  0.87836177  0.74309818  1
  O  O342  1  0.24771968  0.11117581  0.25965814  1
  O  O343  1  0.25914843  0.12433240  0.75495603  1
  O  O344  1  0.26897364  0.61763199  0.24314294  1
  O  O345  1  0.23912878  0.61090868  0.75122142  1
  O  O346  1  0.76141110  0.11375851  0.25835239  1
  O  O347  1  0.75588911  0.11829153  0.74875406  1
  O  O348  1  0.74137256  0.61894520  0.26008968  1
  O  O349  1  0.74659139  0.61648207  0.76266219  1
  O  O350  1  0.36529558  0.11317302  0.38296946  1
  O  O351  1  0.37162158  0.11977592  0.86416877  1
  O  O352  1  0.38075263  0.61870214  0.36470434  1
  O  O353  1  0.35201048  0.63034330  0.86242538  1
  O  O354  1  0.87445923  0.11846098  0.36816386  1
  O  O355  1  0.86282087  0.13227467  0.85795581  1
  O  O356  1  0.85944269  0.61227554  0.37579468  1
  O  O357  1  0.85468753  0.61807753  0.87217019  1
  O  O358  1  0.14135826  0.33788120  0.13837476  1
  O  O359  1  0.12783130  0.38195905  0.62657421  1
  O  O360  1  0.13533585  0.88318777  0.12889231  1
  O  O361  1  0.13198763  0.88298673  0.62940783  1
  O  O362  1  0.63532943  0.36837752  0.13187884  1
  O  O363  1  0.62874131  0.37398294  0.63781212  1
  O  O364  1  0.62988822  0.86943723  0.15122269  1
  O  O365  1  0.63978439  0.87370625  0.63193108  1
  O  O366  1  0.11266000  0.23706872  0.26427919  1
  O  O367  1  0.11723564  0.26111919  0.75159734  1
  O  O368  1  0.11845387  0.75596231  0.24826981  1
  O  O369  1  0.13295041  0.76699797  0.75457815  1
  O  O370  1  0.61258376  0.26308105  0.25480589  1
  O  O371  1  0.62069108  0.25145819  0.76437689  1
  O  O372  1  0.63576615  0.75899525  0.25953107  1
  O  O373  1  0.62856288  0.76078712  0.75028685  1
  O  O374  1  0.38531494  0.24987251  0.24160811  1
  O  O375  1  0.37461767  0.23134852  0.74731402  1
  O  O376  1  0.37228192  0.74065383  0.24389373  1
  O  O377  1  0.38289486  0.75815399  0.74694846  1
  O  O378  1  0.88033256  0.23923099  0.24354486  1
  O  O379  1  0.88462006  0.24129413  0.74785481  1
  O  O380  1  0.88281402  0.75707508  0.23497674  1
  O  O381  1  0.86470866  0.72852560  0.75579607  1
  O  O382  1  0.36606713  0.49747121  0.48349136  1
  O  O383  1  0.36929371  0.49296600  0.98778392  1
  O  O384  1  0.37991457  0.98724005  0.49109142  1
  O  O385  1  0.37228822  1.00832292  0.98418726  1
  O  O386  1  0.86705041  0.50014737  0.48891822  1
  O  O387  1  0.89769899  0.48730281  1.01557988  1
  O  O388  1  0.88258465  0.99149064  0.49206020  1
  O  O389  1  0.86461940  0.97871301  1.00395846  1
  O  O390  1  0.13060883  0.01078702  0.00729923  1
  O  O391  1  0.12248128  0.00337685  0.50781792  1
  O  O392  1  0.09492510  0.46434084  0.01778682  1
  O  O393  1  0.13107438  0.51423483  0.50383298  1
  O  O394  1  0.66990738  0.01996831  0.01707313  1
  O  O395  1  0.61279993  -0.00214100  0.49795997  1
  O  O396  1  0.61974044  0.50907150  0.00433985  1
  O  O397  1  0.62782634  0.51391845  0.49922368  1
  O  O398  1  0.36130955  0.35351766  0.13009510  1
  O  O399  1  0.36668802  0.38753392  0.60779779  1
  O  O400  1  0.36652397  0.86289440  0.13481958  1
  O  O401  1  0.36507422  0.88350138  0.61562380  1
  O  O402  1  0.86301549  0.36088429  0.13386133  1
  O  O403  1  0.85252140  0.38341801  0.62859939  1
  O  O404  1  0.87773789  0.85738382  0.11228379  1
  O  O405  1  0.86967672  0.88078240  0.61326055  1
  O  O406  1  0.13672086  0.12849844  0.38113910  1
  O  O407  1  0.13641154  0.13328553  0.87431549  1
  O  O408  1  0.11990878  0.62505846  0.38852482  1
  O  O409  1  0.14603409  0.62216992  0.87811231  1
  O  O410  1  0.64567092  0.12051867  0.37236563  1
  O  O411  1  0.63928383  0.13243101  0.86423299  1
  O  O412  1  0.64073982  0.62024808  0.38481823  1
  O  O413  1  0.63594621  0.62528587  0.89259275  1
