# generated using pymatgen
data_V79Zn79O256
_symmetry_space_group_name_H-M   'P 1'
_cell_length_a   16.92845954
_cell_length_b   16.90408756
_cell_length_c   16.90226327
_cell_angle_alpha   89.92414690
_cell_angle_beta   90.07177917
_cell_angle_gamma   90.01730122
_symmetry_Int_Tables_number   1
_chemical_formula_structural   V79Zn79O256
_chemical_formula_sum   'V79 Zn79 O256'
_cell_volume   4836.74614860
_cell_formula_units_Z   1
loop_
 _symmetry_equiv_pos_site_id
 _symmetry_equiv_pos_as_xyz
  1  'x, y, z'
loop_
 _atom_site_type_symbol
 _atom_site_label
 _atom_site_symmetry_multiplicity
 _atom_site_fract_x
 _atom_site_fract_y
 _atom_site_fract_z
 _atom_site_occupancy
  V  V0  1  0.75039184  0.62278671  0.37530927  1
  V  V1  1  0.61580395  0.50224687  0.12483657  1
  V  V2  1  0.75059383  0.37564134  0.62259398  1
  V  V3  1  0.74436158  0.74955691  -0.00850606  1
  V  V4  1  0.37585082  0.49377668  0.38887903  1
  V  V5  1  -0.00205462  -0.00083506  0.00195388  1
  V  V6  1  0.12245349  0.61974553  0.50588320  1
  V  V7  1  0.62361810  0.12510572  0.49866485  1
  V  V8  1  0.51330692  0.00739306  -0.00089445  1
  V  V9  1  0.24786375  0.62476891  0.37745288  1
  V  V10  1  0.00107788  0.12553981  0.12654926  1
  V  V11  1  0.12770413  0.49436550  0.11666306  1
  V  V12  1  0.75972997  0.12321183  0.37604286  1
  V  V13  1  0.25298612  0.12565715  0.38292303  1
  V  V14  1  0.12415266  0.37603076  0.24987613  1
  V  V15  1  0.76032498  0.75060187  0.50268938  1
  V  V16  1  0.75825860  0.86867904  0.62405385  1
  V  V17  1  0.12927546  0.25155223  0.37947933  1
  V  V18  1  0.12453332  0.75950159  0.37074398  1
  V  V19  1  0.74068443  0.37350883  0.12567295  1
  V  V20  1  0.75574334  0.25665007  0.50123656  1
  V  V21  1  0.49470635  0.63600882  0.62681321  1
  V  V22  1  0.74434275  0.49521635  0.24875509  1
  V  V23  1  0.00252797  0.87349380  0.87506679  1
  V  V24  1  0.75503723  0.49155349  0.75469426  1
  V  V25  1  0.25158273  0.49502794  0.24275037  1
  V  V26  1  0.75353603  -0.00111502  0.25787359  1
  V  V27  1  0.49791384  0.12434182  0.63314562  1
  V  V28  1  -0.00382301  0.76127233  0.73508060  1
  V  V29  1  0.62114647  0.62581756  -0.00471878  1
  V  V30  1  0.25408853  0.00398709  0.25117790  1
  V  V31  1  0.00365281  0.75521386  0.24957816  1
  V  V32  1  0.61456162  0.49603703  0.62739449  1
  V  V33  1  0.88645788  0.48925663  0.38438529  1
  V  V34  1  0.88349652  0.12806871  0.75193727  1
  V  V35  1  0.37723967  0.00183381  0.37116643  1
  V  V36  1  -0.00421390  0.49977235  -0.00612297  1
  V  V37  1  0.62114219  0.24150701  0.86246017  1
  V  V38  1  0.62438664  0.25723112  0.36913655  1
  V  V39  1  -0.00177660  0.61121559  0.62292402  1
  V  V40  1  0.37602850  0.88276505  0.00064055  1
  V  V41  1  0.50063163  0.25737601  0.24636736  1
  V  V42  1  0.12272026  0.24175878  0.86535540  1
  V  V43  1  0.34825063  0.12129830  0.75932413  1
  V  V44  1  0.25131761  0.74959114  0.00253360  1
  V  V45  1  0.09566446  0.12096553  0.49594134  1
  V  V46  1  0.87443028  0.87373380  -0.00065704  1
  V  V47  1  0.12761938  0.01231843  0.62197576  1
  V  V48  1  0.62137956  0.74813692  0.37109392  1
  V  V49  1  0.62258771  0.87656083  0.24919229  1
  V  V50  1  0.87346934  0.24854282  0.12668202  1
  V  V51  1  0.13799100  0.88486054  0.74236867  1
  V  V52  1  0.12370389  -0.00665424  0.13515133  1
  V  V53  1  0.87201741  0.74678387  0.12531705  1
  V  V54  1  0.50104612  0.87221900  0.87834048  1
  V  V55  1  0.26585343  0.62601416  0.86451006  1
  V  V56  1  0.62242263  0.61909522  0.50006931  1
  V  V57  1  0.38653850  0.62785861  0.24397160  1
  V  V58  1  0.87543330  0.62111002  0.24939574  1
  V  V59  1  0.25901878  0.76300535  0.50610497  1
  V  V60  1  0.87331869  0.37809795  -0.00442608  1
  V  V61  1  0.36643995  0.24995745  0.60309727  1
  V  V62  1  0.62463309  0.86490171  0.75858403  1
  V  V63  1  0.49541503  0.37431211  0.38859322  1
  V  V64  1  -0.01522788  0.88316394  0.38611265  1
  V  V65  1  0.49736021  0.49898433  -0.01254006  1
  V  V66  1  0.89321232  0.25046039  0.62758126  1
  V  V67  1  0.25047721  0.87082515  0.13496448  1
  V  V68  1  0.75595098  0.62247488  0.87257933  1
  V  V69  1  0.49777817  0.87147668  0.37483359  1
  V  V70  1  0.36697439  0.37634505  -0.00735427  1
  V  V71  1  0.62744090  -0.00423751  0.62890211  1
  V  V72  1  0.36474439  0.24784673  0.12710522  1
  V  V73  1  0.00152753  0.36945043  0.86599601  1
  V  V74  1  -0.00089483  0.25631101  0.25738791  1
  V  V75  1  0.49509847  -0.00626164  0.49973937  1
  V  V76  1  0.74081523  0.23600571  -0.00513904  1
  V  V77  1  0.74537746  0.88016283  0.12686961  1
  V  V78  1  0.51163525  0.12016854  0.13091115  1
  Zn  Zn79  1  0.50636923  0.37606309  0.86280933  1
  Zn  Zn80  1  0.13223154  0.12535474  -0.00040648  1
  Zn  Zn81  1  0.74662193  0.01353396  0.76368772  1
  Zn  Zn82  1  0.24525729  0.37641954  0.62888009  1
  Zn  Zn83  1  0.87522651  0.62807947  0.74637530  1
  Zn  Zn84  1  0.49375365  0.25968560  0.74543239  1
  Zn  Zn85  1  0.12762889  0.75053137  0.87277560  1
  Zn  Zn86  1  0.39782079  0.74962855  0.13162232  1
  Zn  Zn87  1  0.49172519  0.74381712  0.75513506  1
  Zn  Zn88  1  0.24275175  0.26798632  -0.00386337  1
  Zn  Zn89  1  0.00324181  0.62432868  0.12080009  1
  Zn  Zn90  1  0.24283477  0.50104927  0.74166917  1
  Zn  Zn91  1  0.12545412  0.62529855  -0.00318766  1
  Zn  Zn92  1  0.88131840  0.11869176  0.26002290  1
  Zn  Zn93  1  0.87316836  0.00849714  0.87232738  1
  Zn  Zn94  1  0.18510010  0.18424459  0.19136671  1
  Zn  Zn95  1  0.17806192  0.20341781  0.67567673  1
  Zn  Zn96  1  0.18905468  0.68141923  0.18630121  1
  Zn  Zn97  1  0.18626041  0.69804199  0.68600977  1
  Zn  Zn98  1  0.68689368  0.18458551  0.18829548  1
  Zn  Zn99  1  0.69119941  0.18640902  0.68961200  1
  Zn  Zn100  1  0.67985179  0.68679757  0.18383557  1
  Zn  Zn101  1  0.68392624  0.68546918  0.68880760  1
  Zn  Zn102  1  0.31210346  0.31208579  0.31103542  1
  Zn  Zn103  1  0.31129408  0.29596670  0.80898601  1
  Zn  Zn104  1  0.31485964  0.81168786  0.31689513  1
  Zn  Zn105  1  0.31555150  0.81737631  0.82016244  1
  Zn  Zn106  1  0.81039395  0.31333943  0.31176425  1
  Zn  Zn107  1  0.81173918  0.30646639  0.81227449  1
  Zn  Zn108  1  0.81173053  0.81029559  0.31547064  1
  Zn  Zn109  1  0.81486843  0.81811148  0.81020035  1
  Zn  Zn110  1  0.18747302  0.43726468  0.43876940  1
  Zn  Zn111  1  0.17554892  0.45326599  0.89831452  1
  Zn  Zn112  1  0.18191079  0.94005262  0.43803454  1
  Zn  Zn113  1  0.18612490  0.94022645  0.94352414  1
  Zn  Zn114  1  0.68760314  0.43804136  0.43691464  1
  Zn  Zn115  1  0.68368352  0.42978114  0.93529735  1
  Zn  Zn116  1  0.69056427  0.93621203  0.44012710  1
  Zn  Zn117  1  0.68787475  0.94456253  0.94055759  1
  Zn  Zn118  1  0.32266759  0.06079614  0.06994453  1
  Zn  Zn119  1  0.31084505  0.05799324  0.56732972  1
  Zn  Zn120  1  0.31476791  0.56265816  0.06018363  1
  Zn  Zn121  1  0.32871385  0.54448635  0.59196994  1
  Zn  Zn122  1  0.81252850  0.06060374  0.06790540  1
  Zn  Zn123  1  0.81636312  0.07322557  0.55827204  1
  Zn  Zn124  1  0.80857354  0.56111234  0.06119561  1
  Zn  Zn125  1  0.81248628  0.56305162  0.56397342  1
  Zn  Zn126  1  0.43261305  0.43254231  0.18592751  1
  Zn  Zn127  1  0.39684121  0.41690451  0.71269106  1
  Zn  Zn128  1  0.43824663  0.93642809  0.18758397  1
  Zn  Zn129  1  0.43421614  0.94267622  0.69818323  1
  Zn  Zn130  1  0.93705491  0.43724879  0.18281042  1
  Zn  Zn131  1  0.93613966  0.43461154  0.68123915  1
  Zn  Zn132  1  0.93410328  0.93488669  0.19247759  1
  Zn  Zn133  1  0.92167107  0.97290821  0.64475668  1
  Zn  Zn134  1  0.06206161  0.06138336  0.31410311  1
  Zn  Zn135  1  0.06105381  0.06501529  0.80772838  1
  Zn  Zn136  1  0.06403317  0.56488773  0.31128389  1
  Zn  Zn137  1  0.07909093  0.57517954  0.80228505  1
  Zn  Zn138  1  0.56597298  0.06308883  0.30891192  1
  Zn  Zn139  1  0.56695594  0.06240215  0.81869032  1
  Zn  Zn140  1  0.56043932  0.55652081  0.31555661  1
  Zn  Zn141  1  0.56591387  0.56442442  0.80707847  1
  Zn  Zn142  1  0.44188736  0.17985684  0.43061785  1
  Zn  Zn143  1  0.43421778  0.18632536  0.93790746  1
  Zn  Zn144  1  0.43577540  0.68286254  0.43901828  1
  Zn  Zn145  1  0.43763592  0.69222742  0.94481202  1
  Zn  Zn146  1  0.94574274  0.31815572  0.44696350  1
  Zn  Zn147  1  0.93541479  0.18860090  0.93795268  1
  Zn  Zn148  1  0.94106841  0.68523986  0.43537745  1
  Zn  Zn149  1  0.93742645  0.68733480  0.93337205  1
  Zn  Zn150  1  0.06472657  0.31365303  0.05877746  1
  Zn  Zn151  1  0.09175249  0.33398109  0.56122927  1
  Zn  Zn152  1  0.06459041  0.81166321  0.06463813  1
  Zn  Zn153  1  0.07254087  0.81748461  0.55884877  1
  Zn  Zn154  1  0.55898152  0.31197798  0.05789146  1
  Zn  Zn155  1  0.56283759  0.31167996  0.56635758  1
  Zn  Zn156  1  0.56115093  0.81183090  0.06336076  1
  Zn  Zn157  1  0.56996101  0.81074619  0.55907410  1
  O  O158  1  0.11493026  0.11460821  0.12507556  1
  O  O159  1  0.11949935  0.12068991  0.60781542  1
  O  O160  1  0.12333832  0.61109108  0.11920178  1
  O  O161  1  0.11666551  0.63199304  0.61242931  1
  O  O162  1  0.61110043  0.12753877  0.12431283  1
  O  O163  1  0.61982176  0.11661083  0.61626106  1
  O  O164  1  0.63441308  0.61260258  0.10908423  1
  O  O165  1  0.62370653  0.61616016  0.61639570  1
  O  O166  1  0.37754847  0.38607552  0.37209432  1
  O  O167  1  0.38438905  0.35967492  0.89233807  1
  O  O168  1  0.38872402  0.88507733  0.36961678  1
  O  O169  1  0.38601342  0.87797560  0.88934510  1
  O  O170  1  0.87611922  0.38308847  0.37538651  1
  O  O171  1  0.88239062  0.36449627  0.88912714  1
  O  O172  1  0.88428837  0.87010061  0.37653397  1
  O  O173  1  0.88840342  0.87385288  0.88293422  1
  O  O174  1  0.25769257  0.00275454  0.36910880  1
  O  O175  1  0.25072541  0.03565728  0.92024600  1
  O  O176  1  0.25818221  0.50327695  0.36798314  1
  O  O177  1  0.26699978  0.52506692  0.88290401  1
  O  O178  1  0.74428324  0.00973865  0.37069991  1
  O  O179  1  0.76335849  -0.01627641  0.87193741  1
  O  O180  1  0.75612184  0.50154061  0.36457912  1
  O  O181  1  0.74225910  0.50319299  0.86106723  1
  O  O182  1  0.24091416  0.50522137  0.13265325  1
  O  O183  1  0.23364353  0.49488420  0.62175857  1
  O  O184  1  0.24511376  0.99403424  0.13323629  1
  O  O185  1  0.23065268  0.99773871  0.61628895  1
  O  O186  1  0.74228620  0.49167958  0.12974174  1
  O  O187  1  0.74624824  0.49222166  0.63158497  1
  O  O188  1  0.75287005  0.98604614  0.13353088  1
  O  O189  1  0.73517275  0.98467520  0.62082816  1
  O  O190  1  0.00894436  0.36569347  0.24160048  1
  O  O191  1  -0.01133231  0.37936364  0.76816769  1
  O  O192  1  -0.00707815  0.85900572  0.25610997  1
  O  O193  1  0.00740798  0.86806162  0.75871685  1
  O  O194  1  0.49759722  0.36234563  0.25784313  1
  O  O195  1  0.49135543  0.37443788  0.74976213  1
  O  O196  1  0.51173433  0.88271357  0.26146821  1
  O  O197  1  0.51220031  0.88155253  0.76193293  1
  O  O198  1  0.50256973  0.13425252  0.23938984  1
  O  O199  1  0.50628281  0.12078912  0.73536824  1
  O  O200  1  0.48520125  0.61850703  0.25606768  1
  O  O201  1  0.50338033  0.62843307  0.73478348  1
  O  O202  1  1.00004391  0.13441868  0.24259104  1
  O  O203  1  0.98428989  0.12085836  0.74169735  1
  O  O204  1  0.98763747  0.63196058  0.24636340  1
  O  O205  1  1.00738397  0.63984735  0.73696507  1
  O  O206  1  0.36841320  0.25822412  0.00831879  1
  O  O207  1  0.38491244  0.24031417  0.50339357  1
  O  O208  1  0.36823384  0.76280042  0.00949740  1
  O  O209  1  0.35737057  0.74923436  0.48296682  1
  O  O210  1  0.86576669  0.25582103  0.01148265  1
  O  O211  1  0.86198601  0.25348923  0.51060354  1
  O  O212  1  0.86658596  0.75242844  0.00825987  1
  O  O213  1  0.85907826  0.73968831  0.49463960  1
  O  O214  1  0.11439445  0.23380260  0.48352930  1
  O  O215  1  0.13200049  0.24194300  1.00442609  1
  O  O216  1  0.13420352  0.74275313  0.48761921  1
  O  O217  1  0.13894742  0.75132667  1.00230127  1
  O  O218  1  0.63027269  0.24140236  0.49220951  1
  O  O219  1  0.63922006  0.24690676  1.00430157  1
  O  O220  1  0.63517854  0.74118483  0.48787288  1
  O  O221  1  0.63720052  0.74075889  1.00539053  1
  O  O222  1  0.49808717  0.24201910  0.13005591  1
  O  O223  1  0.49809963  0.23487931  0.62243396  1
  O  O224  1  0.50835066  0.74710492  0.13266413  1
  O  O225  1  0.51326613  0.73849559  0.62565094  1
  O  O226  1  0.99215384  0.24317828  0.13095148  1
  O  O227  1  0.98894229  0.25904192  0.62143918  1
  O  O228  1  0.98835873  0.74906932  0.12969993  1
  O  O229  1  1.00277353  0.75628057  0.63413776  1
  O  O230  1  0.00742848  0.25309137  0.36283034  1
  O  O231  1  0.00425009  0.26278806  0.88545400  1
  O  O232  1  0.00539384  0.75381958  0.36699338  1
  O  O233  1  0.00492248  0.76055586  0.87277082  1
  O  O234  1  0.50512684  0.25396602  0.36639042  1
  O  O235  1  0.51261227  0.24533387  0.87389754  1
  O  O236  1  0.51081909  0.75871031  0.38281505  1
  O  O237  1  0.49787593  0.76623794  0.87447412  1
  O  O238  1  0.25273458  0.11872798  0.48295514  1
  O  O239  1  0.24756911  0.08986529  0.98279905  1
  O  O240  1  0.23910096  0.63285054  0.48585801  1
  O  O241  1  0.25711385  0.63929714  0.99506906  1
  O  O242  1  0.74066943  0.13391696  0.49537583  1
  O  O243  1  0.75715267  0.13748645  1.00578952  1
  O  O244  1  0.74172249  0.63037519  0.49576075  1
  O  O245  1  0.74504627  0.62983796  0.99196904  1
  O  O246  1  0.26634142  0.38726386  -0.00746200  1
  O  O247  1  0.20072209  0.36610952  0.52230028  1
  O  O248  1  0.25803319  0.87199835  0.01033960  1
  O  O249  1  0.24417318  0.86252404  0.49200097  1
  O  O250  1  0.75676265  0.36848566  0.00901795  1
  O  O251  1  0.74488868  0.36669079  0.50742385  1
  O  O252  1  0.75248998  0.86660430  0.00874910  1
  O  O253  1  0.74188225  0.86526556  0.51415542  1
  O  O254  1  0.12988530  0.49413062  0.24285741  1
  O  O255  1  0.14188752  0.48562882  0.78856532  1
  O  O256  1  0.13426556  1.00051838  0.24106960  1
  O  O257  1  0.12446364  0.99437822  0.74037286  1
  O  O258  1  0.63686220  0.50858089  0.24156508  1
  O  O259  1  0.63852643  0.50677494  0.73363222  1
  O  O260  1  0.63701708  0.98647913  0.25520338  1
  O  O261  1  0.62754156  0.99320796  0.74230987  1
  O  O262  1  0.36634224  -0.00280987  0.25847622  1
  O  O263  1  0.37131217  0.02154374  0.74447109  1
  O  O264  1  0.36606832  0.50568307  0.25129784  1
  O  O265  1  0.35195635  0.52022437  0.70558283  1
  O  O266  1  0.85934556  0.00140410  0.24810157  1
  O  O267  1  0.87267550  0.01491563  0.74205273  1
  O  O268  1  0.86567555  0.50506546  0.25122789  1
  O  O269  1  0.85747615  0.50489327  0.74304123  1
  O  O270  1  0.13057771  0.36586614  0.35984794  1
  O  O271  1  0.10773992  0.35916729  0.88384699  1
  O  O272  1  0.11815431  0.86248737  0.37184876  1
  O  O273  1  0.11475745  0.88231183  0.87052672  1
  O  O274  1  0.61609344  0.36424316  0.37989449  1
  O  O275  1  0.62133933  0.35317215  0.88333056  1
  O  O276  1  0.62047261  0.86701595  0.36884580  1
  O  O277  1  0.62027706  0.87985383  0.86419687  1
  O  O278  1  0.38809900  0.14186275  0.11799613  1
  O  O279  1  0.38926943  0.12342528  0.62492435  1
  O  O280  1  0.37045836  0.62531061  0.14076251  1
  O  O281  1  0.39829472  0.63296580  0.60320680  1
  O  O282  1  0.88174755  0.13376912  0.13234006  1
  O  O283  1  0.87407471  0.14580018  0.62806169  1
  O  O284  1  0.87141792  0.63182779  0.13230403  1
  O  O285  1  0.89311649  0.62241301  0.62446218  1
  O  O286  1  0.26184753  0.24019561  0.12453720  1
  O  O287  1  0.26975686  0.22482735  0.60694154  1
  O  O288  1  0.24870699  0.75924915  0.12180091  1
  O  O289  1  0.24873786  0.74532651  0.60475784  1
  O  O290  1  0.75485708  0.25478384  0.12155927  1
  O  O291  1  0.74102627  0.26147656  0.61480668  1
  O  O292  1  0.75788002  0.75473748  0.11943226  1
  O  O293  1  0.73984478  0.75992094  0.61783998  1
  O  O294  1  0.23946606  0.23839196  0.36242272  1
  O  O295  1  0.22823178  0.25435545  0.87737853  1
  O  O296  1  0.24032644  0.74173807  0.37244244  1
  O  O297  1  0.24942320  0.75224718  0.88912130  1
  O  O298  1  0.74209825  0.24665009  0.38086415  1
  O  O299  1  0.74209627  0.25312452  0.88933303  1
  O  O300  1  0.74189358  0.74270906  0.38136643  1
  O  O301  1  0.75567092  0.74427405  0.88560080  1
  O  O302  1  -0.00849323  0.11580076  0.01574051  1
  O  O303  1  0.00102977  0.11966737  0.48905327  1
  O  O304  1  -0.00152323  0.61398807  -0.00088454  1
  O  O305  1  0.01054502  0.63347409  0.51202391  1
  O  O306  1  0.49754469  0.11261110  0.00818559  1
  O  O307  1  0.51030240  0.11413769  0.50494111  1
  O  O308  1  0.50742250  0.61196644  -0.00569044  1
  O  O309  1  0.51656216  0.62980339  0.50464614  1
  O  O310  1  0.50016114  0.36927952  0.48768133  1
  O  O311  1  0.49736027  0.38900424  0.99665836  1
  O  O312  1  0.51261773  0.88502405  0.48834687  1
  O  O313  1  0.49722365  0.88320435  0.99678227  1
  O  O314  1  1.00648767  0.38081447  0.51325995  1
  O  O315  1  0.98851904  0.38089192  1.00122908  1
  O  O316  1  1.00507202  0.86939119  0.48406475  1
  O  O317  1  0.99569447  0.88027255  0.99691846  1
  O  O318  1  0.48515421  0.48951422  0.37221437  1
  O  O319  1  0.50546595  0.49936090  0.88484551  1
  O  O320  1  0.49660132  0.99541839  0.37977151  1
  O  O321  1  0.50621741  0.99387377  0.89191122  1
  O  O322  1  0.98436500  0.50370115  0.36713068  1
  O  O323  1  1.00312717  0.48434886  0.88970291  1
  O  O324  1  1.00209979  0.98092419  0.36342122  1
  O  O325  1  0.99583136  0.99375141  0.88776619  1
  O  O326  1  0.00406611  0.00390463  0.12659710  1
  O  O327  1  0.02934041  -0.01611317  0.62072963  1
  O  O328  1  0.00852152  0.50040122  0.11543853  1
  O  O329  1  0.00641379  0.51292282  0.63421384  1
  O  O330  1  0.49654208  0.01396239  0.12266104  1
  O  O331  1  0.50661641  0.00332218  0.61783306  1
  O  O332  1  0.51240009  0.49241038  0.12060612  1
  O  O333  1  0.51605054  0.51222685  0.62507827  1
  O  O334  1  0.24159025  0.38644845  0.25103958  1
  O  O335  1  0.28344469  0.38496944  0.74409314  1
  O  O336  1  0.25495561  0.88366937  0.24229642  1
  O  O337  1  0.23418730  0.87756699  0.76598223  1
  O  O338  1  0.75355109  0.38399229  0.23850372  1
  O  O339  1  0.75137708  0.38594265  0.74423233  1
  O  O340  1  0.74470903  0.87925688  0.24674042  1
  O  O341  1  0.73584527  0.87051529  0.74045859  1
  O  O342  1  0.24455504  0.11060395  0.26014001  1
  O  O343  1  0.24962285  0.13191333  0.74326552  1
  O  O344  1  0.25200841  0.61311959  0.26096511  1
  O  O345  1  0.24246392  0.63462433  0.76332049  1
  O  O346  1  0.74709954  0.11567827  0.25900991  1
  O  O347  1  0.76693604  0.12378818  0.74003982  1
  O  O348  1  0.75763176  0.61724012  0.25283134  1
  O  O349  1  0.75022053  0.61932990  0.75667295  1
  O  O350  1  0.37038242  0.11048929  0.37243926  1
  O  O351  1  0.36961288  0.13861189  0.85769465  1
  O  O352  1  0.36857186  0.61041210  0.36723834  1
  O  O353  1  0.36540826  0.65010918  0.86717061  1
  O  O354  1  0.85861491  0.13305051  0.37602084  1
  O  O355  1  0.87865607  0.12865260  0.85949890  1
  O  O356  1  0.87004000  0.61624955  0.36432239  1
  O  O357  1  0.86068640  0.62404460  0.87266311  1
  O  O358  1  0.12385343  0.38424013  0.13474242  1
  O  O359  1  0.14914242  0.31607295  0.65460665  1
  O  O360  1  0.13591337  0.88448887  0.12207378  1
  O  O361  1  0.13417086  0.87634092  0.63941373  1
  O  O362  1  0.63493921  0.38285395  0.11828445  1
  O  O363  1  0.63155956  0.38905460  0.61904055  1
  O  O364  1  0.63754111  0.86569970  0.13700327  1
  O  O365  1  0.62239527  0.88129040  0.63816076  1
  O  O366  1  0.11761105  0.25599088  0.25401396  1
  O  O367  1  0.11205047  0.23475535  0.76777194  1
  O  O368  1  0.11219659  0.73841397  0.25520085  1
  O  O369  1  0.11463738  0.76596238  0.75206100  1
  O  O370  1  0.61834237  0.24595132  0.26148346  1
  O  O371  1  0.62303790  0.24794175  0.75852965  1
  O  O372  1  0.63412058  0.75761232  0.26332501  1
  O  O373  1  0.61919414  0.76306497  0.75056983  1
  O  O374  1  0.38247556  0.25577457  0.23477525  1
  O  O375  1  0.37758732  0.23152566  0.73046815  1
  O  O376  1  0.36929169  0.73108587  0.25453558  1
  O  O377  1  0.38112785  0.78664382  0.72580778  1
  O  O378  1  0.88149342  0.25126418  0.24170272  1
  O  O379  1  0.87296223  0.24464691  0.73756626  1
  O  O380  1  0.87780505  0.74004600  0.24290525  1
  O  O381  1  0.89318814  0.74898432  0.75533904  1
  O  O382  1  0.36784559  0.50277808  0.48632433  1
  O  O383  1  0.39042568  0.49077147  1.00808484  1
  O  O384  1  0.38876724  1.00146989  0.49168243  1
  O  O385  1  0.39091021  0.98706741  1.01182855  1
  O  O386  1  0.87026018  0.50567826  0.48197694  1
  O  O387  1  0.88121909  0.48859838  1.00891231  1
  O  O388  1  0.88254602  0.98965319  0.53789534  1
  O  O389  1  0.88590291  0.99153895  1.00819460  1
  O  O390  1  0.10864295  0.00068727  0.01435347  1
  O  O391  1  0.12399249  0.01502558  0.50213908  1
  O  O392  1  0.11675486  0.49578009  0.00474062  1
  O  O393  1  0.12428722  0.52264128  0.48830575  1
  O  O394  1  0.61198349  -0.00729537  0.01062519  1
  O  O395  1  0.61867272  0.00737742  0.50578419  1
  O  O396  1  0.61543277  0.50451258  0.00464432  1
  O  O397  1  0.63433396  0.50967014  0.51107848  1
  O  O398  1  0.38258936  0.35844467  0.11086754  1
  O  O399  1  0.36752373  0.35273609  0.61285788  1
  O  O400  1  0.36629811  0.87214680  0.12243334  1
  O  O401  1  0.37958790  0.84197403  0.66602912  1
  O  O402  1  0.86529990  0.36539753  0.11887627  1
  O  O403  1  0.86032988  0.36368429  0.62921139  1
  O  O404  1  0.86623587  0.86399802  0.12200964  1
  O  O405  1  0.85461039  0.87110703  0.63914683  1
  O  O406  1  0.12985503  0.12844460  0.38176412  1
  O  O407  1  0.10465288  0.13677428  0.88574489  1
  O  O408  1  0.12886645  0.63405373  0.37984590  1
  O  O409  1  0.14118312  0.63356276  0.88245067  1
  O  O410  1  0.62811217  0.13370533  0.38408376  1
  O  O411  1  0.62841482  0.13950060  0.87622981  1
  O  O412  1  0.62930778  0.62764272  0.37946906  1
  O  O413  1  0.63682249  0.62047456  0.88691008  1
