# generated using pymatgen
data_V79Zn79O256
_symmetry_space_group_name_H-M   'P 1'
_cell_length_a   16.85288216
_cell_length_b   16.87608439
_cell_length_c   16.87060922
_cell_angle_alpha   89.90658739
_cell_angle_beta   90.06284380
_cell_angle_gamma   90.00542340
_symmetry_Int_Tables_number   1
_chemical_formula_structural   V79Zn79O256
_chemical_formula_sum   'V79 Zn79 O256'
_cell_volume   4798.17184355
_cell_formula_units_Z   1
loop_
 _symmetry_equiv_pos_site_id
 _symmetry_equiv_pos_as_xyz
  1  'x, y, z'
loop_
 _atom_site_type_symbol
 _atom_site_label
 _atom_site_symmetry_multiplicity
 _atom_site_fract_x
 _atom_site_fract_y
 _atom_site_fract_z
 _atom_site_occupancy
  V  V0  1  0.00189716  0.49998280  0.49661949  1
  V  V1  1  0.00507542  0.25116397  0.24671398  1
  V  V2  1  0.00920375  0.87162084  0.37438636  1
  V  V3  1  0.88043346  0.12834191  0.74631737  1
  V  V4  1  0.12901896  0.38961117  0.24433724  1
  V  V5  1  0.13207305  0.61141959  0.00317491  1
  V  V6  1  0.75051050  0.49919986  0.24507479  1
  V  V7  1  0.26063855  0.86897902  0.62379568  1
  V  V8  1  0.25573243  0.23922430  0.50074459  1
  V  V9  1  0.49656629  0.14001048  0.63395991  1
  V  V10  1  0.61928884  0.25328072  0.37900386  1
  V  V11  1  0.75167583  0.12650618  0.88180634  1
  V  V12  1  0.88040785  0.86879644  0.00301625  1
  V  V13  1  0.75111869  0.61293702  0.86914835  1
  V  V14  1  0.63280037  0.49108250  0.64310235  1
  V  V15  1  0.00540382  0.37475628  0.37161171  1
  V  V16  1  0.74988789  -0.00666031  0.25413290  1
  V  V17  1  0.75461972  0.37475751  0.64019575  1
  V  V18  1  -0.01277492  0.12429096  0.12223550  1
  V  V19  1  0.37710633  0.36947362  0.00486750  1
  V  V20  1  -0.01768451  0.62628788  0.12189195  1
  V  V21  1  0.49005236  0.38404887  0.38422339  1
  V  V22  1  0.12639577  0.62957295  0.49886438  1
  V  V23  1  0.62174041  0.25472363  0.86064682  1
  V  V24  1  -0.00203940  0.74737557  0.75100424  1
  V  V25  1  -0.02179303  0.49300812  -0.00209426  1
  V  V26  1  0.62057291  0.12398925  0.50846362  1
  V  V27  1  0.48937609  0.24128218  0.23780039  1
  V  V28  1  0.61968957  0.49996434  0.12509866  1
  V  V29  1  0.25643398  0.88159517  0.12625730  1
  V  V30  1  0.50008218  0.87769035  0.89090805  1
  V  V31  1  0.61946307  0.87936225  0.74587956  1
  V  V32  1  0.26418414  0.50378941  0.76268252  1
  V  V33  1  0.58028495  0.92535506  0.19731467  1
  V  V34  1  0.62024296  0.61278784  0.49966459  1
  V  V35  1  0.61911855  0.62415539  0.00222469  1
  V  V36  1  0.13065507  0.74125982  0.87565372  1
  V  V37  1  0.49707674  -0.00632535  0.50688696  1
  V  V38  1  0.75533787  0.74722145  0.00434415  1
  V  V39  1  0.74774296  0.12708454  0.37482992  1
  V  V40  1  0.62444898  0.37598523  0.24643120  1
  V  V41  1  0.61821661  0.75971303  0.37356520  1
  V  V42  1  0.25345993  0.74909601  0.50191631  1
  V  V43  1  0.37547928  -0.00931709  0.88643150  1
  V  V44  1  0.49846316  0.73073629  0.25120799  1
  V  V45  1  0.01697151  0.24906167  0.75768273  1
  V  V46  1  0.37775535  0.73387964  0.12612588  1
  V  V47  1  0.37393334  0.00317172  0.36521793  1
  V  V48  1  0.25037988  0.13509283  0.87591813  1
  V  V49  1  0.86950676  0.27306593  0.11806213  1
  V  V50  1  -0.00441092  -0.00238610  -0.00191083  1
  V  V51  1  0.24323386  0.12503484  0.35656265  1
  V  V52  1  0.74738597  0.75031191  0.50342579  1
  V  V53  1  0.35642763  0.50228313  0.36402008  1
  V  V54  1  0.12531537  0.48205049  0.63089448  1
  V  V55  1  0.24475960  0.63436896  0.35585008  1
  V  V56  1  0.25544411  -0.00035978  0.74916416  1
  V  V57  1  0.87742186  0.50588655  0.36680032  1
  V  V58  1  0.49331514  0.49913288  0.00044665  1
  V  V59  1  0.27771698  0.37334988  0.61877555  1
  V  V60  1  0.74715669  0.00292163  0.74406978  1
  V  V61  1  0.49590471  0.37341771  0.86236636  1
  V  V62  1  0.12609277  0.87218064  0.74962477  1
  V  V63  1  0.25130754  0.38941718  0.13036932  1
  V  V64  1  0.87132160  0.74904259  0.62671155  1
  V  V65  1  0.88977257  0.24882034  0.62091351  1
  V  V66  1  0.62133547  0.75297130  0.87261604  1
  V  V67  1  0.38126578  0.13666229  0.75097327  1
  V  V68  1  0.25347989  0.75298703  -0.00248027  1
  V  V69  1  0.74663631  0.26915416  0.00195804  1
  V  V70  1  0.75401614  0.62775133  0.36861688  1
  V  V71  1  0.75859950  0.86964070  0.13344978  1
  V  V72  1  0.12337924  0.12971888  -0.00461405  1
  V  V73  1  0.00294576  0.37756101  0.87350269  1
  V  V74  1  0.12133739  0.01245531  0.62146309  1
  V  V75  1  0.12696398  -0.00063052  0.13208663  1
  V  V76  1  0.86820699  0.61262098  0.75136771  1
  V  V77  1  0.25257057  0.24711658  0.01381526  1
  V  V78  1  0.87839144  0.88031899  0.50097859  1
  Zn  Zn79  1  0.44952303  0.66607799  0.67206695  1
  Zn  Zn80  1  0.38700645  0.86504836  0.49485944  1
  Zn  Zn81  1  -0.01287509  0.74642661  0.24348746  1
  Zn  Zn82  1  0.74825405  0.25341855  0.50353072  1
  Zn  Zn83  1  0.00455910  0.01712606  0.50108704  1
  Zn  Zn84  1  0.87890411  0.00480573  0.37773243  1
  Zn  Zn85  1  0.00013956  0.62068738  0.62628619  1
  Zn  Zn86  1  0.57163387  0.06320844  0.05690136  1
  Zn  Zn87  1  0.87754357  -0.00165525  0.87197075  1
  Zn  Zn88  1  0.87365988  0.37801886  0.49659805  1
  Zn  Zn89  1  0.47101475  0.51662900  0.52848380  1
  Zn  Zn90  1  0.86956457  0.12969192  0.24977309  1
  Zn  Zn91  1  0.13089488  0.86956058  0.25763145  1
  Zn  Zn92  1  0.74494205  0.88209229  0.62435419  1
  Zn  Zn93  1  -0.00006620  0.87359688  0.87722449  1
  Zn  Zn94  1  0.18178041  0.18622459  0.18588554  1
  Zn  Zn95  1  0.20201041  0.19427421  0.68483933  1
  Zn  Zn96  1  0.17281633  0.69546926  0.17875644  1
  Zn  Zn97  1  0.19036226  0.68004912  0.68326973  1
  Zn  Zn98  1  0.66495938  0.18148906  0.19273277  1
  Zn  Zn99  1  0.69114833  0.19013884  0.68813031  1
  Zn  Zn100  1  0.68557797  0.68791049  0.18812406  1
  Zn  Zn101  1  0.64508215  0.66807235  0.70534018  1
  Zn  Zn102  1  0.31232040  0.30475393  0.31540391  1
  Zn  Zn103  1  0.31074559  0.32476544  0.80979045  1
  Zn  Zn104  1  0.31674013  0.81515428  0.31231116  1
  Zn  Zn105  1  0.31670841  0.80697523  0.80965013  1
  Zn  Zn106  1  0.81401502  0.31396288  0.30914781  1
  Zn  Zn107  1  0.82238025  0.31390799  0.81707015  1
  Zn  Zn108  1  0.82132910  0.80886456  0.31608064  1
  Zn  Zn109  1  0.80795649  0.81169507  0.81583695  1
  Zn  Zn110  1  0.18596833  0.43120768  0.44154386  1
  Zn  Zn111  1  0.18198320  0.42412118  0.93461230  1
  Zn  Zn112  1  0.19380578  0.94202166  0.43831031  1
  Zn  Zn113  1  0.18644177  0.93702641  0.94013596  1
  Zn  Zn114  1  0.69388223  0.43076110  0.43593833  1
  Zn  Zn115  1  0.68043144  0.43688281  0.93203786  1
  Zn  Zn116  1  0.68490734  0.94011236  0.44072561  1
  Zn  Zn117  1  0.69154787  0.93603833  0.94580102  1
  Zn  Zn118  1  0.31822042  0.06369329  0.06538244  1
  Zn  Zn119  1  0.31829236  0.06233451  0.56329786  1
  Zn  Zn120  1  0.31178814  0.56199640  0.05933573  1
  Zn  Zn121  1  0.30894355  0.55808938  0.55848421  1
  Zn  Zn122  1  0.76599410  0.08198091  0.08361758  1
  Zn  Zn123  1  0.81110984  0.06761246  0.56239021  1
  Zn  Zn124  1  0.80529865  0.55543767  0.05853401  1
  Zn  Zn125  1  0.81062563  0.56171634  0.56085600  1
  Zn  Zn126  1  0.43784318  0.43537568  0.19066700  1
  Zn  Zn127  1  0.43317519  0.47256722  0.68418886  1
  Zn  Zn128  1  0.42185069  0.93679253  0.18513097  1
  Zn  Zn129  1  0.44499046  0.94304066  0.68826110  1
  Zn  Zn130  1  0.94282998  0.44772828  0.18527376  1
  Zn  Zn131  1  0.94552614  0.43014254  0.68802079  1
  Zn  Zn132  1  0.93347695  0.94069517  0.18946448  1
  Zn  Zn133  1  0.93708860  0.93847171  0.68674709  1
  Zn  Zn134  1  0.05981398  0.06142222  0.31574839  1
  Zn  Zn135  1  0.06492692  0.06329513  0.81066408  1
  Zn  Zn136  1  0.06662836  0.56863501  0.30596227  1
  Zn  Zn137  1  0.06429379  0.55972641  0.81422579  1
  Zn  Zn138  1  0.55534668  0.06491047  0.32126085  1
  Zn  Zn139  1  0.58293045  0.04426913  0.85776221  1
  Zn  Zn140  1  0.56382109  0.56358942  0.31655510  1
  Zn  Zn141  1  0.55069111  0.56000881  0.81631699  1
  Zn  Zn142  1  0.43042362  0.18748612  0.43851335  1
  Zn  Zn143  1  0.43520654  0.18698922  0.93854743  1
  Zn  Zn144  1  0.43123041  0.68080759  0.43194439  1
  Zn  Zn145  1  0.43604061  0.69042621  0.93289808  1
  Zn  Zn146  1  0.93926670  0.19034522  0.43318612  1
  Zn  Zn147  1  0.93327840  0.19440007  0.93714193  1
  Zn  Zn148  1  0.93894666  0.69092728  0.43449052  1
  Zn  Zn149  1  0.93989601  0.68232643  0.93619703  1
  Zn  Zn150  1  0.06425665  0.31580679  0.06100100  1
  Zn  Zn151  1  0.07828276  0.19276032  0.54980475  1
  Zn  Zn152  1  0.06832522  0.80430781  0.07709237  1
  Zn  Zn153  1  0.06494909  0.81359186  0.56266467  1
  Zn  Zn154  1  0.56654107  0.31102254  0.06006865  1
  Zn  Zn155  1  0.55903224  0.32064438  0.56955485  1
  Zn  Zn156  1  0.56068858  0.80491913  0.06313429  1
  Zn  Zn157  1  0.55834730  0.80159821  0.56922690  1
  O  O158  1  0.11254884  0.11849398  0.11609891  1
  O  O159  1  0.13071238  0.11528025  0.63103942  1
  O  O160  1  0.11377722  0.62566692  0.10435091  1
  O  O161  1  0.12050030  0.61678169  0.61150054  1
  O  O162  1  0.65759691  0.11352430  0.10929265  1
  O  O163  1  0.61667972  0.13352100  0.61718708  1
  O  O164  1  0.62734379  0.61804826  0.11062446  1
  O  O165  1  0.63903437  0.60333167  0.60813465  1
  O  O166  1  0.38324014  0.38366324  0.36952774  1
  O  O167  1  0.38826416  0.36602579  0.88917718  1
  O  O168  1  0.36451209  0.89358142  0.38057500  1
  O  O169  1  0.38356090  0.88295747  0.86605847  1
  O  O170  1  0.88480649  0.38769516  0.37116365  1
  O  O171  1  0.89996218  0.36140435  0.88157173  1
  O  O172  1  0.88157910  0.87857017  0.38994656  1
  O  O173  1  0.87641622  0.87636442  0.88831013  1
  O  O174  1  0.26095386  0.01322019  0.37976108  1
  O  O175  1  0.25709281  0.00262518  0.86624328  1
  O  O176  1  0.25144870  0.50599875  0.37034729  1
  O  O177  1  0.23689417  0.48661251  0.85888600  1
  O  O178  1  0.74989953  0.00864751  0.37160115  1
  O  O179  1  0.75541618  0.01592405  0.86869819  1
  O  O180  1  0.75789220  0.50801703  0.36745495  1
  O  O181  1  0.74307218  0.51414120  0.87633636  1
  O  O182  1  0.24944514  0.48793100  0.12446077  1
  O  O183  1  0.23967782  0.48918464  0.62821130  1
  O  O184  1  0.24565943  0.99048034  0.11843121  1
  O  O185  1  0.24247331  0.99351954  0.63462127  1
  O  O186  1  0.73625848  0.50435351  0.13523156  1
  O  O187  1  0.74723695  0.48518812  0.62080055  1
  O  O188  1  0.75072495  0.98145413  0.13968899  1
  O  O189  1  0.74968773  1.00369587  0.63878573  1
  O  O190  1  0.01062750  0.37382873  0.24924489  1
  O  O191  1  0.00301597  0.36119713  0.76047308  1
  O  O192  1  -0.00729156  0.88333081  0.27019257  1
  O  O193  1  0.00742734  0.86428731  0.75005852  1
  O  O194  1  0.50914284  0.36762949  0.25964829  1
  O  O195  1  0.48841587  0.38138856  0.76558555  1
  O  O196  1  0.50891364  0.86833995  0.24220505  1
  O  O197  1  0.51566552  0.88374612  0.76103225  1
  O  O198  1  0.51395670  0.14256812  0.25042415  1
  O  O199  1  0.49572571  0.12022688  0.73809160  1
  O  O200  1  0.49842262  0.63133431  0.24773210  1
  O  O201  1  0.53788324  0.63788553  0.74045474  1
  O  O202  1  0.99751183  0.13366387  0.23980168  1
  O  O203  1  0.99138588  0.13414730  0.75493335  1
  O  O204  1  1.00573746  0.62163740  0.22553023  1
  O  O205  1  0.98973843  0.63514967  0.75209644  1
  O  O206  1  0.36611521  0.25927754  0.00102468  1
  O  O207  1  0.35924122  0.25659267  0.49347613  1
  O  O208  1  0.36751784  0.74085400  0.01207401  1
  O  O209  1  0.36000093  0.74938382  0.49164505  1
  O  O210  1  0.86839718  0.25371564  0.01165553  1
  O  O211  1  0.87777049  0.25250062  0.51393264  1
  O  O212  1  0.86480854  0.75529049  -0.00812741  1
  O  O213  1  0.86835679  0.75629810  0.50691912  1
  O  O214  1  0.15143326  0.26200142  0.50350592  1
  O  O215  1  0.13208801  0.23590626  1.00686002  1
  O  O216  1  0.13334555  0.73965393  0.50344125  1
  O  O217  1  0.13269896  0.74302253  0.99191108  1
  O  O218  1  0.62237915  0.24461227  0.49191169  1
  O  O219  1  0.64228864  0.25299880  0.99481458  1
  O  O220  1  0.63068527  0.73943431  0.49765236  1
  O  O221  1  0.63189874  0.74144647  0.99517464  1
  O  O222  1  0.50702574  0.25679476  0.13881952  1
  O  O223  1  0.50065306  0.23988313  0.62566809  1
  O  O224  1  0.48744766  0.74751350  0.13168616  1
  O  O225  1  0.47089099  0.76223355  0.62161257  1
  O  O226  1  0.98717495  0.24568427  0.12512086  1
  O  O227  1  0.99268169  0.25052640  0.63625764  1
  O  O228  1  0.98754032  0.72691248  0.09941735  1
  O  O229  1  0.99040377  0.74806329  0.63346475  1
  O  O230  1  -0.01246279  0.26454014  0.35793775  1
  O  O231  1  0.00330433  0.24795852  0.86250006  1
  O  O232  1  0.00040745  0.76697775  0.37582020  1
  O  O233  1  0.00896359  0.75136565  0.86668262  1
  O  O234  1  0.50607494  0.25917425  0.36915861  1
  O  O235  1  0.51309704  0.25502789  0.88163513  1
  O  O236  1  0.50099986  0.74380280  0.36038199  1
  O  O237  1  0.51391146  0.76027670  0.88079668  1
  O  O238  1  0.25032328  0.13620526  0.50943676  1
  O  O239  1  0.24488443  0.12932405  0.99657663  1
  O  O240  1  0.24244613  0.63241951  0.49693640  1
  O  O241  1  0.23924772  0.63396395  1.00350225  1
  O  O242  1  0.73956180  0.12876561  0.49310572  1
  O  O243  1  0.76548036  0.13692982  0.98257250  1
  O  O244  1  0.74458964  0.63249788  0.48924028  1
  O  O245  1  0.74240957  0.62927350  0.99033653  1
  O  O246  1  0.25440433  0.36764449  0.01169217  1
  O  O247  1  0.25406289  0.37735096  0.51504958  1
  O  O248  1  0.24485079  0.86235776  0.00869776  1
  O  O249  1  0.24705100  0.86432852  0.50913683  1
  O  O250  1  0.75064678  0.36842379  -0.00575584  1
  O  O251  1  0.75763751  0.37022128  0.50724424  1
  O  O252  1  0.75877528  0.86747971  0.01022016  1
  O  O253  1  0.75612160  0.86817966  0.50299311  1
  O  O254  1  0.12404731  0.48802785  0.24255846  1
  O  O255  1  0.11737305  0.50077433  0.73245006  1
  O  O256  1  0.11764185  0.99566984  0.23459979  1
  O  O257  1  0.13524417  0.99281091  0.74520692  1
  O  O258  1  0.62807623  0.49608244  0.24407401  1
  O  O259  1  0.63098873  0.49872199  0.74093719  1
  O  O260  1  0.63125871  0.99093697  0.26314732  1
  O  O261  1  0.63550261  0.98893304  0.76458749  1
  O  O262  1  0.38224638  0.00400396  0.26465285  1
  O  O263  1  0.36557752  0.00675678  0.75442890  1
  O  O264  1  0.37787070  0.49814798  0.26381856  1
  O  O265  1  0.36564621  0.50203650  0.77039066  1
  O  O266  1  0.86175231  0.00724069  0.25487616  1
  O  O267  1  0.87003342  0.01004534  0.75027936  1
  O  O268  1  0.86515626  0.49712561  0.25668751  1
  O  O269  1  0.88289092  0.51461401  0.74069426  1
  O  O270  1  0.11672897  0.38120195  0.35857113  1
  O  O271  1  0.10480074  0.35802557  0.88760224  1
  O  O272  1  0.11430419  0.88323030  0.37570310  1
  O  O273  1  0.12554312  0.86770331  0.86254552  1
  O  O274  1  0.61614842  0.37058236  0.36849439  1
  O  O275  1  0.61202130  0.36365402  0.87658529  1
  O  O276  1  0.62542189  0.85882566  0.38360298  1
  O  O277  1  0.62045496  0.86942078  0.87258235  1
  O  O278  1  0.41584956  0.11707545  0.09347732  1
  O  O279  1  0.38633142  0.12472134  0.63596086  1
  O  O280  1  0.36736659  0.63536546  0.13023113  1
  O  O281  1  0.40448449  0.57404641  0.62010366  1
  O  O282  1  0.88118036  0.12405425  0.12294286  1
  O  O283  1  0.86842859  0.14016929  0.63326593  1
  O  O284  1  0.88204009  0.61448128  0.11881016  1
  O  O285  1  0.87375605  0.63460512  0.63097142  1
  O  O286  1  0.24977653  0.25133231  0.11664430  1
  O  O287  1  0.26258931  0.26493021  0.62030420  1
  O  O288  1  0.25912441  0.75720609  0.11787569  1
  O  O289  1  0.24865991  0.75702016  0.61796430  1
  O  O290  1  0.76167952  0.25235336  0.11327389  1
  O  O291  1  0.76134235  0.26088450  0.62597539  1
  O  O292  1  0.74503572  0.75558394  0.11485730  1
  O  O293  1  0.75692839  0.74947317  0.61369114  1
  O  O294  1  0.25240065  0.23335746  0.38285420  1
  O  O295  1  0.25562278  0.23868950  0.88498306  1
  O  O296  1  0.24900263  0.73903394  0.37853425  1
  O  O297  1  0.24013652  0.75625350  0.88271892  1
  O  O298  1  0.73947650  0.24428878  0.37314548  1
  O  O299  1  0.74475434  0.24977973  0.88173839  1
  O  O300  1  0.74248535  0.74503455  0.38391974  1
  O  O301  1  0.73976998  0.74662031  0.88800873  1
  O  O302  1  0.00317458  0.11990341  0.00352118  1
  O  O303  1  0.00015339  0.12996199  0.50279862  1
  O  O304  1  0.00524243  0.60739573  -0.00266561  1
  O  O305  1  0.00733793  0.61623701  0.49479850  1
  O  O306  1  0.46866806  0.11508677  0.02721243  1
  O  O307  1  0.50319538  0.12342851  0.51173844  1
  O  O308  1  0.50853782  0.61319745  -0.01528889  1
  O  O309  1  0.51648015  0.62330193  0.49069014  1
  O  O310  1  0.50433366  0.37626066  0.48437245  1
  O  O311  1  0.49242754  0.38037352  1.00014644  1
  O  O312  1  0.50597883  0.89050162  0.50749102  1
  O  O313  1  0.50311618  0.87442741  0.99110756  1
  O  O314  1  0.99954853  0.38968935  0.48229730  1
  O  O315  1  1.00202780  0.38802079  0.99736539  1
  O  O316  1  0.99354123  0.87648777  0.49447540  1
  O  O317  1  0.99659266  0.87970660  1.00420509  1
  O  O318  1  0.49682239  0.48817296  0.37231307  1
  O  O319  1  0.50938874  0.48220890  0.88732361  1
  O  O320  1  0.48519909  1.01004791  0.39211054  1
  O  O321  1  0.48055353  0.99473909  0.87268815  1
  O  O322  1  0.99514770  0.49821010  0.37354887  1
  O  O323  1  1.00361612  0.48764766  0.88301414  1
  O  O324  1  0.99628741  0.99271508  0.38416934  1
  O  O325  1  1.00125628  0.99691225  0.88436935  1
  O  O326  1  0.00437316  0.00672723  0.11756586  1
  O  O327  1  0.01802154  -0.00291387  0.62867356  1
  O  O328  1  -0.00187046  0.50679746  0.10468464  1
  O  O329  1  0.00593554  0.49873627  0.61266563  1
  O  O330  1  0.52158335  -0.01500954  0.13750234  1
  O  O331  1  0.49969967  0.01344345  0.61242390  1
  O  O332  1  0.50892992  0.49695433  0.11578897  1
  O  O333  1  0.53133048  0.47464758  0.61768662  1
  O  O334  1  0.23994133  0.36767187  0.24072310  1
  O  O335  1  0.25643096  0.38671026  0.73128744  1
  O  O336  1  0.24709116  0.86737174  0.23107219  1
  O  O337  1  0.24670123  0.87850619  0.74464802  1
  O  O338  1  0.73698324  0.38828407  0.25988125  1
  O  O339  1  0.76234545  0.37517020  0.73981005  1
  O  O340  1  0.75557754  0.88037950  0.24742340  1
  O  O341  1  0.74577970  0.88730141  0.75143544  1
  O  O342  1  0.25058598  0.12912310  0.25571256  1
  O  O343  1  0.25810557  0.11876224  0.75777114  1
  O  O344  1  0.23218333  0.63523455  0.25726341  1
  O  O345  1  0.24340091  0.60327809  0.74463876  1
  O  O346  1  0.74251452  0.11476817  0.26101861  1
  O  O347  1  0.75897519  0.12243082  0.75683049  1
  O  O348  1  0.74002825  0.61484628  0.26064470  1
  O  O349  1  0.74993226  0.63063383  0.76276774  1
  O  O350  1  0.36220007  0.11336818  0.38070134  1
  O  O351  1  0.36888081  0.11151171  0.87197070  1
  O  O352  1  0.35455086  0.61760709  0.36720769  1
  O  O353  1  0.37563974  0.65799645  0.83757513  1
  O  O354  1  0.85908467  0.12887000  0.37343170  1
  O  O355  1  0.86590897  0.13139109  0.86302516  1
  O  O356  1  0.86602645  0.61792424  0.37832271  1
  O  O357  1  0.85913745  0.62986709  0.86721807  1
  O  O358  1  0.13792809  0.37213296  0.13266205  1
  O  O359  1  0.12272529  0.38563583  0.62285319  1
  O  O360  1  0.13743500  0.88862296  0.11570503  1
  O  O361  1  0.13388812  0.87905969  0.63774608  1
  O  O362  1  0.62271661  0.38592041  0.13612426  1
  O  O363  1  0.64539106  0.37745813  0.62583850  1
  O  O364  1  0.63683558  0.86762122  0.13042505  1
  O  O365  1  0.62543300  0.87130864  0.64216255  1
  O  O366  1  0.10877713  0.25884878  0.24023662  1
  O  O367  1  0.11502105  0.24024203  0.74513323  1
  O  O368  1  0.09534028  0.77035831  0.21244713  1
  O  O369  1  0.11914924  0.75214528  0.75419859  1
  O  O370  1  0.62204219  0.26057654  0.26010244  1
  O  O371  1  0.62873734  0.25540187  0.76162003  1
  O  O372  1  0.60996001  0.74417716  0.25692542  1
  O  O373  1  0.64015191  0.76983469  0.76312609  1
  O  O374  1  0.39016612  0.25166610  0.25058814  1
  O  O375  1  0.37220352  0.23495403  0.76445425  1
  O  O376  1  0.38721327  0.75512863  0.23863380  1
  O  O377  1  0.37895858  0.71221266  0.77648744  1
  O  O378  1  0.87913467  0.25082318  0.23299958  1
  O  O379  1  0.88372677  0.24442671  0.74037049  1
  O  O380  1  0.87654261  0.74256747  0.24927987  1
  O  O381  1  0.87867597  0.74571655  0.74443300  1
  O  O382  1  0.37401725  0.50574468  0.47221301  1
  O  O383  1  0.38412794  0.49032620  1.00356675  1
  O  O384  1  0.38649784  0.99541750  0.49917528  1
  O  O385  1  0.36194001  0.99050200  0.98390057  1
  O  O386  1  0.88481336  0.50278928  0.48805219  1
  O  O387  1  0.87909040  0.49717847  0.99160309  1
  O  O388  1  0.87694081  0.99021657  0.50738064  1
  O  O389  1  0.88803735  0.98925367  0.99882176  1
  O  O390  1  0.11662522  0.00947864  0.00642298  1
  O  O391  1  0.12921248  -0.00407751  0.52036575  1
  O  O392  1  0.13098441  0.51111158  -0.00523991  1
  O  O393  1  0.11836315  0.50554159  0.50664711  1
  O  O394  1  0.61532951  0.01277007  -0.03378690  1
  O  O395  1  0.61119132  0.01392011  0.49166300  1
  O  O396  1  0.61782958  0.50432628  0.00698234  1
  O  O397  1  0.62990896  0.51200656  0.48813691  1
  O  O398  1  0.36179881  0.37715160  0.11960633  1
  O  O399  1  0.37623775  0.38837877  0.62096928  1
  O  O400  1  0.36084222  0.86945567  0.11870106  1
  O  O401  1  0.36222150  0.88449212  0.62495933  1
  O  O402  1  0.87553939  0.37111551  0.12600919  1
  O  O403  1  0.87227485  0.36425016  0.62436009  1
  O  O404  1  0.86999371  0.87464759  0.11540387  1
  O  O405  1  0.87293752  0.86488339  0.61963964  1
  O  O406  1  0.14240473  0.11555684  0.37273326  1
  O  O407  1  0.13853005  0.11588288  0.88480685  1
  O  O408  1  0.13706745  0.61587080  0.38507217  1
  O  O409  1  0.11859012  0.63453342  0.88591866  1
  O  O410  1  0.62904332  0.13534342  0.38500499  1
  O  O411  1  0.64239650  0.14337905  0.86973282  1
  O  O412  1  0.63412506  0.63349575  0.38331275  1
  O  O413  1  0.63472273  0.63211248  0.88312567  1
