# generated using pymatgen
data_V79Zn79O256
_symmetry_space_group_name_H-M   'P 1'
_cell_length_a   16.89447808
_cell_length_b   16.89141956
_cell_length_c   16.91318795
_cell_angle_alpha   89.90144068
_cell_angle_beta   90.02794736
_cell_angle_gamma   90.00764994
_symmetry_Int_Tables_number   1
_chemical_formula_structural   V79Zn79O256
_chemical_formula_sum   'V79 Zn79 O256'
_cell_volume   4826.53773758
_cell_formula_units_Z   1
loop_
 _symmetry_equiv_pos_site_id
 _symmetry_equiv_pos_as_xyz
  1  'x, y, z'
loop_
 _atom_site_type_symbol
 _atom_site_label
 _atom_site_symmetry_multiplicity
 _atom_site_fract_x
 _atom_site_fract_y
 _atom_site_fract_z
 _atom_site_occupancy
  V  V0  1  0.11248600  0.86093478  0.76949731  1
  V  V1  1  0.49967644  0.12817142  0.12208181  1
  V  V2  1  0.01225048  0.01448347  0.51283706  1
  V  V3  1  0.37827768  0.75153663  0.12384113  1
  V  V4  1  0.37598253  0.87751704  0.00105592  1
  V  V5  1  0.49604761  0.74985423  0.75053485  1
  V  V6  1  0.24343167  0.24670482  -0.01349120  1
  V  V7  1  0.87515296  0.88123010  -0.00825128  1
  V  V8  1  0.50583380  0.61781731  0.12512968  1
  V  V9  1  0.25624780  0.11137341  0.37074373  1
  V  V10  1  0.00337092  0.24548773  0.73212053  1
  V  V11  1  0.75616088  0.36736315  0.61615856  1
  V  V12  1  0.50207722  0.75159254  0.24998248  1
  V  V13  1  0.64215654  0.75254220  0.37749757  1
  V  V14  1  0.49497651  0.87844451  0.37376488  1
  V  V15  1  0.62750833  0.00693865  0.12336194  1
  V  V16  1  0.62366178  0.61947782  0.00236512  1
  V  V17  1  0.37294065  0.24564887  0.12701196  1
  V  V18  1  0.88295257  0.62983003  0.74773416  1
  V  V19  1  0.87713981  0.74271892  0.13155004  1
  V  V20  1  0.37631705  0.50263890  0.37670534  1
  V  V21  1  0.37810529  0.37589583  0.50180034  1
  V  V22  1  0.37826062  0.24709154  0.62546759  1
  V  V23  1  0.86183610  0.12983400  0.24841147  1
  V  V24  1  0.23795401  0.87775272  0.62667428  1
  V  V25  1  0.00841701  0.13764710  0.12981922  1
  V  V26  1  0.50158357  0.87623656  0.87036587  1
  V  V27  1  0.11932588  0.62590652  0.50191081  1
  V  V28  1  0.87583699  0.13250929  0.74084484  1
  V  V29  1  0.62279826  0.24658370  0.38880303  1
  V  V30  1  0.63668833  0.63247266  0.49913005  1
  V  V31  1  -0.00938197  0.49681966  -0.00251844  1
  V  V32  1  0.63036940  0.88270063  0.25105953  1
  V  V33  1  -0.00129578  0.25546204  0.26598905  1
  V  V34  1  0.37324206  0.88307567  0.49803374  1
  V  V35  1  0.23912173  0.24809014  0.48953637  1
  V  V36  1  0.74652351  0.49382659  0.73579323  1
  V  V37  1  0.77305010  0.24500115  0.50055269  1
  V  V38  1  0.24859927  0.74966260  0.49605253  1
  V  V39  1  0.22927611  0.87437715  0.12495651  1
  V  V40  1  0.50109508  0.24786486  0.24863787  1
  V  V41  1  0.88220718  0.00178664  0.37229325  1
  V  V42  1  0.12450594  0.36734855  0.26557240  1
  V  V43  1  0.25761632  -0.00102440  0.24012767  1
  V  V44  1  0.24877564  0.37081276  0.12602484  1
  V  V45  1  0.50200708  0.62688810  0.62719641  1
  V  V46  1  0.88343129  0.86547524  0.49804843  1
  V  V47  1  0.37862114  0.62434528  0.24972343  1
  V  V48  1  0.75421866  0.61014181  0.87535624  1
  V  V49  1  0.74952701  0.75321614  -0.00353183  1
  V  V50  1  0.50326421  0.01110434  -0.00296349  1
  V  V51  1  0.11118808  0.75171842  0.36325847  1
  V  V52  1  0.62897606  -0.00339508  0.62106334  1
  V  V53  1  0.50024648  0.12259896  0.61678484  1
  V  V54  1  0.24595026  0.74950206  -0.00314264  1
  V  V55  1  0.75483141  0.86303755  0.61895564  1
  V  V56  1  0.74586813  0.51787953  0.25039120  1
  V  V57  1  0.26245963  0.50258062  0.75866097  1
  V  V58  1  -0.00216421  0.35851450  0.87430435  1
  V  V59  1  -0.00500054  0.48557004  0.49548322  1
  V  V60  1  0.12377497  0.13344674  -0.01139998  1
  V  V61  1  0.24899937  0.37548782  0.62663058  1
  V  V62  1  0.11942673  0.50043044  0.63171197  1
  V  V63  1  0.62620947  0.38110624  0.24410448  1
  V  V64  1  0.62500906  0.75363621  0.86916711  1
  V  V65  1  0.85807687  0.50041136  0.37964985  1
  V  V66  1  0.37234322  0.12317233  0.75184520  1
  V  V67  1  0.74583360  0.21929037  -0.03233590  1
  V  V68  1  0.50590734  0.50504875  0.50530315  1
  V  V69  1  0.25171643  0.49708852  0.24701750  1
  V  V70  1  0.75072402  0.88250334  0.12564721  1
  V  V71  1  0.50428307  0.00094642  0.49549076  1
  V  V72  1  0.49456132  0.49524647  -0.00993437  1
  V  V73  1  0.37296301  0.74734654  0.62824141  1
  V  V74  1  0.25778045  0.63310688  0.87049088  1
  V  V75  1  0.76604090  0.37182497  0.13111973  1
  V  V76  1  0.23812289  0.00217151  0.75677066  1
  V  V77  1  0.00517466  0.00186699  0.00162759  1
  V  V78  1  0.75307791  0.00080181  0.75259495  1
  Zn  Zn79  1  0.86359784  0.37038871  -0.01450898  1
  Zn  Zn80  1  0.37086054  0.00951597  0.87859560  1
  Zn  Zn81  1  0.62056662  0.37268163  0.75145146  1
  Zn  Zn82  1  0.87212625  0.00830277  0.87704219  1
  Zn  Zn83  1  0.11658593  0.50240228  0.12706177  1
  Zn  Zn84  1  0.24777907  0.62606151  0.37143413  1
  Zn  Zn85  1  0.13115689  0.36591452  0.75877328  1
  Zn  Zn86  1  0.74171521  0.11589577  0.38068841  1
  Zn  Zn87  1  0.09447917  -0.11015764  0.25411733  1
  Zn  Zn88  1  0.37003852  0.37706450  -0.01058515  1
  Zn  Zn89  1  0.01008320  0.63871544  0.13993217  1
  Zn  Zn90  1  0.50236103  0.37554977  0.37602977  1
  Zn  Zn91  1  -0.00366682  0.63917576  0.63031514  1
  Zn  Zn92  1  0.50652543  0.36668177  0.86065654  1
  Zn  Zn93  1  0.12574240  0.61692603  -0.00266983  1
  Zn  Zn94  1  0.18578508  0.18352869  0.19420926  1
  Zn  Zn95  1  0.18004571  0.18413553  0.68387793  1
  Zn  Zn96  1  0.18976219  0.68575903  0.18163563  1
  Zn  Zn97  1  0.18106587  0.68882127  0.69074320  1
  Zn  Zn98  1  0.68428606  0.19501268  0.18249911  1
  Zn  Zn99  1  0.68967964  0.18033773  0.67918989  1
  Zn  Zn100  1  0.68673946  0.69693275  0.18590047  1
  Zn  Zn101  1  0.68594337  0.68449542  0.69002955  1
  Zn  Zn102  1  0.31894358  0.30926640  0.31388269  1
  Zn  Zn103  1  0.32334097  0.31418235  0.81219008  1
  Zn  Zn104  1  0.30973869  0.81461695  0.30930729  1
  Zn  Zn105  1  0.31129632  0.81843662  0.81153587  1
  Zn  Zn106  1  0.81550128  0.31966750  0.32004519  1
  Zn  Zn107  1  0.81477803  0.31043271  0.81124883  1
  Zn  Zn108  1  0.82598081  0.82045630  0.31020518  1
  Zn  Zn109  1  0.81548336  0.81547663  0.80620161  1
  Zn  Zn110  1  0.18754390  0.44067044  0.44181879  1
  Zn  Zn111  1  0.17860427  0.43430286  0.93595456  1
  Zn  Zn112  1  0.18445789  0.93682150  0.42737000  1
  Zn  Zn113  1  0.18412203  0.94238066  0.93979405  1
  Zn  Zn114  1  0.68371716  0.43373063  0.43798370  1
  Zn  Zn115  1  0.68069669  0.42553927  0.94414077  1
  Zn  Zn116  1  0.69463100  0.93729526  0.43776055  1
  Zn  Zn117  1  0.68433950  0.94191283  0.93774826  1
  Zn  Zn118  1  0.31126501  0.06463278  0.06424957  1
  Zn  Zn119  1  0.27096146  0.07790590  0.57780743  1
  Zn  Zn120  1  0.31615717  0.56273505  0.06054698  1
  Zn  Zn121  1  0.31050202  0.56404610  0.56684282  1
  Zn  Zn122  1  0.81686382  0.07059385  0.06515049  1
  Zn  Zn123  1  0.82045621  0.05905288  0.56031708  1
  Zn  Zn124  1  0.80875993  0.55410047  0.06557823  1
  Zn  Zn125  1  0.81779924  0.56124719  0.56702692  1
  Zn  Zn126  1  0.43720096  0.43270466  0.18143737  1
  Zn  Zn127  1  0.44207163  0.44012584  0.68909054  1
  Zn  Zn128  1  0.43797684  0.94105371  0.18725997  1
  Zn  Zn129  1  0.43013578  0.93886957  0.68341595  1
  Zn  Zn130  1  0.94278907  0.46312715  0.19802142  1
  Zn  Zn131  1  0.93143585  0.43890145  0.69613759  1
  Zn  Zn132  1  0.93949141  0.94715028  0.18171515  1
  Zn  Zn133  1  0.93881475  0.93617664  0.68348812  1
  Zn  Zn134  1  0.07525193  0.06451402  0.31999486  1
  Zn  Zn135  1  0.05520361  0.06463508  0.81302401  1
  Zn  Zn136  1  0.05717258  0.56582438  0.31480051  1
  Zn  Zn137  1  0.06873960  0.55802960  0.82283528  1
  Zn  Zn138  1  0.55992503  0.06546883  0.31096584  1
  Zn  Zn139  1  0.55296119  0.04984349  0.79301744  1
  Zn  Zn140  1  0.56532447  0.56661440  0.31971284  1
  Zn  Zn141  1  0.56462132  0.56246633  0.81211483  1
  Zn  Zn142  1  0.42770060  0.18325656  0.43203033  1
  Zn  Zn143  1  0.43312558  0.20690881  0.92797754  1
  Zn  Zn144  1  0.44129495  0.69244613  0.43794569  1
  Zn  Zn145  1  0.43275004  0.68317917  0.93504442  1
  Zn  Zn146  1  0.94441942  0.18166717  0.43592421  1
  Zn  Zn147  1  0.92560016  0.18852200  0.93204888  1
  Zn  Zn148  1  0.93474191  0.68004619  0.43412678  1
  Zn  Zn149  1  0.93606851  0.67626681  0.93740007  1
  Zn  Zn150  1  0.04841398  0.33099167  0.07631151  1
  Zn  Zn151  1  0.06219763  0.30863384  0.56207760  1
  Zn  Zn152  1  0.04045269  0.79345466  0.01838744  1
  Zn  Zn153  1  0.05788347  0.81669440  0.55995346  1
  Zn  Zn154  1  0.57636521  0.31162191  0.05786592  1
  Zn  Zn155  1  0.56444265  0.31716138  0.57575848  1
  Zn  Zn156  1  0.56273383  0.81471681  0.06038245  1
  Zn  Zn157  1  0.56627823  0.81355169  0.56237031  1
  O  O158  1  0.11155312  0.13013602  0.12046239  1
  O  O159  1  0.16545026  0.10961404  0.60636339  1
  O  O160  1  0.12467928  0.62056192  0.11643766  1
  O  O161  1  0.12548065  0.61558197  0.61972680  1
  O  O162  1  0.61563158  0.11732531  0.12895919  1
  O  O163  1  0.60933448  0.11477201  0.62157094  1
  O  O164  1  0.61590497  0.63657828  0.11372023  1
  O  O165  1  0.61262769  0.63644554  0.61179093  1
  O  O166  1  0.38004374  0.38428285  0.38552275  1
  O  O167  1  0.40509485  0.32524721  0.89171126  1
  O  O168  1  0.38656657  0.86606697  0.38323929  1
  O  O169  1  0.38415242  0.87635320  0.88617193  1
  O  O170  1  0.87843912  0.39829871  0.37269286  1
  O  O171  1  0.88994027  0.37551248  0.86866073  1
  O  O172  1  0.87158780  0.89152437  0.38503717  1
  O  O173  1  0.86639914  0.88074436  0.88897201  1
  O  O174  1  0.26134188  0.00687588  0.37280240  1
  O  O175  1  0.25463703  -0.00468794  0.86203403  1
  O  O176  1  0.26235848  0.50060077  0.36870408  1
  O  O177  1  0.25314364  0.49353363  0.86168775  1
  O  O178  1  0.76759213  0.00507369  0.38242654  1
  O  O179  1  0.74334728  -0.00751953  0.85487853  1
  O  O180  1  0.75178914  0.50191947  0.37441137  1
  O  O181  1  0.74447743  0.51054906  0.87744858  1
  O  O182  1  0.25985191  0.48801119  0.13413568  1
  O  O183  1  0.24370340  0.49381599  0.63285808  1
  O  O184  1  0.25244399  0.98956985  0.13132725  1
  O  O185  1  0.26235899  0.98346623  0.64283534  1
  O  O186  1  0.74669909  0.49630194  0.14662853  1
  O  O187  1  0.74679536  0.48910810  0.62987923  1
  O  O188  1  0.73966310  0.99324375  0.11659464  1
  O  O189  1  0.74245743  0.99697140  0.62621706  1
  O  O190  1  0.01495898  0.36591683  0.24940424  1
  O  O191  1  -0.00165185  0.36194223  0.75475570  1
  O  O192  1  -0.01308140  0.87202379  0.24491308  1
  O  O193  1  0.01614953  0.88599766  0.75045563  1
  O  O194  1  0.51125075  0.37085351  0.24974293  1
  O  O195  1  0.50395435  0.37103459  0.74501833  1
  O  O196  1  0.50801307  0.87271018  0.25558945  1
  O  O197  1  0.49307148  0.86822388  0.76112647  1
  O  O198  1  0.50482442  0.13848957  0.23800902  1
  O  O199  1  0.48200233  0.11352931  0.72908842  1
  O  O200  1  0.50002641  0.62980761  0.24377348  1
  O  O201  1  0.50481414  0.63688321  0.74048873  1
  O  O202  1  1.00364066  0.13856142  0.24313212  1
  O  O203  1  0.99389487  0.13661086  0.74752585  1
  O  O204  1  0.99526319  0.56567260  0.22338766  1
  O  O205  1  0.98452286  0.61006101  0.75974973  1
  O  O206  1  0.35604079  0.24006562  0.01368682  1
  O  O207  1  0.36968668  0.26252969  0.50486204  1
  O  O208  1  0.37031313  0.75954410  0.00295717  1
  O  O209  1  0.36736188  0.75772817  0.50625479  1
  O  O210  1  0.84673152  0.25153536  -0.00741890  1
  O  O211  1  0.87024878  0.25559694  0.48796933  1
  O  O212  1  0.85874520  0.75986933  0.00529544  1
  O  O213  1  0.88122201  0.76626794  0.48702446  1
  O  O214  1  0.14088464  0.25309191  0.50464155  1
  O  O215  1  0.13511886  0.24313949  1.00592658  1
  O  O216  1  0.13203874  0.74409799  0.49114053  1
  O  O217  1  0.14552336  0.74910231  1.00384139  1
  O  O218  1  0.61561734  0.25221375  0.48831902  1
  O  O219  1  0.65724655  0.25319084  1.00838902  1
  O  O220  1  0.62389803  0.74192661  0.49236082  1
  O  O221  1  0.63085587  0.74417489  0.99188337  1
  O  O222  1  0.49678329  0.24550942  0.12489607  1
  O  O223  1  0.48673431  0.23782404  0.61265564  1
  O  O224  1  0.49757099  0.74360251  0.12905344  1
  O  O225  1  0.49364246  0.74922954  0.63188696  1
  O  O226  1  0.99830472  0.24338051  0.13506016  1
  O  O227  1  0.99457121  0.25411600  0.63344024  1
  O  O228  1  0.98118870  0.74832965  0.11231222  1
  O  O229  1  1.00654695  0.74938696  0.62953873  1
  O  O230  1  0.00877280  0.24617623  0.36389296  1
  O  O231  1  -0.00261410  0.25506335  0.86550567  1
  O  O232  1  0.01279524  0.74123438  0.37456341  1
  O  O233  1  0.00049692  0.76120867  0.91851557  1
  O  O234  1  0.50704849  0.24981124  0.36700464  1
  O  O235  1  0.53968198  0.23171355  0.86940450  1
  O  O236  1  0.50960702  0.76168595  0.36984729  1
  O  O237  1  0.50353953  0.75424664  0.86971905  1
  O  O238  1  0.26387690  0.14090293  0.48146000  1
  O  O239  1  0.23533461  0.13373372  1.00726713  1
  O  O240  1  0.24022115  0.63327738  0.50161988  1
  O  O241  1  0.25734803  0.63416767  0.99152860  1
  O  O242  1  0.75846790  0.14169043  0.50033790  1
  O  O243  1  0.74996207  0.11828625  0.98616637  1
  O  O244  1  0.73407963  0.61964408  0.51044199  1
  O  O245  1  0.74347507  0.63070660  0.99146570  1
  O  O246  1  0.24809893  0.36076750  0.00674660  1
  O  O247  1  0.25908448  0.37371733  0.50896026  1
  O  O248  1  0.25789123  0.87275165  0.00580102  1
  O  O249  1  0.25418080  0.86829324  0.50532128  1
  O  O250  1  0.75404781  0.39454784  0.02551601  1
  O  O251  1  0.74523951  0.36552774  0.51002275  1
  O  O252  1  0.75180839  0.87186854  0.00523518  1
  O  O253  1  0.76233017  0.87754499  0.51069590  1
  O  O254  1  0.14157863  0.48731699  0.24955050  1
  O  O255  1  0.13465050  0.49521564  0.74161631  1
  O  O256  1  0.14644884  0.99107340  0.26352874  1
  O  O257  1  0.13616755  1.00027692  0.75661729  1
  O  O258  1  0.63150223  0.48767982  0.26608090  1
  O  O259  1  0.64396068  0.50759929  0.75124580  1
  O  O260  1  0.61744554  0.99174036  0.23835567  1
  O  O261  1  0.63847255  1.00465148  0.73550016  1
  O  O262  1  0.35983119  -0.01040944  0.25204531  1
  O  O263  1  0.36853427  0.00848272  0.75357624  1
  O  O264  1  0.37244320  0.50060199  0.25799673  1
  O  O265  1  0.36053694  0.50135709  0.74184063  1
  O  O266  1  0.87736144  0.01840574  0.25961978  1
  O  O267  1  0.86569475  0.00425185  0.75078704  1
  O  O268  1  0.85072872  0.50221893  0.26411924  1
  O  O269  1  0.85431067  0.51199479  0.75030547  1
  O  O270  1  0.13139028  0.37873865  0.36373901  1
  O  O271  1  0.10680742  0.37359712  0.87084453  1
  O  O272  1  0.12950210  0.85455605  0.36859422  1
  O  O273  1  0.12568735  0.87583965  0.86904553  1
  O  O274  1  0.62106152  0.36238938  0.36840973  1
  O  O275  1  0.61951994  0.37770145  0.86727610  1
  O  O276  1  0.61953210  0.87272607  0.36847182  1
  O  O277  1  0.61231432  0.86476734  0.88336297  1
  O  O278  1  0.38739996  0.13277281  0.12474482  1
  O  O279  1  0.37487040  0.13058419  0.62755465  1
  O  O280  1  0.38552620  0.63146238  0.12994235  1
  O  O281  1  0.38443822  0.63948505  0.61697680  1
  O  O282  1  0.88090816  0.12885684  0.14371837  1
  O  O283  1  0.87738762  0.11722694  0.64074854  1
  O  O284  1  0.86305169  0.64262492  0.11723381  1
  O  O285  1  0.87647189  0.62391691  0.64189351  1
  O  O286  1  0.25811360  0.25423245  0.13141349  1
  O  O287  1  0.25942991  0.25989394  0.61397654  1
  O  O288  1  0.25971752  0.75806998  0.11706980  1
  O  O289  1  0.25484353  0.75450819  0.61763069  1
  O  O290  1  0.75465287  0.27110792  0.13575067  1
  O  O291  1  0.75244908  0.25356144  0.61058835  1
  O  O292  1  0.75024384  0.76293521  0.11406256  1
  O  O293  1  0.74494426  0.76465109  0.63183328  1
  O  O294  1  0.24774074  0.26737021  0.39058590  1
  O  O295  1  0.25100316  0.25282534  0.88850481  1
  O  O296  1  0.24872343  0.74713205  0.38578338  1
  O  O297  1  0.25826683  0.74021680  0.87968731  1
  O  O298  1  0.73829235  0.25570743  0.38987733  1
  O  O299  1  0.74337375  0.24170434  0.86838986  1
  O  O300  1  0.74054931  0.76147038  0.36869596  1
  O  O301  1  0.74138378  0.74939967  0.88091950  1
  O  O302  1  0.00709077  0.13111202  0.00914876  1
  O  O303  1  0.00361696  0.11600475  0.50229331  1
  O  O304  1  -0.00283774  0.60305004  0.01032114  1
  O  O305  1  0.01096108  0.61720296  0.50624063  1
  O  O306  1  0.49383429  0.11832719  0.00490717  1
  O  O307  1  0.48466321  0.11045131  0.50359489  1
  O  O308  1  0.50389981  0.61842564  0.00516650  1
  O  O309  1  0.50534834  0.62262808  0.50755751  1
  O  O310  1  0.49253784  0.38675357  0.50691071  1
  O  O311  1  0.51046560  0.39322055  1.00768384  1
  O  O312  1  0.49412457  0.87970694  0.49286280  1
  O  O313  1  0.49349427  0.88415798  0.99208756  1
  O  O314  1  1.00421243  0.38698654  0.50623083  1
  O  O315  1  0.99014022  0.36568802  0.98386152  1
  O  O316  1  0.98635927  0.88672511  0.50133417  1
  O  O317  1  0.99052181  0.89847462  1.01546670  1
  O  O318  1  0.49014468  0.50082528  0.38530743  1
  O  O319  1  0.50033530  0.50335288  0.88830006  1
  O  O320  1  0.50578727  0.98917817  0.38062358  1
  O  O321  1  0.50312232  0.99507011  0.88028696  1
  O  O322  1  1.00673735  0.49798986  0.39526322  1
  O  O323  1  1.00326638  0.48823251  0.89209707  1
  O  O324  1  0.98759162  1.01149421  0.37695147  1
  O  O325  1  0.99601297  1.01129543  0.89763958  1
  O  O326  1  -0.00987354  0.02555551  0.11243562  1
  O  O327  1  0.00244454  -0.00057559  0.61206623  1
  O  O328  1  0.00860491  0.45658282  0.10069598  1
  O  O329  1  0.00899732  0.49999617  0.62123037  1
  O  O330  1  0.50549297  0.00896641  0.11715892  1
  O  O331  1  0.50682718  0.00022508  0.61584213  1
  O  O332  1  0.49709457  0.51354439  0.11916541  1
  O  O333  1  0.49179868  0.51502844  0.61522227  1
  O  O334  1  0.24755574  0.37779521  0.24608969  1
  O  O335  1  0.25385012  0.38126345  0.74342099  1
  O  O336  1  0.25046385  0.87895641  0.23649021  1
  O  O337  1  0.23924517  0.88252539  0.74698712  1
  O  O338  1  0.73808269  0.37995018  0.24996509  1
  O  O339  1  0.75080597  0.38658284  0.74597997  1
  O  O340  1  0.73989001  0.87409286  0.23822710  1
  O  O341  1  0.76191200  0.88918424  0.73125782  1
  O  O342  1  0.25227819  0.10603628  0.24723686  1
  O  O343  1  0.26012196  0.11082415  0.74543244  1
  O  O344  1  0.26016519  0.61269566  0.24807675  1
  O  O345  1  0.24665134  0.61429331  0.75964670  1
  O  O346  1  0.76020449  0.13814127  0.25168005  1
  O  O347  1  0.76008912  0.11131239  0.74173688  1
  O  O348  1  0.73215084  0.61658611  0.25180019  1
  O  O349  1  0.75272179  0.61855598  0.76165185  1
  O  O350  1  0.35220381  0.15192040  0.35484197  1
  O  O351  1  0.38414779  0.12987324  0.85521591  1
  O  O352  1  0.37664996  0.61776966  0.37017692  1
  O  O353  1  0.35946894  0.61894085  0.87583873  1
  O  O354  1  0.87145676  0.12068884  0.36443587  1
  O  O355  1  0.87777681  0.12050853  0.85324656  1
  O  O356  1  0.88424621  0.60099057  0.37575418  1
  O  O357  1  0.85771479  0.62253294  0.87422279  1
  O  O358  1  0.14153934  0.37225150  0.13677690  1
  O  O359  1  0.13748325  0.38209468  0.62602655  1
  O  O360  1  0.13124742  0.86653512  0.12506408  1
  O  O361  1  0.13635067  0.87098844  0.63220613  1
  O  O362  1  0.63159328  0.37761649  0.14202940  1
  O  O363  1  0.64496146  0.36259251  0.63880184  1
  O  O364  1  0.62934174  0.88335645  0.13067193  1
  O  O365  1  0.63925146  0.88485921  0.61704996  1
  O  O366  1  0.11958705  0.26130997  0.25060492  1
  O  O367  1  0.11091924  0.24897000  0.74315130  1
  O  O368  1  0.12913799  0.73785251  0.26328524  1
  O  O369  1  0.12593571  0.76099905  0.75640968  1
  O  O370  1  0.61724353  0.26279846  0.25566488  1
  O  O371  1  0.61448498  0.23308215  0.75629151  1
  O  O372  1  0.62064094  0.76312399  0.25667135  1
  O  O373  1  0.61427292  0.74772149  0.76149977  1
  O  O374  1  0.39087512  0.26368916  0.23743224  1
  O  O375  1  0.36350592  0.23446274  0.73580288  1
  O  O376  1  0.38207899  0.74491828  0.24495761  1
  O  O377  1  0.38275078  0.75575162  0.74025494  1
  O  O378  1  0.88877753  0.24270722  0.26320090  1
  O  O379  1  0.88269406  0.23905906  0.74655189  1
  O  O380  1  0.86586167  0.75293647  0.23061204  1
  O  O381  1  0.87209920  0.72949770  0.76125985  1
  O  O382  1  0.37941477  0.49583875  0.49552326  1
  O  O383  1  0.38915787  0.49442290  1.00221972  1
  O  O384  1  0.38354643  0.98442135  0.50654370  1
  O  O385  1  0.38314037  0.99578102  0.99814354  1
  O  O386  1  0.88663218  0.50150114  0.49643831  1
  O  O387  1  0.88566090  0.49177884  1.00658917  1
  O  O388  1  0.88909934  1.00008994  0.48865916  1
  O  O389  1  0.88096641  0.99716019  0.99986642  1
  O  O390  1  0.11412486  0.01559128  0.00228419  1
  O  O391  1  0.10941610  -0.00762518  0.48836423  1
  O  O392  1  0.11613366  0.49607705  0.00608929  1
  O  O393  1  0.12044212  0.50635814  0.51053431  1
  O  O394  1  0.61261373  -0.00426261  0.01034861  1
  O  O395  1  0.61306205  -0.00368421  0.50418241  1
  O  O396  1  0.61572754  0.51519570  -0.00152611  1
  O  O397  1  0.61275033  0.51403009  0.49129928  1
  O  O398  1  0.36706027  0.36405459  0.11650715  1
  O  O399  1  0.36862754  0.37035554  0.61842472  1
  O  O400  1  0.38018369  0.87053877  0.11139636  1
  O  O401  1  0.36811460  0.86330180  0.61704326  1
  O  O402  1  0.86442780  0.38547748  0.14533239  1
  O  O403  1  0.85557830  0.37691174  0.63166164  1
  O  O404  1  0.86281499  0.87211876  0.11359965  1
  O  O405  1  0.86579536  0.87855969  0.61025995  1
  O  O406  1  0.15628408  0.13496446  0.36269498  1
  O  O407  1  0.11975389  0.12917504  0.89029180  1
  O  O408  1  0.12775181  0.62969548  0.38466174  1
  O  O409  1  0.14904173  0.61450377  0.88293561  1
  O  O410  1  0.62706278  0.14223259  0.36659069  1
  O  O411  1  0.59157741  0.19010395  0.82359685  1
  O  O412  1  0.62178761  0.63814780  0.38933946  1
  O  O413  1  0.63343537  0.63518251  0.88259719  1
