# generated using pymatgen
data_V79Zn79O256
_symmetry_space_group_name_H-M   'P 1'
_cell_length_a   16.88816309
_cell_length_b   16.88668341
_cell_length_c   16.93995259
_cell_angle_alpha   89.89102308
_cell_angle_beta   90.11270352
_cell_angle_gamma   90.00562922
_symmetry_Int_Tables_number   1
_chemical_formula_structural   V79Zn79O256
_chemical_formula_sum   'V79 Zn79 O256'
_cell_volume   4831.00334896
_cell_formula_units_Z   1
loop_
 _symmetry_equiv_pos_site_id
 _symmetry_equiv_pos_as_xyz
  1  'x, y, z'
loop_
 _atom_site_type_symbol
 _atom_site_label
 _atom_site_symmetry_multiplicity
 _atom_site_fract_x
 _atom_site_fract_y
 _atom_site_fract_z
 _atom_site_occupancy
  V  V0  1  0.50138874  0.12817512  0.13409336  1
  V  V1  1  0.61772268  0.24842658  0.86729649  1
  V  V2  1  0.63355672  0.76576026  0.36132653  1
  V  V3  1  0.75652455  0.50663334  0.25995982  1
  V  V4  1  0.12092837  -0.00553582  0.13016884  1
  V  V5  1  0.24763140  0.87387121  0.12473700  1
  V  V6  1  0.00162478  -0.00300445  0.00004868  1
  V  V7  1  0.11689272  0.36848846  0.24947315  1
  V  V8  1  0.25498286  0.12294169  0.37865841  1
  V  V9  1  0.37418499  0.62388195  0.25373600  1
  V  V10  1  0.25095948  0.50102880  0.25514275  1
  V  V11  1  0.28230750  0.82049380  0.57449121  1
  V  V12  1  0.38981114  0.38956197  0.00843025  1
  V  V13  1  0.62599149  -0.00660605  0.62221986  1
  V  V14  1  0.74128014  -0.00447977  0.74492301  1
  V  V15  1  0.88502335  0.62067737  0.26728611  1
  V  V16  1  0.74998657  0.12610688  0.87433410  1
  V  V17  1  0.63023073  0.64186985  0.00241555  1
  V  V18  1  0.11986961  0.62758264  0.49597740  1
  V  V19  1  0.86121290  0.75539476  0.63109801  1
  V  V20  1  0.12813223  0.49531895  0.62511355  1
  V  V21  1  0.63085149  0.13986501  0.50467093  1
  V  V22  1  0.37111094  -0.00710488  0.88255952  1
  V  V23  1  0.87669939  0.13067610  0.74289341  1
  V  V24  1  0.86389740  0.87203054  -0.00098197  1
  V  V25  1  -0.00976860  0.62553537  0.62873318  1
  V  V26  1  0.74939388  0.12520424  0.37231735  1
  V  V27  1  0.87836434  0.87752841  0.49942271  1
  V  V28  1  0.37250362  0.75534452  0.11946722  1
  V  V29  1  0.00587253  0.86657475  0.86036678  1
  V  V30  1  0.62343215  0.36757965  0.25555921  1
  V  V31  1  0.12232332  0.24819747  0.37662837  1
  V  V32  1  0.00379772  0.11868055  0.62368606  1
  V  V33  1  0.49956971  0.13556700  0.62921196  1
  V  V34  1  0.87751850  0.37049996  0.00249152  1
  V  V35  1  -0.01052834  0.37387487  0.37681786  1
  V  V36  1  0.12472493  0.12707888  0.00032603  1
  V  V37  1  0.24620093  0.75176256  -0.01627687  1
  V  V38  1  0.49443087  -0.00775832  -0.00166952  1
  V  V39  1  0.47920330  0.37571887  0.37565052  1
  V  V40  1  0.37798071  0.24982055  0.13176769  1
  V  V41  1  0.12276487  0.25413571  0.87293105  1
  V  V42  1  0.75347124  0.24869574  0.00572457  1
  V  V43  1  0.87938468  0.00317846  0.37626381  1
  V  V44  1  0.62603482  0.49882462  0.12050113  1
  V  V45  1  0.87519181  0.73484893  0.11613684  1
  V  V46  1  0.48758063  -0.00432861  0.49356652  1
  V  V47  1  0.86256364  0.49593655  0.87223555  1
  V  V48  1  0.00338488  0.76812258  0.25128088  1
  V  V49  1  0.86453034  0.61863987  0.74978103  1
  V  V50  1  0.74093309  0.36731779  0.63702907  1
  V  V51  1  0.25712122  0.26433385  0.50349506  1
  V  V52  1  0.86701970  0.35127993  0.50956951  1
  V  V53  1  0.62317054  0.12482676  0.00150513  1
  V  V54  1  0.13029529  0.11920927  0.50996766  1
  V  V55  1  0.74959778  0.63752716  0.88283607  1
  V  V56  1  0.87545986  -0.00308529  0.87004216  1
  V  V57  1  0.75788609  0.37030770  0.13050365  1
  V  V58  1  -0.00140244  0.37786254  0.87120978  1
  V  V59  1  -0.00359055  0.13384575  0.13593432  1
  V  V60  1  0.24878233  0.37441956  0.12413422  1
  V  V61  1  0.38445567  0.13799307  0.75746126  1
  V  V62  1  0.24607609  0.00138158  0.74185624  1
  V  V63  1  0.11909449  0.50961822  0.12332376  1
  V  V64  1  -0.01961609  0.49888708  0.49740011  1
  V  V65  1  0.61446462  0.61745501  0.47486058  1
  V  V66  1  0.34725948  0.62132335  0.77835030  1
  V  V67  1  0.12319177  0.63036476  -0.01977347  1
  V  V68  1  0.63261554  -0.00512516  0.13497758  1
  V  V69  1  0.37132998  0.26615487  0.63315030  1
  V  V70  1  0.23638666  0.63472287  0.37289459  1
  V  V71  1  0.49990728  0.62033148  0.12179921  1
  V  V72  1  0.74965804  0.74485420  0.49100979  1
  V  V73  1  0.25224856  0.13438953  0.87772811  1
  V  V74  1  0.37725590  0.12245727  0.25659758  1
  V  V75  1  0.13262907  0.37847075  0.74393505  1
  V  V76  1  0.50446467  0.76439639  0.24881427  1
  V  V77  1  0.50199349  0.38478539  0.87234132  1
  V  V78  1  0.24784201  -0.00318620  0.25534474  1
  Zn  Zn79  1  0.62012529  0.24922950  0.37443349  1
  Zn  Zn80  1  0.11492126  0.78039812  0.39259991  1
  Zn  Zn81  1  0.62564307  0.51830741  0.62199927  1
  Zn  Zn82  1  -0.00681489  0.51151872  0.00222162  1
  Zn  Zn83  1  0.73966574  0.86671566  0.14444602  1
  Zn  Zn84  1  0.16279041  0.83445068  0.77617119  1
  Zn  Zn85  1  0.44149048  0.70974314  0.66124652  1
  Zn  Zn86  1  0.03875298  -0.03771989  0.49474234  1
  Zn  Zn87  1  -0.00592097  0.25378107  0.73716903  1
  Zn  Zn88  1  0.31888713  0.44348840  0.56108110  1
  Zn  Zn89  1  0.47356958  0.50702138  0.48743789  1
  Zn  Zn90  1  0.62287701  0.40089497  0.75223442  1
  Zn  Zn91  1  0.87476712  0.13726745  0.24398623  1
  Zn  Zn92  1  0.56258123  0.80383567  0.80201388  1
  Zn  Zn93  1  0.25211268  0.25575316  0.00026005  1
  Zn  Zn94  1  0.18476182  0.18408936  0.18906800  1
  Zn  Zn95  1  0.19099807  0.19355395  0.69141358  1
  Zn  Zn96  1  0.18399454  0.69053427  0.18822913  1
  Zn  Zn97  1  0.19615637  0.68142752  0.68436390  1
  Zn  Zn98  1  0.69404111  0.18269986  0.19067704  1
  Zn  Zn99  1  0.69118378  0.19055027  0.68647745  1
  Zn  Zn100  1  0.69366826  0.68651625  0.18852045  1
  Zn  Zn101  1  0.63469016  0.71776548  0.65363279  1
  Zn  Zn102  1  0.30485736  0.30743628  0.30935714  1
  Zn  Zn103  1  0.31035494  0.34613883  0.81921843  1
  Zn  Zn104  1  0.30646692  0.81143922  0.31248654  1
  Zn  Zn105  1  0.36531004  0.84178083  0.76292462  1
  Zn  Zn106  1  0.81185832  0.30448275  0.31752520  1
  Zn  Zn107  1  0.80661663  0.31190912  0.81230097  1
  Zn  Zn108  1  0.81854208  0.81252165  0.31301882  1
  Zn  Zn109  1  0.75154102  0.78711527  0.77875623  1
  Zn  Zn110  1  0.17857497  0.44224152  0.43709836  1
  Zn  Zn111  1  0.19510244  0.44978078  0.93451679  1
  Zn  Zn112  1  0.21237797  0.93097236  0.44837366  1
  Zn  Zn113  1  0.18761603  0.93613083  0.93779262  1
  Zn  Zn114  1  0.69884106  0.43321915  0.43859238  1
  Zn  Zn115  1  0.68371662  0.43533998  0.94206714  1
  Zn  Zn116  1  0.69226093  0.93806480  0.44365688  1
  Zn  Zn117  1  0.68233496  0.93249170  0.93147957  1
  Zn  Zn118  1  0.30951343  0.06499488  0.06604757  1
  Zn  Zn119  1  0.31718677  0.07291646  0.56691732  1
  Zn  Zn120  1  0.30578092  0.56827008  0.06192158  1
  Zn  Zn121  1  0.34044728  0.62932433  0.55735870  1
  Zn  Zn122  1  0.81572481  0.06045710  0.06172101  1
  Zn  Zn123  1  0.81240226  0.06728584  0.56261463  1
  Zn  Zn124  1  0.80930777  0.55514279  0.06159501  1
  Zn  Zn125  1  0.79719551  0.55978910  0.56103050  1
  Zn  Zn126  1  0.43939973  0.43951805  0.19490990  1
  Zn  Zn127  1  0.46492497  0.50530316  0.68571883  1
  Zn  Zn128  1  0.43296558  0.94257632  0.18313864  1
  Zn  Zn129  1  0.47613790  0.88447598  0.64054385  1
  Zn  Zn130  1  0.93822112  0.43631238  0.18826255  1
  Zn  Zn131  1  0.93227922  0.43801048  0.68520577  1
  Zn  Zn132  1  0.89876584  0.92827844  0.20366362  1
  Zn  Zn133  1  0.93796660  0.94265629  0.67960533  1
  Zn  Zn134  1  0.05880860  -0.04971477  0.31830725  1
  Zn  Zn135  1  0.06282621  0.06150176  0.81135597  1
  Zn  Zn136  1  0.05761336  0.55620848  0.31172916  1
  Zn  Zn137  1  0.05599849  0.56225794  0.80737171  1
  Zn  Zn138  1  0.56501473  0.05391358  0.31800096  1
  Zn  Zn139  1  0.54655070  -0.03470560  0.80427442  1
  Zn  Zn140  1  0.56292942  0.56276180  0.31281216  1
  Zn  Zn141  1  0.55982146  0.57025549  0.82310629  1
  Zn  Zn142  1  0.44488526  0.19843861  0.44213121  1
  Zn  Zn143  1  0.43871495  0.19395338  0.94743917  1
  Zn  Zn144  1  0.41687623  0.71789290  0.42188180  1
  Zn  Zn145  1  0.43025572  0.67726251  0.93982992  1
  Zn  Zn146  1  0.94426733  0.18278058  0.43855563  1
  Zn  Zn147  1  0.93937798  0.18535739  0.93645711  1
  Zn  Zn148  1  0.94291753  0.69496730  0.43966940  1
  Zn  Zn149  1  0.93980542  0.68889783  0.93240765  1
  Zn  Zn150  1  0.06222140  0.31403831  0.06009022  1
  Zn  Zn151  1  0.05841528  0.30749171  0.55982515  1
  Zn  Zn152  1  0.05806119  0.81028875  0.06192642  1
  Zn  Zn153  1  0.08515526  0.79766497  0.60046983  1
  Zn  Zn154  1  0.56717343  0.30934271  0.07054227  1
  Zn  Zn155  1  0.53210132  0.35366786  0.58151265  1
  Zn  Zn156  1  0.56034098  0.81497664  0.06315144  1
  Zn  Zn157  1  0.52099855  0.77906126  0.52238259  1
  O  O158  1  0.11980072  0.11541655  0.11964217  1
  O  O159  1  0.12738504  0.13066903  0.61454995  1
  O  O160  1  0.12460141  0.61029572  0.12612805  1
  O  O161  1  0.11010196  0.61106785  0.61742480  1
  O  O162  1  0.62027178  0.11883000  0.12036914  1
  O  O163  1  0.61843814  0.13139842  0.61706847  1
  O  O164  1  0.62285749  0.62070238  0.11857313  1
  O  O165  1  0.62277605  0.63043621  0.58391857  1
  O  O166  1  0.38126591  0.37745235  0.35211866  1
  O  O167  1  0.39511552  0.36379790  0.90072642  1
  O  O168  1  0.38529598  0.82587816  0.38914176  1
  O  O169  1  0.36686916  0.89569837  0.88045364  1
  O  O170  1  0.88258377  0.36511932  0.38995606  1
  O  O171  1  0.87795778  0.37832755  0.88158193  1
  O  O172  1  0.87587838  0.88760971  0.39036195  1
  O  O173  1  0.88626874  0.88718177  0.88393334  1
  O  O174  1  0.24893108  0.01182825  0.36694773  1
  O  O175  1  0.25833504  0.01709889  0.88554250  1
  O  O176  1  0.23649802  0.50907097  0.35863420  1
  O  O177  1  0.26977164  0.44804481  0.85652914  1
  O  O178  1  0.76387548  0.01112748  0.38764808  1
  O  O179  1  0.75524388  0.00681769  0.86561151  1
  O  O180  1  0.75539436  0.49642060  0.35725555  1
  O  O181  1  0.75928152  0.50177024  0.88513034  1
  O  O182  1  0.23906881  0.49337429  0.13324381  1
  O  O183  1  0.22609983  0.49615085  0.61679289  1
  O  O184  1  0.24170838  0.99443086  0.13069904  1
  O  O185  1  0.25980362  1.01243744  0.64432692  1
  O  O186  1  0.74613173  0.48749235  0.13186848  1
  O  O187  1  0.73589020  0.47855064  0.61152044  1
  O  O188  1  0.73379654  1.00414572  0.11827723  1
  O  O189  1  0.73903761  1.01315437  0.63733577  1
  O  O190  1  0.00931782  0.37982461  0.25959610  1
  O  O191  1  -0.00109886  0.37281940  0.75991695  1
  O  O192  1  -0.00667494  0.87343088  0.25180584  1
  O  O193  1  -0.00502038  0.88599416  0.76165483  1
  O  O194  1  0.51935055  0.37837791  0.25180080  1
  O  O195  1  0.49803433  0.37412306  0.77400932  1
  O  O196  1  0.49576701  0.86301287  0.23773676  1
  O  O197  1  0.47957985  0.88127120  0.75541901  1
  O  O198  1  0.49120264  0.11347711  0.24363673  1
  O  O199  1  0.48823926  0.12789497  0.74248369  1
  O  O200  1  0.49215297  0.63247283  0.24022423  1
  O  O201  1  0.48981871  0.65760354  0.79470242  1
  O  O202  1  1.00564249  0.12640590  0.23372762  1
  O  O203  1  0.99322898  0.12194877  0.74216714  1
  O  O204  1  0.98704532  0.62094945  0.24751911  1
  O  O205  1  0.97985968  0.62058986  0.74148736  1
  O  O206  1  0.37283644  0.25954007  0.01988714  1
  O  O207  1  0.36522785  0.24592153  0.51425546  1
  O  O208  1  0.35875658  0.74170468  0.01065653  1
  O  O209  1  0.41104928  0.72791997  0.53430889  1
  O  O210  1  0.86389743  0.25788752  -0.00970093  1
  O  O211  1  0.88117711  0.25317764  0.50699717  1
  O  O212  1  0.88254074  0.76081686  0.00785861  1
  O  O213  1  0.86779834  0.75632393  0.50375634  1
  O  O214  1  0.13754384  0.24717519  0.49482845  1
  O  O215  1  0.12819081  0.24827086  0.98816894  1
  O  O216  1  0.10603341  0.73102686  0.50252594  1
  O  O217  1  0.13114371  0.73944427  1.00311486  1
  O  O218  1  0.61874410  0.23847243  0.49731261  1
  O  O219  1  0.63520010  0.24247446  1.00160713  1
  O  O220  1  0.62582160  0.74433454  0.47411217  1
  O  O221  1  0.63018758  0.74106712  1.00815217  1
  O  O222  1  0.49412391  0.23755148  0.12730639  1
  O  O223  1  0.48380216  0.24716926  0.61902892  1
  O  O224  1  0.49376882  0.74302153  0.12949507  1
  O  O225  1  0.53104215  0.77280012  0.63751176  1
  O  O226  1  1.00589514  0.23293557  0.11448173  1
  O  O227  1  1.00524980  0.22948435  0.62440935  1
  O  O228  1  0.98125866  0.76125678  0.13595357  1
  O  O229  1  0.97530024  0.73182704  0.61850702  1
  O  O230  1  0.01379741  0.25906703  0.38394076  1
  O  O231  1  0.00894096  0.25903021  0.87628527  1
  O  O232  1  0.00188043  0.75136893  0.35673504  1
  O  O233  1  -0.00609564  0.76755003  0.87107435  1
  O  O234  1  0.50368822  0.26651168  0.36974640  1
  O  O235  1  0.51592066  0.25829090  0.89032700  1
  O  O236  1  0.51365828  0.75113053  0.35311224  1
  O  O237  1  0.49895129  0.71874725  0.85482405  1
  O  O238  1  0.24678857  0.13629037  0.49606976  1
  O  O239  1  0.24448274  0.13193070  0.99459179  1
  O  O240  1  0.23168601  0.62076064  0.47984078  1
  O  O241  1  0.23473600  0.63943998  1.00591055  1
  O  O242  1  0.73521618  0.12543236  0.49972123  1
  O  O243  1  0.74471662  0.13038282  0.99668805  1
  O  O244  1  0.74849528  0.63936328  0.48957199  1
  O  O245  1  0.74092799  0.62349135  0.99714369  1
  O  O246  1  0.26082213  0.37751259  0.01561210  1
  O  O247  1  0.25005496  0.37002539  0.49517699  1
  O  O248  1  0.24154002  0.86090975  0.01140681  1
  O  O249  1  0.29091410  0.85239643  0.47438120  1
  O  O250  1  0.75671517  0.36731343  0.00973531  1
  O  O251  1  0.76347697  0.36438245  0.50073874  1
  O  O252  1  0.76354337  0.87894382  -0.00759485  1
  O  O253  1  0.76176339  0.85864156  0.49651830  1
  O  O254  1  0.12848832  0.49110477  0.23790748  1
  O  O255  1  0.11270248  0.49309167  0.73375819  1
  O  O256  1  0.13384469  0.99985868  0.24128202  1
  O  O257  1  0.14574280  1.00915501  0.75588614  1
  O  O258  1  0.64079438  0.49518975  0.24097464  1
  O  O259  1  0.58630340  0.50951006  0.73244349  1
  O  O260  1  0.62022211  1.00161368  0.23351834  1
  O  O261  1  0.63419629  1.01159640  0.74024927  1
  O  O262  1  0.36240326  0.01251285  0.24301041  1
  O  O263  1  0.36395669  0.02045251  0.77600343  1
  O  O264  1  0.36283392  0.51292767  0.24069505  1
  O  O265  1  0.39354608  0.52220031  0.76984343  1
  O  O266  1  0.88718115  0.01926063  0.27476357  1
  O  O267  1  0.86525053  0.00939574  0.75397313  1
  O  O268  1  0.86831522  0.50966314  0.24321163  1
  O  O269  1  0.87438025  0.50459469  0.76238234  1
  O  O270  1  0.11784801  0.36758333  0.36806149  1
  O  O271  1  0.11552935  0.37304945  0.86637948  1
  O  O272  1  0.11348192  0.89380182  0.40244096  1
  O  O273  1  0.11278243  0.87894047  0.87095982  1
  O  O274  1  0.63431492  0.37301942  0.35995020  1
  O  O275  1  0.62139226  0.36365750  0.87665395  1
  O  O276  1  0.63056789  0.86535774  0.37245572  1
  O  O277  1  0.60650685  0.88856622  0.86712642  1
  O  O278  1  0.38128313  0.13074226  0.13347981  1
  O  O279  1  0.38246540  0.13769380  0.63875049  1
  O  O280  1  0.38065634  0.63297356  0.13031265  1
  O  O281  1  0.39844010  0.60386793  0.66040483  1
  O  O282  1  0.89125823  0.11449951  0.12504088  1
  O  O283  1  0.88470969  0.11898008  0.63475984  1
  O  O284  1  0.87741282  0.63384770  0.11474009  1
  O  O285  1  0.86977074  0.62385577  0.63301801  1
  O  O286  1  0.25557421  0.25948902  0.12794757  1
  O  O287  1  0.26148757  0.24877616  0.61679957  1
  O  O288  1  0.25599499  0.75909670  0.12917907  1
  O  O289  1  0.26615773  0.71849270  0.59648206  1
  O  O290  1  0.74725438  0.25686742  0.11616726  1
  O  O291  1  0.75471064  0.26547222  0.62961531  1
  O  O292  1  0.77067266  0.75329987  0.13116818  1
  O  O293  1  0.75825082  0.74414879  0.60946511  1
  O  O294  1  0.24388275  0.24530372  0.38420446  1
  O  O295  1  0.23948444  0.24978809  0.87535333  1
  O  O296  1  0.22153076  0.73833465  0.35392203  1
  O  O297  1  0.24412736  0.76052783  0.88824050  1
  O  O298  1  0.74448314  0.23049763  0.37853197  1
  O  O299  1  0.73787690  0.24797524  0.88647636  1
  O  O300  1  0.74067713  0.75277386  0.37092641  1
  O  O301  1  0.76187018  0.73573575  0.88508446  1
  O  O302  1  0.00574033  0.11275182  -0.00057676  1
  O  O303  1  0.02351914  0.12677371  0.50402917  1
  O  O304  1  0.01688211  0.62705676  -0.00436836  1
  O  O305  1  -0.00137917  0.61484878  0.50455889  1
  O  O306  1  0.50763339  0.12257259  0.01336495  1
  O  O307  1  0.51031404  0.11985687  0.50819233  1
  O  O308  1  0.51423472  0.63165550  0.01222934  1
  O  O309  1  0.51257548  0.62017999  0.46539875  1
  O  O310  1  0.48193927  0.37476570  0.47836474  1
  O  O311  1  0.49250772  0.37677858  1.01419057  1
  O  O312  1  0.49772956  0.89551973  0.52255790  1
  O  O313  1  0.49697346  0.89306825  1.00554878  1
  O  O314  1  0.98611008  0.37883829  0.49727017  1
  O  O315  1  0.99086551  0.37433179  0.98952739  1
  O  O316  1  0.98176806  0.86510296  0.51829617  1
  O  O317  1  0.99710652  0.88503620  0.98952296  1
  O  O318  1  0.50337733  0.48130235  0.36799751  1
  O  O319  1  0.51685963  0.48241949  0.89001089  1
  O  O320  1  0.50483252  0.99854226  0.39465492  1
  O  O321  1  0.48295109  1.01278295  0.89030233  1
  O  O322  1  1.00376488  0.48306759  0.38511195  1
  O  O323  1  0.98951389  0.49000598  0.87880332  1
  O  O324  1  0.98390953  1.00407180  0.39593468  1
  O  O325  1  0.99387446  0.99721163  0.88169624  1
  O  O326  1  0.00912321  0.00567438  0.11468636  1
  O  O327  1  0.00359610  0.01148211  0.61347948  1
  O  O328  1  0.01620272  0.48949657  0.11836429  1
  O  O329  1  -0.00540871  0.50940498  0.61551214  1
  O  O330  1  0.50602840  0.00897354  0.11527820  1
  O  O331  1  0.51449528  0.01752840  0.62170909  1
  O  O332  1  0.51135569  0.51233189  0.13651522  1
  O  O333  1  0.51763310  0.47183677  0.59268208  1
  O  O334  1  0.23980239  0.38239080  0.24250458  1
  O  O335  1  0.23000361  0.36430185  0.73358788  1
  O  O336  1  0.25419345  0.88668895  0.24191933  1
  O  O337  1  0.25815128  0.89784770  0.76311320  1
  O  O338  1  0.74869241  0.38433450  0.24417747  1
  O  O339  1  0.74597878  0.37932662  0.74292423  1
  O  O340  1  0.79458071  0.89006488  0.23849558  1
  O  O341  1  0.75482915  0.89786885  0.75139198  1
  O  O342  1  0.25512279  0.11822325  0.25850361  1
  O  O343  1  0.25803047  0.12496474  0.76345974  1
  O  O344  1  0.25259283  0.61851922  0.25042886  1
  O  O345  1  0.24911844  0.61007029  0.75307660  1
  O  O346  1  0.75009922  0.11878626  0.26809187  1
  O  O347  1  0.75803120  0.12091809  0.75620197  1
  O  O348  1  0.76471812  0.61285885  0.24298044  1
  O  O349  1  0.75899772  0.61855379  0.77543237  1
  O  O350  1  0.36573523  0.13802908  0.36768402  1
  O  O351  1  0.36585563  0.14024578  0.87490474  1
  O  O352  1  0.35704615  0.63869309  0.35803706  1
  O  O353  1  0.35015789  0.62489413  0.88099373  1
  O  O354  1  0.86302372  0.11618988  0.39324637  1
  O  O355  1  0.87198875  0.11307850  0.87039205  1
  O  O356  1  0.87936942  0.62659298  0.36517628  1
  O  O357  1  0.86792628  0.61580400  0.87606342  1
  O  O358  1  0.13159512  0.37830277  0.13013824  1
  O  O359  1  0.10609720  0.38789917  0.62939729  1
  O  O360  1  0.13192617  0.88487692  0.12073143  1
  O  O361  1  0.18900422  0.86145899  0.59027195  1
  O  O362  1  0.63605202  0.37987785  0.13510687  1
  O  O363  1  0.63356384  0.36152570  0.63688379  1
  O  O364  1  0.62887303  0.88926340  0.11721553  1
  O  O365  1  0.62751562  0.89735586  0.62614403  1
  O  O366  1  0.13393141  0.25991842  0.26161319  1
  O  O367  1  0.11832328  0.25715588  0.75903208  1
  O  O368  1  0.10218378  0.75225920  0.23631635  1
  O  O369  1  0.12009173  0.76232149  0.70510883  1
  O  O370  1  0.63437998  0.26486994  0.24723094  1
  O  O371  1  0.62460163  0.24385769  0.76831855  1
  O  O372  1  0.61729382  0.75187221  0.24819165  1
  O  O373  1  0.64989634  0.74608798  0.75833067  1
  O  O374  1  0.36738005  0.23698369  0.23952520  1
  O  O375  1  0.36407477  0.25186472  0.74107244  1
  O  O376  1  0.38509043  0.74335226  0.23712898  1
  O  O377  1  0.36174046  0.72786216  0.74800905  1
  O  O378  1  0.87243393  0.24767803  0.24670672  1
  O  O379  1  0.87724148  0.23447886  0.76343685  1
  O  O380  1  0.88525370  0.73387153  0.24175535  1
  O  O381  1  0.85504285  0.73966428  0.73484816  1
  O  O382  1  0.36358192  0.52884105  0.50686864  1
  O  O383  1  0.37521893  0.48840983  1.01535037  1
  O  O384  1  0.38862650  1.01327010  0.50353369  1
  O  O385  1  0.38449866  1.01121924  0.99641476  1
  O  O386  1  0.87888420  0.49655665  0.49910203  1
  O  O387  1  0.87591785  0.48734779  0.99306839  1
  O  O388  1  0.86794084  0.98209577  0.50680016  1
  O  O389  1  0.88107285  0.99276358  0.98984815  1
  O  O390  1  0.11975977  0.00512434  0.00704518  1
  O  O391  1  0.14329771  0.01733291  0.50244179  1
  O  O392  1  0.13154116  0.51211437  0.00806285  1
  O  O393  1  0.10826768  0.50354568  0.50924495  1
  O  O394  1  0.61251365  0.01065624  0.00288744  1
  O  O395  1  0.62344034  0.00964532  0.51221555  1
  O  O396  1  0.63074255  0.50436745  0.01756721  1
  O  O397  1  0.63316073  0.51607879  0.47729070  1
  O  O398  1  0.37098602  0.37025435  0.12687620  1
  O  O399  1  0.37551412  0.36631272  0.62772258  1
  O  O400  1  0.36303472  0.86689346  0.12486242  1
  O  O401  1  0.35565851  0.86263520  0.63482469  1
  O  O402  1  0.86900793  0.37909531  0.11413532  1
  O  O403  1  0.86498696  0.37655067  0.61460904  1
  O  O404  1  0.87613729  0.87937115  0.10134756  1
  O  O405  1  0.87107233  0.85993944  0.62357946  1
  O  O406  1  0.14020052  0.13662857  0.38930800  1
  O  O407  1  0.13213617  0.13514777  0.87899400  1
  O  O408  1  0.12121516  0.61939053  0.38252195  1
  O  O409  1  0.12541068  0.61877948  0.88149051  1
  O  O410  1  0.63367855  0.12072045  0.38701336  1
  O  O411  1  0.62928811  0.13770173  0.88963690  1
  O  O412  1  0.63210014  0.63862710  0.36800982  1
  O  O413  1  0.63831259  0.62155560  0.89451853  1
