# generated using pymatgen
data_V79Zn79O256
_symmetry_space_group_name_H-M   'P 1'
_cell_length_a   16.99620421
_cell_length_b   16.93374109
_cell_length_c   16.96164822
_cell_angle_alpha   90.10514837
_cell_angle_beta   90.09914977
_cell_angle_gamma   90.16233885
_symmetry_Int_Tables_number   1
_chemical_formula_structural   V79Zn79O256
_chemical_formula_sum   'V79 Zn79 O256'
_cell_volume   4881.68529826
_cell_formula_units_Z   1
loop_
 _symmetry_equiv_pos_site_id
 _symmetry_equiv_pos_as_xyz
  1  'x, y, z'
loop_
 _atom_site_type_symbol
 _atom_site_label
 _atom_site_symmetry_multiplicity
 _atom_site_fract_x
 _atom_site_fract_y
 _atom_site_fract_z
 _atom_site_occupancy
  V  V0  1  0.36397154  0.00876236  0.37026405  1
  V  V1  1  0.74404948  0.24680880  0.00198197  1
  V  V2  1  0.25073149  0.49037378  0.75596351  1
  V  V3  1  0.49424247  0.62286086  0.62698810  1
  V  V4  1  0.49993623  0.87997874  0.35955500  1
  V  V5  1  0.37648731  0.61632782  0.76722758  1
  V  V6  1  0.25659134  0.88309052  0.62966419  1
  V  V7  1  0.87070138  0.38385379  -0.00135549  1
  V  V8  1  0.37437533  0.24820127  0.62106739  1
  V  V9  1  0.62920593  0.01480235  0.11892241  1
  V  V10  1  0.23926708  0.74739849  0.00743285  1
  V  V11  1  0.87173311  0.11807595  0.73591345  1
  V  V12  1  0.13019562  0.25228512  0.36472318  1
  V  V13  1  0.00136431  0.74966619  0.25214593  1
  V  V14  1  -0.00374516  0.37664911  0.87713975  1
  V  V15  1  0.75194113  0.61823617  0.86373231  1
  V  V16  1  -0.00320987  0.24081885  0.74526364  1
  V  V17  1  0.87220628  0.74981769  0.12470342  1
  V  V18  1  0.61877448  0.75416908  0.37485035  1
  V  V19  1  0.75072483  0.88774770  0.62840826  1
  V  V20  1  0.49834479  0.74724274  0.75116654  1
  V  V21  1  0.13186310  0.00825876  0.62642392  1
  V  V22  1  0.73556462  0.38930515  0.13371572  1
  V  V23  1  0.26134793  0.24310759  -0.00069928  1
  V  V24  1  0.51413438  0.12050959  0.62291972  1
  V  V25  1  0.74908003  0.26048463  0.50108629  1
  V  V26  1  0.87013080  0.27865675  0.62581999  1
  V  V27  1  0.25484891  0.73786334  0.49867743  1
  V  V28  1  0.50380450  0.49486896  0.00700588  1
  V  V29  1  0.24651421  0.61926737  0.34858331  1
  V  V30  1  0.63980090  0.12007669  0.47837382  1
  V  V31  1  0.75016559  0.75014716  0.00111249  1
  V  V32  1  0.87446359  0.87574833  -0.00289250  1
  V  V33  1  0.62820997  0.61437142  0.00637703  1
  V  V34  1  0.13753429  -0.00247360  0.12498051  1
  V  V35  1  -0.00174818  -0.00149498  0.00087734  1
  V  V36  1  -0.00645879  0.87809541  0.37836869  1
  V  V37  1  0.73300762  0.60927041  0.36245706  1
  V  V38  1  0.50341162  0.21829738  0.22042525  1
  V  V39  1  0.49054629  0.62950087  0.13307960  1
  V  V40  1  0.49150954  0.50297542  0.49912614  1
  V  V41  1  0.12078391  0.37432109  0.74829147  1
  V  V42  1  0.23013088  0.61447820  0.89292514  1
  V  V43  1  0.00241106  0.61574519  0.11162190  1
  V  V44  1  0.50767874  0.36871065  0.36291362  1
  V  V45  1  0.62498862  0.25022703  0.87305072  1
  V  V46  1  0.00099536  0.00150213  0.50518993  1
  V  V47  1  0.12901080  0.74606229  0.37660906  1
  V  V48  1  0.36784349  0.50028233  0.35516201  1
  V  V49  1  0.25078184  0.37112462  0.13579167  1
  V  V50  1  0.62683770  0.88446664  0.74714374  1
  V  V51  1  0.87117556  0.00555469  0.87657135  1
  V  V52  1  0.02141536  0.51139504  0.51206625  1
  V  V53  1  0.62584069  0.48727725  0.63159228  1
  V  V54  1  -0.00086514  0.38050451  0.37916353  1
  V  V55  1  0.50671546  0.00814812  0.00029301  1
  V  V56  1  0.87692227  0.25429042  0.12717113  1
  V  V57  1  0.61598347  0.62777561  0.50167506  1
  V  V58  1  0.37651425  0.37654804  -0.00157361  1
  V  V59  1  0.75296922  0.74734257  0.50929741  1
  V  V60  1  0.12111164  0.24287494  0.87746622  1
  V  V61  1  -0.00522518  0.26036410  0.24484860  1
  V  V62  1  0.49467544  0.38100566  0.86730780  1
  V  V63  1  0.50582386  0.25193980  0.74402820  1
  V  V64  1  0.86930635  0.62088593  0.25329856  1
  V  V65  1  0.37591307  0.74689529  0.62480215  1
  V  V66  1  0.87111139  0.49968084  0.38627698  1
  V  V67  1  0.14090448  0.88123158  0.24667966  1
  V  V68  1  0.86840332  0.49628360  0.85527198  1
  V  V69  1  0.74611452  0.12347669  0.88196319  1
  V  V70  1  0.37165250  0.37617019  0.49901285  1
  V  V71  1  0.12132420  0.12711420  0.00070091  1
  V  V72  1  0.63157391  0.86924807  0.23667786  1
  V  V73  1  0.62654658  0.74718638  0.87432530  1
  V  V74  1  0.24671060  0.24458617  0.49513442  1
  V  V75  1  0.49651389  0.87157692  0.87433834  1
  V  V76  1  0.38147873  0.87346962  0.49584698  1
  V  V77  1  0.36695219  0.00332933  0.87046838  1
  V  V78  1  0.37711837  0.86474920  0.01641628  1
  Zn  Zn79  1  0.91090797  0.84592679  0.54092845  1
  Zn  Zn80  1  0.12873595  0.86899490  0.75659488  1
  Zn  Zn81  1  0.34920890  0.14069580  0.21503696  1
  Zn  Zn82  1  0.12966290  0.49558906  0.12877405  1
  Zn  Zn83  1  0.19123847  0.07018907  0.31389125  1
  Zn  Zn84  1  0.00510348  0.86788065  0.86536866  1
  Zn  Zn85  1  -0.00339099  0.11797582  0.13382128  1
  Zn  Zn86  1  0.78970240  0.91859362  0.17157995  1
  Zn  Zn87  1  0.23292305  0.38164457  0.61469586  1
  Zn  Zn88  1  0.36376886  0.11476657  0.74323419  1
  Zn  Zn89  1  -0.00205058  0.73394867  0.71398453  1
  Zn  Zn90  1  0.69492647  0.06546311  0.69159019  1
  Zn  Zn91  1  0.50878472  -0.00053898  0.50127080  1
  Zn  Zn92  1  0.12129711  0.12605900  0.49569849  1
  Zn  Zn93  1  0.80653671  0.06000769  0.30709468  1
  Zn  Zn94  1  0.17952293  0.19898214  0.17822080  1
  Zn  Zn95  1  0.18957662  0.18733720  0.68586873  1
  Zn  Zn96  1  0.18250173  0.68829682  0.17996688  1
  Zn  Zn97  1  0.19198061  0.69495961  0.72044581  1
  Zn  Zn98  1  0.68722057  0.20496104  0.20579221  1
  Zn  Zn99  1  0.68967620  0.32350882  0.68513058  1
  Zn  Zn100  1  0.68071356  0.68833665  0.18703239  1
  Zn  Zn101  1  0.68162124  0.68476573  0.68666030  1
  Zn  Zn102  1  0.32808414  0.29875258  0.31133738  1
  Zn  Zn103  1  0.29853649  0.28157336  0.79956532  1
  Zn  Zn104  1  0.32375088  0.80964819  0.28548734  1
  Zn  Zn105  1  0.30398485  0.80240431  0.81896683  1
  Zn  Zn106  1  0.80419429  0.32118175  0.31175536  1
  Zn  Zn107  1  0.81129927  0.30940070  0.80928205  1
  Zn  Zn108  1  0.81014924  0.80164491  0.32255802  1
  Zn  Zn109  1  0.81221913  0.81375382  0.81272881  1
  Zn  Zn110  1  0.18639201  0.43477579  0.42436532  1
  Zn  Zn111  1  0.18404709  0.43418865  0.94520901  1
  Zn  Zn112  1  0.18735788  0.92989013  0.44264834  1
  Zn  Zn113  1  0.18989054  0.92702488  0.94330637  1
  Zn  Zn114  1  0.67891455  0.43596214  0.44067699  1
  Zn  Zn115  1  0.68739112  0.42971554  0.92560532  1
  Zn  Zn116  1  0.68952314  0.93656123  0.43840907  1
  Zn  Zn117  1  0.68873130  0.93574470  0.93846342  1
  Zn  Zn118  1  0.31183374  0.05943593  0.04389268  1
  Zn  Zn119  1  0.31781424  0.06372995  0.54991899  1
  Zn  Zn120  1  0.31514624  0.55343339  0.06443957  1
  Zn  Zn121  1  0.30691533  0.55793086  0.57269995  1
  Zn  Zn122  1  0.80327635  0.07676878  0.13906443  1
  Zn  Zn123  1  0.82661354  0.05266166  0.46750659  1
  Zn  Zn124  1  0.81299017  0.56284180  0.06163100  1
  Zn  Zn125  1  0.80532784  0.54691646  0.55149248  1
  Zn  Zn126  1  0.43650539  0.42974201  0.17929804  1
  Zn  Zn127  1  0.43395946  0.43713077  0.68773318  1
  Zn  Zn128  1  0.41968640  0.98737554  0.16825794  1
  Zn  Zn129  1  0.43810652  0.93685454  0.68828145  1
  Zn  Zn130  1  0.92890017  0.43804227  0.19079086  1
  Zn  Zn131  1  0.93435074  0.55518351  0.68120146  1
  Zn  Zn132  1  0.95166571  0.93850689  0.19234215  1
  Zn  Zn133  1  0.94637929  0.93374940  0.69339105  1
  Zn  Zn134  1  -0.00149782  0.09421107  0.34504038  1
  Zn  Zn135  1  0.08927093  0.03194267  0.83175979  1
  Zn  Zn136  1  0.06109841  0.55919256  0.30372024  1
  Zn  Zn137  1  0.05978094  0.55981368  0.81114750  1
  Zn  Zn138  1  0.57027794  0.05482246  0.30480056  1
  Zn  Zn139  1  0.55427257  0.06596018  0.81280223  1
  Zn  Zn140  1  0.56223081  0.55406976  0.31398465  1
  Zn  Zn141  1  0.56597037  0.56031726  0.81444679  1
  Zn  Zn142  1  0.44495701  0.18667413  0.43738244  1
  Zn  Zn143  1  0.44256513  0.18555953  0.93403143  1
  Zn  Zn144  1  0.41672035  0.70480394  0.39466452  1
  Zn  Zn145  1  0.44076552  0.68564810  0.94712882  1
  Zn  Zn146  1  0.89792404  0.21471422  0.41771371  1
  Zn  Zn147  1  0.93471965  0.18846171  0.94398013  1
  Zn  Zn148  1  0.93690458  0.67354386  0.54753494  1
  Zn  Zn149  1  0.93278917  0.67681295  0.93349386  1
  Zn  Zn150  1  0.07061059  0.34145543  0.05626023  1
  Zn  Zn151  1  0.05475862  0.31206123  0.56005063  1
  Zn  Zn152  1  0.05982539  0.81187259  0.06415977  1
  Zn  Zn153  1  0.08588501  0.78442374  0.58052486  1
  Zn  Zn154  1  0.56246850  0.30731308  0.06078338  1
  Zn  Zn155  1  0.56056080  0.30644748  0.54636523  1
  Zn  Zn156  1  0.55677246  0.80458672  0.06027654  1
  Zn  Zn157  1  0.56254412  0.81393637  0.56444446  1
  O  O158  1  0.11973730  0.11762667  0.11566828  1
  O  O159  1  0.13607462  0.11289275  0.61608537  1
  O  O160  1  0.10470459  0.62189146  0.12881923  1
  O  O161  1  0.10126919  0.70649716  0.66276263  1
  O  O162  1  0.63004717  0.11117782  0.12178032  1
  O  O163  1  0.61399351  0.12199338  0.63257924  1
  O  O164  1  0.62441606  0.62511846  0.10967422  1
  O  O165  1  0.61345352  0.61802950  0.61574468  1
  O  O166  1  0.37597193  0.38688859  0.38230211  1
  O  O167  1  0.39145179  0.36104472  0.88364194  1
  O  O168  1  0.38855000  0.88192298  0.37864903  1
  O  O169  1  0.38685150  0.87622148  0.87368909  1
  O  O170  1  0.88368709  0.39274628  0.36693260  1
  O  O171  1  0.87588978  0.38108073  0.87832066  1
  O  O172  1  0.89501550  0.86533337  0.37001889  1
  O  O173  1  0.87246829  0.88997410  0.88284666  1
  O  O174  1  0.25817130  0.00226548  0.38165677  1
  O  O175  1  0.26950120  -0.00728681  0.88584873  1
  O  O176  1  0.25591818  0.50806929  0.36947856  1
  O  O177  1  0.24622234  0.50620522  0.87574831  1
  O  O178  1  0.77167878  -0.01057276  0.38855930  1
  O  O179  1  0.75997272  0.00995951  0.88681860  1
  O  O180  1  0.76864290  0.49924202  0.40800956  1
  O  O181  1  0.75940897  0.50455365  0.87709248  1
  O  O182  1  0.25172431  0.47553963  0.11963617  1
  O  O183  1  0.24935398  0.49308230  0.64695119  1
  O  O184  1  0.23410084  0.99486558  0.10621114  1
  O  O185  1  0.24595508  0.99103065  0.60632424  1
  O  O186  1  0.75191008  0.48878743  0.12177613  1
  O  O187  1  0.72260493  0.49570868  0.60847706  1
  O  O188  1  0.73149853  0.99066204  0.10341906  1
  O  O189  1  0.74260518  0.98611523  0.62291498  1
  O  O190  1  -0.00638982  0.36974233  0.25957442  1
  O  O191  1  0.00735447  0.35839430  0.76431909  1
  O  O192  1  0.01211180  0.86842410  0.25933256  1
  O  O193  1  0.01287784  0.85874450  0.74629151  1
  O  O194  1  0.48745480  0.37202372  0.26281003  1
  O  O195  1  0.49580570  0.37188945  0.76212422  1
  O  O196  1  0.51277710  0.87627595  0.26009996  1
  O  O197  1  0.50682500  0.86853832  0.75601893  1
  O  O198  1  0.50664614  0.11640685  0.23457582  1
  O  O199  1  0.49200582  0.13441763  0.73732220  1
  O  O200  1  0.51408949  0.60540773  0.22882200  1
  O  O201  1  0.49425549  0.62674008  0.74633629  1
  O  O202  1  0.99641667  0.15130267  0.24457924  1
  O  O203  1  0.98336953  0.13699529  0.75551256  1
  O  O204  1  0.98783708  0.63695309  0.24992271  1
  O  O205  1  0.99295342  0.62196029  0.75038733  1
  O  O206  1  0.36349753  0.24835067  -0.01181314  1
  O  O207  1  0.36829461  0.25823929  0.49958143  1
  O  O208  1  0.38063780  0.76178678  0.00695828  1
  O  O209  1  0.37262747  0.75488300  0.49907907  1
  O  O210  1  0.86353889  0.26193030  0.00559282  1
  O  O211  1  0.86598921  0.24987260  0.52228620  1
  O  O212  1  0.86940233  0.75462882  0.00592325  1
  O  O213  1  0.85261781  0.75049187  0.49055540  1
  O  O214  1  0.12991601  0.25123721  0.48931861  1
  O  O215  1  0.12264151  0.24172958  0.99538121  1
  O  O216  1  0.14303966  0.76109319  0.48248715  1
  O  O217  1  0.14056739  0.76407622  0.99828007  1
  O  O218  1  0.64072092  0.23417239  0.50396676  1
  O  O219  1  0.63287328  0.25065073  0.98589221  1
  O  O220  1  0.62796237  0.74306442  0.49790167  1
  O  O221  1  0.63369155  0.74139615  0.99374503  1
  O  O222  1  0.49630156  0.23923473  0.12120866  1
  O  O223  1  0.49597544  0.24104692  0.62332114  1
  O  O224  1  0.50313688  0.72948948  0.12433467  1
  O  O225  1  0.49377884  0.74327341  0.63105280  1
  O  O226  1  0.98596354  0.26981766  0.12756681  1
  O  O227  1  0.98330183  0.25724194  0.63472660  1
  O  O228  1  0.99202287  0.74254745  0.13266092  1
  O  O229  1  0.97401016  0.76806492  0.59977830  1
  O  O230  1  -0.00558032  0.26450361  0.36687145  1
  O  O231  1  0.00314929  0.25184909  0.86935536  1
  O  O232  1  0.01571379  0.76000880  0.36414063  1
  O  O233  1  -0.03658311  0.75619376  0.85925477  1
  O  O234  1  0.50241757  0.27033276  0.38746222  1
  O  O235  1  0.50662821  0.25108203  0.86397674  1
  O  O236  1  0.51252391  0.77101490  0.39014277  1
  O  O237  1  0.50551612  0.75553211  0.87224091  1
  O  O238  1  0.25077999  0.14198786  0.49484550  1
  O  O239  1  0.23766237  0.13604757  0.99912483  1
  O  O240  1  0.25414810  0.63700360  0.50834522  1
  O  O241  1  0.24276361  0.61784766  0.99871373  1
  O  O242  1  0.74231248  0.12992310  0.49890058  1
  O  O243  1  0.75212345  0.13984019  0.99135313  1
  O  O244  1  0.73085799  0.62974414  0.48713854  1
  O  O245  1  0.74595980  0.63137624  0.99208329  1
  O  O246  1  0.26085178  0.36109156  0.00269081  1
  O  O247  1  0.25813691  0.37004211  0.49643582  1
  O  O248  1  0.26756480  0.85762603  -0.00668247  1
  O  O249  1  0.26743030  0.86469965  0.49908187  1
  O  O250  1  0.75438684  0.36568210  0.00084851  1
  O  O251  1  0.73459992  0.35901080  0.50181037  1
  O  O252  1  0.76004234  0.86028046  -0.00683373  1
  O  O253  1  0.73802143  0.85895759  0.51802971  1
  O  O254  1  0.12420908  0.49623553  0.24037511  1
  O  O255  1  0.13358345  0.48222007  0.76283391  1
  O  O256  1  0.13258352  0.98866564  0.24415233  1
  O  O257  1  0.13143515  1.00452472  0.72794291  1
  O  O258  1  0.67717675  0.54444813  0.30595868  1
  O  O259  1  0.61725672  0.50384335  0.72999285  1
  O  O260  1  0.62445092  0.98206680  0.22836546  1
  O  O261  1  0.62391941  0.98956838  0.75535355  1
  O  O262  1  0.37411919  -0.00636262  0.27111463  1
  O  O263  1  0.38282452  0.00107147  0.76488458  1
  O  O264  1  0.37563365  0.49621580  0.25837813  1
  O  O265  1  0.36549766  0.50470918  0.75104100  1
  O  O266  1  0.86141945  0.00006745  0.21634511  1
  O  O267  1  0.88633111  0.01046443  0.76364691  1
  O  O268  1  0.87726378  0.51363478  0.26372621  1
  O  O269  1  0.86775507  0.49247011  0.75807445  1
  O  O270  1  0.10927487  0.36240092  0.37287933  1
  O  O271  1  0.11322181  0.36188644  0.87178017  1
  O  O272  1  0.12644691  0.86656582  0.36058792  1
  O  O273  1  0.11140513  0.91915115  0.86405029  1
  O  O274  1  0.60467372  0.39436094  0.36816936  1
  O  O275  1  0.60581021  0.36059760  0.87920289  1
  O  O276  1  0.61696153  0.87328440  0.36864616  1
  O  O277  1  0.61771454  0.86801223  0.86873687  1
  O  O278  1  0.38118622  0.08599384  0.12528918  1
  O  O279  1  0.38195388  0.13820870  0.61643582  1
  O  O280  1  0.39182214  0.61413277  0.12096229  1
  O  O281  1  0.37753345  0.62796060  0.63754548  1
  O  O282  1  0.88389674  0.15163736  0.10996446  1
  O  O283  1  0.86810112  0.11293404  0.64036374  1
  O  O284  1  0.88122902  0.63357229  0.13158017  1
  O  O285  1  0.86714677  0.61486425  0.61326285  1
  O  O286  1  0.25497962  0.25190191  0.10450030  1
  O  O287  1  0.25871702  0.25903776  0.61055944  1
  O  O288  1  0.25395668  0.73520863  0.10664004  1
  O  O289  1  0.26171257  0.76565014  0.61536609  1
  O  O290  1  0.75821626  0.26046417  0.11756229  1
  O  O291  1  0.76034299  0.25748940  0.61944433  1
  O  O292  1  0.76160864  0.74278390  0.11368396  1
  O  O293  1  0.74649359  0.74039566  0.61083237  1
  O  O294  1  0.23432886  0.26102194  0.37717397  1
  O  O295  1  0.23030185  0.25705239  0.89219654  1
  O  O296  1  0.24871705  0.73085576  0.37757367  1
  O  O297  1  0.26997457  0.71793522  0.90131471  1
  O  O298  1  0.78093365  0.25186432  0.39843235  1
  O  O299  1  0.74334564  0.24237421  0.88182871  1
  O  O300  1  0.73308945  0.74054829  0.38556376  1
  O  O301  1  0.74727067  0.74057906  0.88382272  1
  O  O302  1  0.00594963  0.11731824  0.00618100  1
  O  O303  1  0.00170533  0.10182289  0.49743495  1
  O  O304  1  -0.00477355  0.62923922  0.01262535  1
  O  O305  1  0.01705128  0.61177711  0.49605077  1
  O  O306  1  0.50193607  0.10655835  -0.00640363  1
  O  O307  1  0.51768150  0.12929103  0.51095983  1
  O  O308  1  0.50947001  0.61386516  0.00721646  1
  O  O309  1  0.49961401  0.61699713  0.50592338  1
  O  O310  1  0.49006969  0.38593247  0.48908716  1
  O  O311  1  0.49529106  0.37686040  0.99134750  1
  O  O312  1  0.49328472  0.87891481  0.49863493  1
  O  O313  1  0.49282105  0.87395371  0.99059753  1
  O  O314  1  0.99788885  0.37846873  0.48262325  1
  O  O315  1  0.98143576  0.36017658  0.98407925  1
  O  O316  1  1.01115569  0.87369285  0.48201289  1
  O  O317  1  0.99083773  0.87881914  0.99483671  1
  O  O318  1  0.48167404  0.49795879  0.38039548  1
  O  O319  1  0.50387110  0.48443909  0.87979656  1
  O  O320  1  0.50030179  0.98719401  0.37660514  1
  O  O321  1  0.49889321  0.98825521  0.88369195  1
  O  O322  1  0.99736476  0.49150036  0.37663294  1
  O  O323  1  0.98293153  0.48581977  0.86840429  1
  O  O324  1  1.00971666  0.98472809  0.38542144  1
  O  O325  1  0.98498547  1.00800852  0.89063868  1
  O  O326  1  0.01161500  -0.00093567  0.11428127  1
  O  O327  1  0.02269565  -0.01470436  0.61445409  1
  O  O328  1  -0.01352660  0.51654733  0.12834884  1
  O  O329  1  0.00381796  0.49517741  0.60909141  1
  O  O330  1  0.51706868  -0.01204463  0.10664844  1
  O  O331  1  0.49010970  0.01868515  0.62317002  1
  O  O332  1  0.50350656  0.49682389  0.11015097  1
  O  O333  1  0.50150985  0.50302449  0.61537000  1
  O  O334  1  0.27651875  0.35926154  0.23159515  1
  O  O335  1  0.23964956  0.37598841  0.75786692  1
  O  O336  1  0.23933261  0.86712987  0.24796757  1
  O  O337  1  0.27778542  0.89032272  0.72483857  1
  O  O338  1  0.74451715  0.37323235  0.23382991  1
  O  O339  1  0.73065511  0.37403803  0.77395209  1
  O  O340  1  0.73593640  0.86369776  0.25474996  1
  O  O341  1  0.73934309  0.86471388  0.73957710  1
  O  O342  1  0.24477529  0.14433279  0.25127785  1
  O  O343  1  0.27048896  0.17196234  0.75947020  1
  O  O344  1  0.25230970  0.62616721  0.25144971  1
  O  O345  1  0.25756291  0.61267273  0.77070711  1
  O  O346  1  0.75593981  0.12519711  0.23159052  1
  O  O347  1  0.76512008  0.12100485  0.76374998  1
  O  O348  1  0.76582509  0.65029046  0.25468156  1
  O  O349  1  0.74399674  0.63155906  0.76528036  1
  O  O350  1  0.38477851  0.10678482  0.38364319  1
  O  O351  1  0.38183956  0.10518447  0.87804377  1
  O  O352  1  0.35801657  0.60653136  0.37856500  1
  O  O353  1  0.38755364  0.62064478  0.86726018  1
  O  O354  1  0.88884953  0.10897425  0.38009898  1
  O  O355  1  0.86435563  0.12099581  0.87700336  1
  O  O356  1  0.85280370  0.61149365  0.36725498  1
  O  O357  1  0.86586566  0.60258986  0.87869497  1
  O  O358  1  0.15020262  0.35016258  0.13993907  1
  O  O359  1  0.12146084  0.36026720  0.64342533  1
  O  O360  1  0.11767850  0.88089165  0.14056220  1
  O  O361  1  0.14931941  0.88019080  0.62697530  1
  O  O362  1  0.63821054  0.37400447  0.11378669  1
  O  O363  1  0.61074290  0.38241588  0.62028348  1
  O  O364  1  0.62580095  0.85871743  0.13670997  1
  O  O365  1  0.63285023  0.86741266  0.63848616  1
  O  O366  1  0.11337867  0.25294026  0.26225273  1
  O  O367  1  0.11536922  0.24920612  0.75956096  1
  O  O368  1  0.11996119  0.75788809  0.25277580  1
  O  O369  1  0.19553361  0.78461641  0.78948029  1
  O  O370  1  0.59652546  0.25084066  0.24804655  1
  O  O371  1  0.61047316  0.25427071  0.75196389  1
  O  O372  1  0.62368186  0.75817602  0.26284134  1
  O  O373  1  0.61580547  0.75400703  0.75680978  1
  O  O374  1  0.40325429  0.23175046  0.26192573  1
  O  O375  1  0.39296374  0.26276394  0.73118609  1
  O  O376  1  0.39974463  0.73634307  0.28683025  1
  O  O377  1  0.38010426  0.73815055  0.74710787  1
  O  O378  1  0.87649002  0.26213004  0.23270807  1
  O  O379  1  0.87596513  0.24082712  0.73907919  1
  O  O380  1  0.88503746  0.74947285  0.24299078  1
  O  O381  1  0.90645043  0.74937177  0.79313639  1
  O  O382  1  0.37749016  0.49259131  0.50219059  1
  O  O383  1  0.38866112  0.48616563  0.99608756  1
  O  O384  1  0.38136311  0.98909699  0.48803766  1
  O  O385  1  0.38945639  0.98344585  0.98747175  1
  O  O386  1  0.89896263  0.50538279  0.48541165  1
  O  O387  1  0.87052781  0.48650195  0.99433632  1
  O  O388  1  0.90128463  0.97740123  0.51531240  1
  O  O389  1  0.88323339  0.98805608  0.99959574  1
  O  O390  1  0.11648667  0.00629443  0.00462535  1
  O  O391  1  0.12112157  -0.00135890  0.50656819  1
  O  O392  1  0.10880553  0.45128602  0.02590033  1
  O  O393  1  0.11947096  0.48746912  0.49763552  1
  O  O394  1  0.61387281  -0.00756675  0.00355471  1
  O  O395  1  0.62608656  0.01591267  0.49806286  1
  O  O396  1  0.61765524  0.50658397  -0.01232548  1
  O  O397  1  0.60688508  0.50916881  0.50156514  1
  O  O398  1  0.37207656  0.36862159  0.10543772  1
  O  O399  1  0.38008917  0.36563639  0.61003445  1
  O  O400  1  0.38140478  0.88542442  0.11279932  1
  O  O401  1  0.37652918  0.87026198  0.61239982  1
  O  O402  1  0.86344364  0.37233557  0.11570056  1
  O  O403  1  0.87119881  0.37379896  0.62950512  1
  O  O404  1  0.87904865  0.86280522  0.11558235  1
  O  O405  1  0.85432364  0.87820183  0.63830382  1
  O  O406  1  0.11199645  0.14129933  0.37498503  1
  O  O407  1  0.11614642  0.13043453  0.88743435  1
  O  O408  1  0.13839917  0.63259552  0.36318642  1
  O  O409  1  0.13259739  0.62205909  0.87984757  1
  O  O410  1  0.62694016  0.12236573  0.37982550  1
  O  O411  1  0.63477716  0.13572663  0.86319160  1
  O  O412  1  0.61008030  0.63946491  0.38917082  1
  O  O413  1  0.63175694  0.62798978  0.88363986  1
