# generated using pymatgen
data_V79Zn79O256
_symmetry_space_group_name_H-M   'P 1'
_cell_length_a   16.87995127
_cell_length_b   16.90677656
_cell_length_c   16.89664907
_cell_angle_alpha   90.18969783
_cell_angle_beta   89.99781015
_cell_angle_gamma   90.06241959
_symmetry_Int_Tables_number   1
_chemical_formula_structural   V79Zn79O256
_chemical_formula_sum   'V79 Zn79 O256'
_cell_volume   4822.03043742
_cell_formula_units_Z   1
loop_
 _symmetry_equiv_pos_site_id
 _symmetry_equiv_pos_as_xyz
  1  'x, y, z'
loop_
 _atom_site_type_symbol
 _atom_site_label
 _atom_site_symmetry_multiplicity
 _atom_site_fract_x
 _atom_site_fract_y
 _atom_site_fract_z
 _atom_site_occupancy
  V  V0  1  0.88053089  0.25224187  0.13075143  1
  V  V1  1  0.11398175  0.37889276  0.76090698  1
  V  V2  1  0.13312621  0.49361169  0.12861365  1
  V  V3  1  0.39008296  0.49779558  0.37500391  1
  V  V4  1  0.37150041  0.25271471  0.12398296  1
  V  V5  1  0.61846483  0.49832106  0.61706805  1
  V  V6  1  0.24971834  0.74289340  0.49898366  1
  V  V7  1  0.88068489  0.12624785  0.74586695  1
  V  V8  1  0.49816895  0.62118107  0.62831177  1
  V  V9  1  0.62377090  0.76420690  0.86939032  1
  V  V10  1  0.62451593  0.11947371  0.00270855  1
  V  V11  1  0.62735272  0.50601590  0.12611383  1
  V  V12  1  0.75095290  0.38225689  0.13121943  1
  V  V13  1  0.62300959  0.38013365  0.25456780  1
  V  V14  1  0.49809260  0.37457433  0.87365850  1
  V  V15  1  0.62121628  0.37031820  0.74962950  1
  V  V16  1  0.61930764  0.25145254  0.87442130  1
  V  V17  1  0.23581030  0.38652468  0.61919354  1
  V  V18  1  0.36826066  0.63599147  0.25441577  1
  V  V19  1  0.12312386  0.62186423  0.49427279  1
  V  V20  1  0.61919144  0.01045171  0.63387892  1
  V  V21  1  0.75010486  0.12384619  0.87331032  1
  V  V22  1  0.00100819  0.12554003  0.12782434  1
  V  V23  1  0.62809019  0.75762241  0.38714325  1
  V  V24  1  0.10922761  0.12387296  0.49311325  1
  V  V25  1  0.88223936  0.24663940  0.62498629  1
  V  V26  1  0.25539128  0.75173859  -0.00128738  1
  V  V27  1  0.75160316  0.62989706  0.38319624  1
  V  V28  1  0.75098111  0.49779294  0.74985899  1
  V  V29  1  0.37047918  0.74473177  0.63324459  1
  V  V30  1  0.75022755  0.25401976  0.00220824  1
  V  V31  1  0.13069779  0.13046689  -0.00996085  1
  V  V32  1  0.24641351  0.25299906  -0.01285371  1
  V  V33  1  0.87223188  -0.00234842  0.87334148  1
  V  V34  1  0.00357042  0.49724716  -0.00982477  1
  V  V35  1  0.86769130  0.74719779  0.61587102  1
  V  V36  1  0.63161660  0.25001935  0.37724348  1
  V  V37  1  0.00572434  0.75733427  0.25169306  1
  V  V38  1  0.00046338  0.62414220  0.62595016  1
  V  V39  1  0.50307703  0.12178343  0.12571065  1
  V  V40  1  0.00158968  0.62236888  0.12576239  1
  V  V41  1  0.63008540  0.12743448  0.49616704  1
  V  V42  1  0.86942415  0.62149707  0.25205069  1
  V  V43  1  0.37605717  -0.01519766  0.87715756  1
  V  V44  1  0.88006553  0.62898662  0.75116728  1
  V  V45  1  0.49670240  0.76129520  0.75521446  1
  V  V46  1  -0.00047852  -0.00401386  0.00050705  1
  V  V47  1  0.73981948  0.62092696  0.87521351  1
  V  V48  1  0.86824794  0.11427972  0.24877322  1
  V  V49  1  0.00217072  0.49930477  0.49990639  1
  V  V50  1  0.37237620  0.37531321  0.00240641  1
  V  V51  1  0.13039100  0.62788526  -0.00270088  1
  V  V52  1  0.74977067  0.36762601  0.61928200  1
  V  V53  1  0.63869831  -0.00326283  0.13515854  1
  V  V54  1  0.25790597  0.87168592  0.12830464  1
  V  V55  1  0.24756958  0.24117652  0.48890306  1
  V  V56  1  -0.00083453  0.86935889  0.86223721  1
  V  V57  1  0.88527638  0.37581508  -0.00691407  1
  V  V58  1  0.63949352  0.87736702  0.25100759  1
  V  V59  1  0.49996314  0.25499090  0.25554426  1
  V  V60  1  0.74518418  0.74251119  0.00103682  1
  V  V61  1  0.73540824  0.86724878  0.62580678  1
  V  V62  1  0.87091180  0.75334496  0.12499271  1
  V  V63  1  0.24077016  0.87816185  0.63970254  1
  V  V64  1  0.36393069  0.50909778  0.86389563  1
  V  V65  1  0.38642643  0.37465008  0.49384018  1
  V  V66  1  0.49822937  0.63138643  0.12829342  1
  V  V67  1  0.87097038  0.36731054  0.49589028  1
  V  V68  1  0.50386825  0.50571325  0.00089245  1
  V  V69  1  0.01148667  0.36982515  0.36141266  1
  V  V70  1  0.12791881  -0.01119828  0.12571550  1
  V  V71  1  0.38254044  0.24805831  0.63536451  1
  V  V72  1  0.12041438  0.75253687  0.86492254  1
  V  V73  1  0.86763536  0.87108476  0.00243357  1
  V  V74  1  0.86828583  0.49988839  0.36932378  1
  V  V75  1  0.12545335  0.76009271  0.37361326  1
  V  V76  1  0.24639271  0.48701737  0.25503950  1
  V  V77  1  0.11202564  0.01143443  0.63077154  1
  V  V78  1  0.49360389  0.00301693  0.50121220  1
  Zn  Zn79  1  0.06894556  0.19776201  0.30794770  1
  Zn  Zn80  1  0.88273356  0.88339505  0.49838084  1
  Zn  Zn81  1  0.74977073  0.11372457  0.37086074  1
  Zn  Zn82  1  0.74084460  -0.00795735  0.75559364  1
  Zn  Zn83  1  0.35627038  0.11937616  0.26259122  1
  Zn  Zn84  1  0.49919332  0.75534817  0.24888347  1
  Zn  Zn85  1  0.37311039  0.87528918  0.50231518  1
  Zn  Zn86  1  0.33994670  0.00029630  0.36256606  1
  Zn  Zn87  1  0.88640468  0.49680815  0.86876235  1
  Zn  Zn88  1  0.40623451  0.85704110  0.00373137  1
  Zn  Zn89  1  0.89722697  -0.00096419  0.39200167  1
  Zn  Zn90  1  0.00780939  0.25156067  0.77644436  1
  Zn  Zn91  1  0.62154426  0.62490721  0.50046060  1
  Zn  Zn92  1  0.25166004  0.03341519  0.76333712  1
  Zn  Zn93  1  0.48824591  0.87534614  0.37261939  1
  Zn  Zn94  1  0.19815998  0.17110180  0.18841583  1
  Zn  Zn95  1  0.18759233  0.20114392  0.67950190  1
  Zn  Zn96  1  0.19063499  0.68735346  0.18565190  1
  Zn  Zn97  1  0.18953106  0.67537031  0.68736838  1
  Zn  Zn98  1  0.68820604  0.19193142  0.19036621  1
  Zn  Zn99  1  0.68871416  0.18648446  0.68638425  1
  Zn  Zn100  1  0.68708452  0.68995660  0.19338929  1
  Zn  Zn101  1  0.68319743  0.68397212  0.69179664  1
  Zn  Zn102  1  0.31166016  0.31131068  0.31155693  1
  Zn  Zn103  1  0.29840388  0.31926676  0.80485158  1
  Zn  Zn104  1  0.30612053  0.82187071  0.31782463  1
  Zn  Zn105  1  0.31166728  0.81264664  0.82103563  1
  Zn  Zn106  1  0.81132877  0.30884156  0.31285204  1
  Zn  Zn107  1  0.81539756  0.31042589  0.81163540  1
  Zn  Zn108  1  0.81643945  0.81542817  0.31672004  1
  Zn  Zn109  1  0.81045882  0.81171347  0.80902525  1
  Zn  Zn110  1  0.19344265  0.43664543  0.43540859  1
  Zn  Zn111  1  0.18633357  0.43746819  0.94045843  1
  Zn  Zn112  1  0.18748948  0.93151536  0.45820848  1
  Zn  Zn113  1  0.18937496  0.93440595  0.93482033  1
  Zn  Zn114  1  0.68798574  0.43955767  0.43439531  1
  Zn  Zn115  1  0.68922947  0.43868877  0.94039322  1
  Zn  Zn116  1  0.69781615  0.94185197  0.44380197  1
  Zn  Zn117  1  0.68256014  0.93636957  0.94480928  1
  Zn  Zn118  1  0.30812735  0.06613141  0.07385435  1
  Zn  Zn119  1  0.31077867  0.06912428  0.57412691  1
  Zn  Zn120  1  0.31529492  0.56367782  0.06582869  1
  Zn  Zn121  1  0.31687379  0.56277789  0.55965027  1
  Zn  Zn122  1  0.81367600  0.06139401  0.06382821  1
  Zn  Zn123  1  0.80987339  0.05471938  0.56141447  1
  Zn  Zn124  1  0.81555933  0.56255747  0.06015615  1
  Zn  Zn125  1  0.81267101  0.55740837  0.56085299  1
  Zn  Zn126  1  0.43785813  0.44070028  0.18918945  1
  Zn  Zn127  1  0.43172477  0.43070425  0.68446797  1
  Zn  Zn128  1  0.44196500  0.93139690  0.18373402  1
  Zn  Zn129  1  0.43215094  0.94007809  0.69156593  1
  Zn  Zn130  1  0.94101941  0.43831300  0.18315360  1
  Zn  Zn131  1  0.94298418  0.43602924  0.68634021  1
  Zn  Zn132  1  0.98291234  0.96668644  0.24085662  1
  Zn  Zn133  1  0.92802083  0.93751011  0.68348056  1
  Zn  Zn134  1  0.12018509  0.01644003  0.34151245  1
  Zn  Zn135  1  0.06201518  0.05865991  0.81048804  1
  Zn  Zn136  1  0.06145222  0.56289775  0.31468613  1
  Zn  Zn137  1  0.09057299  0.56669312  0.79861535  1
  Zn  Zn138  1  0.51724431  0.04348707  0.29812910  1
  Zn  Zn139  1  0.55481508  0.05947353  0.82063958  1
  Zn  Zn140  1  0.56480136  0.56830695  0.30996633  1
  Zn  Zn141  1  0.55617877  0.56277772  0.80711489  1
  Zn  Zn142  1  0.43696930  0.17994105  0.43831156  1
  Zn  Zn143  1  0.41694207  0.15285598  0.95297258  1
  Zn  Zn144  1  0.44015803  0.68580705  0.43927062  1
  Zn  Zn145  1  0.44003114  0.68298066  0.93480122  1
  Zn  Zn146  1  0.93471495  0.18901052  0.43493115  1
  Zn  Zn147  1  0.93902847  0.18555583  0.94050230  1
  Zn  Zn148  1  0.94885180  0.71415360  0.45108576  1
  Zn  Zn149  1  0.93724901  0.68269575  0.93447075  1
  Zn  Zn150  1  0.09236129  0.28778665  0.12204709  1
  Zn  Zn151  1  0.06060716  0.30818328  0.55418608  1
  Zn  Zn152  1  0.05920528  0.81041142  0.05821384  1
  Zn  Zn153  1  0.05997604  0.81361406  0.56921237  1
  Zn  Zn154  1  0.56063532  0.31541741  0.06425299  1
  Zn  Zn155  1  0.56042904  0.31054806  0.56091635  1
  Zn  Zn156  1  0.57050505  0.81266358  0.06237403  1
  Zn  Zn157  1  0.55476377  0.81562323  0.56593602  1
  O  O158  1  0.11572946  0.11155367  0.10693014  1
  O  O159  1  0.12676278  0.11653199  0.61572519  1
  O  O160  1  0.11742200  0.62050597  0.11871608  1
  O  O161  1  0.10782758  0.63546700  0.60979017  1
  O  O162  1  0.62393229  0.12107242  0.12121864  1
  O  O163  1  0.62539982  0.11752002  0.61840518  1
  O  O164  1  0.61768325  0.61278365  0.13762621  1
  O  O165  1  0.62073930  0.61394434  0.62470665  1
  O  O166  1  0.37352374  0.38610558  0.38095991  1
  O  O167  1  0.38333772  0.37969862  0.88538580  1
  O  O168  1  0.37108010  0.88560757  0.38460750  1
  O  O169  1  0.37387181  0.88039062  0.89294508  1
  O  O170  1  0.87506080  0.38059647  0.37867823  1
  O  O171  1  0.86207269  0.38116996  0.88901994  1
  O  O172  1  0.87639581  0.88129012  0.38130102  1
  O  O173  1  0.87838901  0.87623156  0.88312423  1
  O  O174  1  0.22624778  -0.01568721  0.36767151  1
  O  O175  1  0.26031309  -0.00809206  0.87117386  1
  O  O176  1  0.25627186  0.50115497  0.35973904  1
  O  O177  1  0.26633648  0.49851762  0.88675584  1
  O  O178  1  0.77253323  0.00457196  0.38824075  1
  O  O179  1  0.75072174  0.00875770  0.87814249  1
  O  O180  1  0.76126376  0.50798322  0.37348857  1
  O  O181  1  0.74721370  0.50478571  0.86498699  1
  O  O182  1  0.24433630  0.50709031  0.13842859  1
  O  O183  1  0.25386991  0.48582090  0.61290156  1
  O  O184  1  0.23386648  0.97968530  0.10126464  1
  O  O185  1  0.24945413  0.98430642  0.62972922  1
  O  O186  1  0.74208827  0.49240698  0.11689250  1
  O  O187  1  0.74244395  0.49026704  0.63274247  1
  O  O188  1  0.73785792  1.00624474  0.12941079  1
  O  O189  1  0.73247832  0.99207306  0.63044632  1
  O  O190  1  -0.00112130  0.38084686  0.26153069  1
  O  O191  1  0.00334325  0.37046791  0.75216605  1
  O  O192  1  0.00128994  0.85432714  0.23725619  1
  O  O193  1  -0.01099388  0.87691703  0.76365958  1
  O  O194  1  0.51086289  0.36640719  0.24386385  1
  O  O195  1  0.51346667  0.38130607  0.76034432  1
  O  O196  1  0.51414110  0.87184068  0.25415405  1
  O  O197  1  0.50052642  0.85994535  0.74763217  1
  O  O198  1  0.50971887  0.14053354  0.23351898  1
  O  O199  1  0.47100034  0.14616068  0.78506249  1
  O  O200  1  0.49092351  0.62871186  0.24343459  1
  O  O201  1  0.50535068  0.63776986  0.73717804  1
  O  O202  1  0.98988421  0.12925558  0.23273894  1
  O  O203  1  0.98341855  0.12863970  0.75915410  1
  O  O204  1  0.99310282  0.62919931  0.24014138  1
  O  O205  1  0.98930611  0.61049062  0.73870237  1
  O  O206  1  0.36710119  0.25290924  0.00080819  1
  O  O207  1  0.36975711  0.26098837  0.49860561  1
  O  O208  1  0.36008731  0.74590316  -0.00828340  1
  O  O209  1  0.36449333  0.74572206  0.50953223  1
  O  O210  1  0.86346502  0.25588015  0.00806489  1
  O  O211  1  0.87293581  0.26081165  0.50418976  1
  O  O212  1  0.86802106  0.75191756  0.00438495  1
  O  O213  1  0.85464381  0.72970104  0.51807046  1
  O  O214  1  0.13652617  0.23514392  0.50547901  1
  O  O215  1  0.13740746  0.24169245  1.01180113  1
  O  O216  1  0.12936546  0.74240367  0.49092942  1
  O  O217  1  0.13075697  0.74176840  0.99871808  1
  O  O218  1  0.61656407  0.23808304  0.49188433  1
  O  O219  1  0.63607388  0.24779971  0.99630833  1
  O  O220  1  0.62477300  0.75439156  0.48944756  1
  O  O221  1  0.63689405  0.75092066  0.98713155  1
  O  O222  1  0.49775840  0.24678403  0.13290287  1
  O  O223  1  0.48376980  0.25717214  0.62206297  1
  O  O224  1  0.51138791  0.73430220  0.12445147  1
  O  O225  1  0.49208652  0.74636187  0.63792934  1
  O  O226  1  0.98828010  0.23826623  0.10874120  1
  O  O227  1  0.98224507  0.25266617  0.61965200  1
  O  O228  1  0.99458795  0.73867804  0.13019657  1
  O  O229  1  0.98006075  0.73370531  0.62507769  1
  O  O230  1  -0.00216098  0.26465899  0.37210448  1
  O  O231  1  -0.01027436  0.26304405  0.88565103  1
  O  O232  1  0.00741546  0.74153182  0.35600477  1
  O  O233  1  0.00863649  0.75650032  0.88252159  1
  O  O234  1  0.51150844  0.24161921  0.36201697  1
  O  O235  1  0.51498711  0.26390516  0.88744718  1
  O  O236  1  0.51637964  0.75158293  0.37491827  1
  O  O237  1  0.51272279  0.74503324  0.86785271  1
  O  O238  1  0.25039363  0.13844567  0.50207121  1
  O  O239  1  0.23659613  0.13546296  0.99998266  1
  O  O240  1  0.23798442  0.63407035  0.50822746  1
  O  O241  1  0.24110871  0.63728954  1.01076052  1
  O  O242  1  0.73282535  0.12320775  0.50348865  1
  O  O243  1  0.74521345  0.13403971  0.99354591  1
  O  O244  1  0.74379648  0.61585425  0.48718340  1
  O  O245  1  0.75720019  0.63190340  0.98747950  1
  O  O246  1  0.25892930  0.36283401  -0.00079022  1
  O  O247  1  0.25711090  0.36665921  0.50061264  1
  O  O248  1  0.24527235  0.85797705  0.00599956  1
  O  O249  1  0.25045014  0.85671272  0.51786410  1
  O  O250  1  0.75539966  0.36942292  0.00997447  1
  O  O251  1  0.75959461  0.38325424  0.50853466  1
  O  O252  1  0.76012252  0.86171640  -0.00554135  1
  O  O253  1  0.75669522  0.87859587  0.52370926  1
  O  O254  1  0.13868424  0.51076015  0.24434363  1
  O  O255  1  0.10665217  0.47692518  0.73009037  1
  O  O256  1  0.12189697  1.00506549  0.22364814  1
  O  O257  1  0.13391912  1.01143787  0.73597725  1
  O  O258  1  0.61976862  0.48971913  0.24135490  1
  O  O259  1  0.63345454  0.49016891  0.74264524  1
  O  O260  1  0.62056755  0.99208123  0.24365967  1
  O  O261  1  0.61995561  1.01366720  0.73953708  1
  O  O262  1  0.40957689  0.00828753  0.26160186  1
  O  O263  1  0.36830933  -0.00443804  0.76781761  1
  O  O264  1  0.36703968  0.50331664  0.25830487  1
  O  O265  1  0.37484584  0.48604060  0.76590749  1
  O  O266  1  0.87558539  0.01532095  0.23544552  1
  O  O267  1  0.86879357  0.01002765  0.75581371  1
  O  O268  1  0.88214417  0.51085101  0.25654376  1
  O  O269  1  0.86371183  0.50320327  0.74851011  1
  O  O270  1  0.10953977  0.38040984  0.37692866  1
  O  O271  1  0.13138400  0.37979291  0.86025548  1
  O  O272  1  0.11602043  0.85739050  0.38450829  1
  O  O273  1  0.11243894  0.86205419  0.88231080  1
  O  O274  1  0.63396096  0.36707220  0.36417470  1
  O  O275  1  0.62166020  0.37065494  0.86967461  1
  O  O276  1  0.63258270  0.86720070  0.37042957  1
  O  O277  1  0.63042126  0.86336922  0.87318492  1
  O  O278  1  0.39973868  0.13733485  0.10975596  1
  O  O279  1  0.36947342  0.14724206  0.63261699  1
  O  O280  1  0.38673282  0.61927993  0.14166144  1
  O  O281  1  0.38021864  0.63567968  0.62474823  1
  O  O282  1  0.87968625  0.13300484  0.12779408  1
  O  O283  1  0.85851025  0.13472250  0.63718478  1
  O  O284  1  0.88200231  0.63018002  0.13111041  1
  O  O285  1  0.87442430  0.62737689  0.63287830  1
  O  O286  1  0.26880454  0.24882867  0.11376893  1
  O  O287  1  0.26140957  0.26594601  0.60806761  1
  O  O288  1  0.24408584  0.76095476  0.11280960  1
  O  O289  1  0.25217057  0.74997212  0.62360744  1
  O  O290  1  0.75561844  0.25963878  0.11754285  1
  O  O291  1  0.75396767  0.26367079  0.62796730  1
  O  O292  1  0.75886710  0.73745286  0.11381170  1
  O  O293  1  0.75213597  0.75764856  0.63418054  1
  O  O294  1  0.25079541  0.25339231  0.38802369  1
  O  O295  1  0.25278238  0.25232287  0.88799080  1
  O  O296  1  0.23559302  0.75368187  0.38431658  1
  O  O297  1  0.23314676  0.75479618  0.88864844  1
  O  O298  1  0.73612018  0.23987365  0.36893133  1
  O  O299  1  0.74229016  0.24427604  0.88391862  1
  O  O300  1  0.73941186  0.74232089  0.37245662  1
  O  O301  1  0.74008264  0.74234115  0.87731610  1
  O  O302  1  0.00028909  0.11152386  0.00667330  1
  O  O303  1  0.01033305  0.13355918  0.50189924  1
  O  O304  1  0.00496537  0.61911028  0.01032201  1
  O  O305  1  0.00155635  0.61833416  0.50414904  1
  O  O306  1  0.51887099  0.13906150  0.01133781  1
  O  O307  1  0.51149993  0.11177515  0.50214191  1
  O  O308  1  0.49370555  0.61326024  0.01172721  1
  O  O309  1  0.50411668  0.63293172  0.52041497  1
  O  O310  1  0.48580457  0.37408714  0.49663516  1
  O  O311  1  0.49484792  0.38362232  0.99259700  1
  O  O312  1  0.49449099  0.88618282  0.50149564  1
  O  O313  1  0.50977370  0.89010693  1.01579698  1
  O  O314  1  0.98922477  0.38127796  0.48960599  1
  O  O315  1  0.98949019  0.38767676  1.00767274  1
  O  O316  1  0.98037656  0.82176667  0.49255440  1
  O  O317  1  0.98794016  0.88096833  0.99445198  1
  O  O318  1  0.48971788  0.49876807  0.36771081  1
  O  O319  1  0.49849137  0.49187504  0.88290747  1
  O  O320  1  0.51240453  0.99185934  0.39849117  1
  O  O321  1  0.47869114  1.00173669  0.87482442  1
  O  O322  1  0.98857185  0.49238236  0.38014557  1
  O  O323  1  1.00736862  0.51068743  0.88861123  1
  O  O324  1  1.00602511  1.00024668  0.34678283  1
  O  O325  1  0.99338446  0.99068210  0.88322020  1
  O  O326  1  0.00732527  0.00279706  0.11583178  1
  O  O327  1  0.01342872  -0.00451609  0.63228145  1
  O  O328  1  0.00846339  0.50979039  0.11901408  1
  O  O329  1  -0.01376849  0.50933596  0.60742208  1
  O  O330  1  0.51359793  0.01919541  0.12761170  1
  O  O331  1  0.51304930  -0.00868358  0.62031588  1
  O  O332  1  0.50768497  0.50627679  0.11950693  1
  O  O333  1  0.50850745  0.50668942  0.63623352  1
  O  O334  1  0.25210562  0.38791118  0.24773668  1
  O  O335  1  0.23023447  0.37314098  0.72816470  1
  O  O336  1  0.25193296  0.86824606  0.22798033  1
  O  O337  1  0.24706659  0.86240394  0.73825108  1
  O  O338  1  0.74255375  0.37072755  0.23735518  1
  O  O339  1  0.74287173  0.38093275  0.74292002  1
  O  O340  1  0.73888266  0.87375560  0.25168863  1
  O  O341  1  0.75758839  0.87932478  0.73467526  1
  O  O342  1  0.27666972  0.09804457  0.18844381  1
  O  O343  1  0.25278535  0.14354611  0.74797492  1
  O  O344  1  0.26588635  0.62276035  0.24659918  1
  O  O345  1  0.19801658  0.59512837  0.76143978  1
  O  O346  1  0.76421092  0.12874353  0.24724780  1
  O  O347  1  0.75388825  0.12668444  0.76476721  1
  O  O348  1  0.76338767  0.63036897  0.25954736  1
  O  O349  1  0.75604293  0.61434584  0.75548686  1
  O  O350  1  0.37358277  0.11344097  0.37339614  1
  O  O351  1  0.40904080  0.15301534  0.82909837  1
  O  O352  1  0.38169522  0.61271262  0.36405109  1
  O  O353  1  0.38388977  0.60800336  0.87168443  1
  O  O354  1  0.87985894  0.12682538  0.35535001  1
  O  O355  1  0.86466433  0.11878964  0.87244104  1
  O  O356  1  0.87028386  0.61962785  0.36957281  1
  O  O357  1  0.86590397  0.62027064  0.86600696  1
  O  O358  1  0.12161746  0.39542100  0.11967813  1
  O  O359  1  0.13525622  0.37886588  0.60375237  1
  O  O360  1  0.12490515  0.88383825  0.11859825  1
  O  O361  1  0.13353347  0.88540080  0.62050709  1
  O  O362  1  0.63229008  0.38275955  0.13204718  1
  O  O363  1  0.62944588  0.37749134  0.63069166  1
  O  O364  1  0.62887845  0.88755329  0.13728676  1
  O  O365  1  0.63163394  0.88078764  0.62630746  1
  O  O366  1  0.12516939  0.24341485  0.22285827  1
  O  O367  1  0.11351445  0.27012170  0.73057913  1
  O  O368  1  0.11756131  0.74244477  0.26025540  1
  O  O369  1  0.12541732  0.74536266  0.76704863  1
  O  O370  1  0.61973891  0.26009785  0.25528867  1
  O  O371  1  0.63263676  0.25998642  0.76109003  1
  O  O372  1  0.62521952  0.76415700  0.25712593  1
  O  O373  1  0.61659144  0.74986088  0.76214160  1
  O  O374  1  0.38337093  0.25020230  0.24129720  1
  O  O375  1  0.37450063  0.28002766  0.73189893  1
  O  O376  1  0.37572297  0.73839754  0.26228141  1
  O  O377  1  0.38613359  0.75157204  0.74956858  1
  O  O378  1  0.87303188  0.24715785  0.23428288  1
  O  O379  1  0.87342205  0.24291015  0.74149543  1
  O  O380  1  0.88507344  0.74196498  0.24372113  1
  O  O381  1  0.86771770  0.73320654  0.74303795  1
  O  O382  1  0.37167826  0.49250924  0.48251916  1
  O  O383  1  0.38405775  0.49197554  0.99799817  1
  O  O384  1  0.38933692  1.00456885  0.51353008  1
  O  O385  1  0.36726810  1.04768832  0.96906330  1
  O  O386  1  0.88090097  0.49125991  0.48861140  1
  O  O387  1  0.88587235  0.49421485  0.99788440  1
  O  O388  1  0.89203028  0.99914864  0.51076083  1
  O  O389  1  0.87856227  0.99101905  0.99608073  1
  O  O390  1  0.11448790  0.00634861  -0.00045415  1
  O  O391  1  0.12744894  0.01558775  0.51295658  1
  O  O392  1  0.12282110  0.50972123  0.00756122  1
  O  O393  1  0.11174351  0.50845223  0.48843117  1
  O  O394  1  0.63245286  0.01164882  0.01525061  1
  O  O395  1  0.61928634  0.00939884  0.51308832  1
  O  O396  1  0.61455308  0.49339105  0.01142085  1
  O  O397  1  0.62556001  0.49617086  0.51358347  1
  O  O398  1  0.38730696  0.36686088  0.11078159  1
  O  O399  1  0.36754459  0.37631329  0.60479816  1
  O  O400  1  0.36190290  0.88503412  0.11283646  1
  O  O401  1  0.36271589  0.86044610  0.62711052  1
  O  O402  1  0.86931943  0.37139425  0.11762878  1
  O  O403  1  0.86770083  0.36884480  0.61639672  1
  O  O404  1  0.87904028  0.85748209  0.11342060  1
  O  O405  1  0.87106687  0.85471248  0.62473888  1
  O  O406  1  0.11828648  0.12729975  0.38714343  1
  O  O407  1  0.11439486  0.12413125  0.89180646  1
  O  O408  1  0.11670632  0.63495758  0.38782522  1
  O  O409  1  0.11431531  0.63932502  0.89068577  1
  O  O410  1  0.62651875  0.12874202  0.38831979  1
  O  O411  1  0.63010627  0.13114499  0.88285988  1
  O  O412  1  0.63223266  0.63719952  0.37446978  1
  O  O413  1  0.63604086  0.62850964  0.86826978  1
