# generated using pymatgen
data_V79Zn79O256
_symmetry_space_group_name_H-M   'P 1'
_cell_length_a   16.94601891
_cell_length_b   16.90647708
_cell_length_c   16.92629516
_cell_angle_alpha   89.99637571
_cell_angle_beta   90.03371564
_cell_angle_gamma   90.04482110
_symmetry_Int_Tables_number   1
_chemical_formula_structural   V79Zn79O256
_chemical_formula_sum   'V79 Zn79 O256'
_cell_volume   4849.33858066
_cell_formula_units_Z   1
loop_
 _symmetry_equiv_pos_site_id
 _symmetry_equiv_pos_as_xyz
  1  'x, y, z'
loop_
 _atom_site_type_symbol
 _atom_site_label
 _atom_site_symmetry_multiplicity
 _atom_site_fract_x
 _atom_site_fract_y
 _atom_site_fract_z
 _atom_site_occupancy
  V  V0  1  0.62293926  0.12625235  0.00482819  1
  V  V1  1  0.87568852  -0.00047563  0.87780882  1
  V  V2  1  -0.00927470  0.25217009  0.24392282  1
  V  V3  1  0.62450346  0.87472190  0.74662990  1
  V  V4  1  0.24794524  0.87785343  0.12442117  1
  V  V5  1  0.75247660  0.12983075  0.87535347  1
  V  V6  1  -0.01090531  0.24702250  0.73885012  1
  V  V7  1  0.24284773  0.38812695  0.12540344  1
  V  V8  1  0.50827889  0.37389932  0.87210769  1
  V  V9  1  0.36940452  0.01090531  0.86316722  1
  V  V10  1  0.50144109  0.87285663  0.87384453  1
  V  V11  1  0.24682853  0.63176487  0.87447642  1
  V  V12  1  0.00969488  0.87660673  0.86608023  1
  V  V13  1  0.13108340  0.00564660  0.12698263  1
  V  V14  1  0.13213687  0.37449613  0.74774267  1
  V  V15  1  0.62980305  0.36498364  0.25169872  1
  V  V16  1  0.87091239  0.51041838  0.37441005  1
  V  V17  1  0.84832908  0.87047666  0.53805882  1
  V  V18  1  0.86906653  0.50044281  0.86971142  1
  V  V19  1  -0.00426053  -0.00113302  0.00128578  1
  V  V20  1  0.49494904  0.25322451  0.74624346  1
  V  V21  1  0.66796841  0.70562436  0.37280396  1
  V  V22  1  0.00602580  0.52636566  -0.00739212  1
  V  V23  1  0.73993303  0.63729123  0.88243115  1
  V  V24  1  -0.00938727  0.62881321  0.64985877  1
  V  V25  1  0.62844638  0.00110499  0.62733144  1
  V  V26  1  0.50071178  0.74888548  0.75391187  1
  V  V27  1  -0.00171891  0.37316125  0.87565993  1
  V  V28  1  0.62321723  0.63429658  0.00127126  1
  V  V29  1  0.87665271  0.62980647  0.23916643  1
  V  V30  1  0.50551783  0.50055998  0.49759796  1
  V  V31  1  0.24613362  0.73946941  0.48013576  1
  V  V32  1  0.23322365  0.00321713  0.74869450  1
  V  V33  1  0.37297700  0.87115660  -0.00035522  1
  V  V34  1  0.49907324  0.62352068  0.13617612  1
  V  V35  1  0.75352550  0.50885132  0.25128082  1
  V  V36  1  0.12904384  0.75558779  0.86155069  1
  V  V37  1  0.37147577  0.50133372  0.87377713  1
  V  V38  1  0.37601185  0.37191732  0.00068957  1
  V  V39  1  0.50573457  0.23722561  0.25209604  1
  V  V40  1  -0.00566647  0.51513963  0.50330817  1
  V  V41  1  0.49997075  0.00590651  0.00032587  1
  V  V42  1  0.74978546  0.24728410  0.48223662  1
  V  V43  1  0.35545445  0.00947696  0.37631413  1
  V  V44  1  0.12977333  0.50432162  0.61716651  1
  V  V45  1  0.34901644  0.12681258  0.25363762  1
  V  V46  1  0.37824111  0.36232328  0.51553080  1
  V  V47  1  0.87846349  0.37160766  0.00949614  1
  V  V48  1  0.86714847  0.37527231  0.50266968  1
  V  V49  1  0.12982387  0.12609474  -0.00218462  1
  V  V50  1  0.12547057  0.88012932  0.25139936  1
  V  V51  1  -0.01188055  0.86916066  0.36857944  1
  V  V52  1  0.38154896  0.74687340  0.12837678  1
  V  V53  1  0.62576731  0.49884210  0.62755116  1
  V  V54  1  0.74652559  0.36172508  0.63327797  1
  V  V55  1  0.48936161  0.12817496  0.63348300  1
  V  V56  1  0.50626964  0.36831371  0.37441026  1
  V  V57  1  0.00908530  0.74326938  0.24218588  1
  V  V58  1  0.63007421  0.12930411  0.49105660  1
  V  V59  1  0.25025244  0.24770665  -0.00229125  1
  V  V60  1  0.37465280  0.74876229  0.62469748  1
  V  V61  1  0.35786507  0.49371517  0.37011716  1
  V  V62  1  0.23387535  0.87156197  0.63245309  1
  V  V63  1  0.37820095  0.87976072  0.50254552  1
  V  V64  1  0.63028395  0.49662876  0.12698586  1
  V  V65  1  0.49830397  0.00528852  0.49698669  1
  V  V66  1  0.75378251  0.24954160  0.01450522  1
  V  V67  1  0.74405095  0.49845897  0.75375440  1
  V  V68  1  0.50165992  0.49704566  0.00200955  1
  V  V69  1  0.86984731  0.75908064  0.10462906  1
  V  V70  1  0.00080591  0.09344437  0.61832638  1
  V  V71  1  0.19275591  0.69509359  0.05091607  1
  V  V72  1  0.50347104  0.62637280  0.62250358  1
  V  V73  1  -0.01097312  0.13251051  0.12820975  1
  V  V74  1  0.74940446  -0.00216270  0.74612343  1
  V  V75  1  0.77806224  0.01367057  0.26906860  1
  V  V76  1  -0.00082844  0.37341723  0.37095370  1
  V  V77  1  0.02751146  -0.01992098  0.49340198  1
  V  V78  1  0.12765675  0.24513421  0.87149241  1
  Zn  Zn79  1  0.85576060  0.73679675  0.68092692  1
  Zn  Zn80  1  0.74233521  0.88906940  0.12474428  1
  Zn  Zn81  1  0.13304152  0.38633950  0.24965999  1
  Zn  Zn82  1  0.21350634  0.31783973  0.58406127  1
  Zn  Zn83  1  0.25141014  0.49720368  0.74346498  1
  Zn  Zn84  1  0.49995238  0.12209208  0.12939270  1
  Zn  Zn85  1  0.37804358  0.61961503  0.26233210  1
  Zn  Zn86  1  0.17796026  0.19780103  0.43693332  1
  Zn  Zn87  1  0.37423607  0.62394670  0.74926950  1
  Zn  Zn88  1  0.70928547  0.74858795  0.53756125  1
  Zn  Zn89  1  0.37433077  0.24722898  0.12647697  1
  Zn  Zn90  1  0.86183280  0.12968589  0.72364174  1
  Zn  Zn91  1  0.76880502  0.36868330  0.13409326  1
  Zn  Zn92  1  0.63003433  0.25625535  0.87037442  1
  Zn  Zn93  1  0.62216807  0.87409377  0.25589192  1
  Zn  Zn94  1  0.17539171  0.20643939  0.18820688  1
  Zn  Zn95  1  0.17588595  0.17302314  0.68551675  1
  Zn  Zn96  1  0.22835078  0.73736391  0.26143347  1
  Zn  Zn97  1  0.18649819  0.68288353  0.68717679  1
  Zn  Zn98  1  0.68018664  0.15711290  0.20659025  1
  Zn  Zn99  1  0.67581916  0.18604306  0.69200526  1
  Zn  Zn100  1  0.66808174  0.71780414  0.17443279  1
  Zn  Zn101  1  0.68079378  0.68146634  0.70034015  1
  Zn  Zn102  1  0.31780160  0.31099828  0.31211706  1
  Zn  Zn103  1  0.31537601  0.30688727  0.81083837  1
  Zn  Zn104  1  0.37130827  0.79820002  0.33146959  1
  Zn  Zn105  1  0.31300400  0.81547120  0.81176157  1
  Zn  Zn106  1  0.81863776  0.31232334  0.31133268  1
  Zn  Zn107  1  0.81195471  0.31396225  0.81563380  1
  Zn  Zn108  1  0.81104524  0.81999543  0.29206541  1
  Zn  Zn109  1  0.80798012  0.81945741  0.82680809  1
  Zn  Zn110  1  0.19628439  0.36906304  0.42590247  1
  Zn  Zn111  1  0.18619930  0.43843695  0.93953226  1
  Zn  Zn112  1  0.19692345  0.92489985  0.43745994  1
  Zn  Zn113  1  0.19000595  0.93917901  0.93850148  1
  Zn  Zn114  1  0.68719485  0.44188705  0.43766065  1
  Zn  Zn115  1  0.69077658  0.43600122  0.94752021  1
  Zn  Zn116  1  0.69938281  0.93915073  0.43530084  1
  Zn  Zn117  1  0.68903088  0.94409627  0.93475988  1
  Zn  Zn118  1  0.31647452  0.06127446  0.06128951  1
  Zn  Zn119  1  0.30237388  0.06375751  0.57078833  1
  Zn  Zn120  1  0.31716611  0.56132981  0.06089802  1
  Zn  Zn121  1  0.31554453  0.55693275  0.55337924  1
  Zn  Zn122  1  0.80779707  0.06169508  0.06660962  1
  Zn  Zn123  1  0.84990667  0.07663391  0.50294474  1
  Zn  Zn124  1  0.81874913  0.56405685  0.05816837  1
  Zn  Zn125  1  0.80766008  0.57371497  0.56696083  1
  Zn  Zn126  1  0.43755633  0.43440764  0.19062646  1
  Zn  Zn127  1  0.44081960  0.43801337  0.69083205  1
  Zn  Zn128  1  0.43266015  0.94123451  0.18854550  1
  Zn  Zn129  1  0.43766223  0.93725213  0.68408962  1
  Zn  Zn130  1  0.96935290  0.45973806  0.18583518  1
  Zn  Zn131  1  0.93369190  0.43872878  0.68742042  1
  Zn  Zn132  1  0.93407995  0.93771173  0.18098678  1
  Zn  Zn133  1  0.93336944  0.93439998  0.69190380  1
  Zn  Zn134  1  0.07492138  0.06277624  0.31257419  1
  Zn  Zn135  1  0.05786982  0.06596663  0.80970896  1
  Zn  Zn136  1  0.06337083  0.55532622  0.30760013  1
  Zn  Zn137  1  0.06851434  0.56086218  0.81956143  1
  Zn  Zn138  1  0.56677774  0.01977249  0.31152599  1
  Zn  Zn139  1  0.56244641  0.06520938  0.81674949  1
  Zn  Zn140  1  0.56514541  0.55626235  0.31480829  1
  Zn  Zn141  1  0.56240014  0.56003209  0.81206341  1
  Zn  Zn142  1  0.44017851  0.18437648  0.43549465  1
  Zn  Zn143  1  0.43632843  0.18870877  0.92974528  1
  Zn  Zn144  1  0.43317041  0.67908244  0.44103156  1
  Zn  Zn145  1  0.43954412  0.68615772  0.94242687  1
  Zn  Zn146  1  0.98888475  0.16138236  0.41617599  1
  Zn  Zn147  1  0.93670986  0.18801773  0.93768466  1
  Zn  Zn148  1  0.84770162  0.69536884  0.43910773  1
  Zn  Zn149  1  0.92428820  0.69845308  0.89383705  1
  Zn  Zn150  1  0.06220511  0.31388902  0.06155959  1
  Zn  Zn151  1  0.04864115  0.32001051  0.55930313  1
  Zn  Zn152  1  0.05442460  0.81304307  0.05920739  1
  Zn  Zn153  1  0.06058669  0.79036888  0.55442947  1
  Zn  Zn154  1  0.56515658  0.30588177  0.06577170  1
  Zn  Zn155  1  0.56552563  0.31145314  0.56378702  1
  Zn  Zn156  1  0.59777783  0.84140801  0.04480952  1
  Zn  Zn157  1  0.54378357  0.83170173  0.41178164  1
  O  O158  1  0.12105999  0.12221810  0.11589086  1
  O  O159  1  0.09273406  0.13575449  0.61802793  1
  O  O160  1  0.13945170  0.64186904  0.10979117  1
  O  O161  1  0.11191661  0.60843297  0.63605460  1
  O  O162  1  0.62123584  0.13092368  0.10754371  1
  O  O163  1  0.61724739  0.11451762  0.62180543  1
  O  O164  1  0.61739441  0.61823655  0.12245448  1
  O  O165  1  0.61211595  0.61457141  0.63033809  1
  O  O166  1  0.39044863  0.38146856  0.37944418  1
  O  O167  1  0.38107601  0.38142631  0.88340821  1
  O  O168  1  0.36572745  0.90018886  0.38746193  1
  O  O169  1  0.38295588  0.88001269  0.88319216  1
  O  O170  1  0.87805402  0.38737596  0.38467491  1
  O  O171  1  0.88221526  0.37983006  0.88158471  1
  O  O172  1  0.89087697  0.87489887  0.36376990  1
  O  O173  1  0.88781781  0.89353925  0.87832239  1
  O  O174  1  0.25716271  0.01546191  0.39282594  1
  O  O175  1  0.26050381  -0.01043777  0.86090601  1
  O  O176  1  0.26208669  0.47487756  0.38017622  1
  O  O177  1  0.25912280  0.50777973  0.87744911  1
  O  O178  1  0.76872187  0.00172560  0.37184656  1
  O  O179  1  0.75739352  0.01037544  0.87002023  1
  O  O180  1  0.76156982  0.49115791  0.36342054  1
  O  O181  1  0.75345946  0.48681208  0.86682048  1
  O  O182  1  0.25564783  0.48741559  0.11838412  1
  O  O183  1  0.23463165  0.50797269  0.62343725  1
  O  O184  1  0.24041691  0.99299434  0.11878939  1
  O  O185  1  0.24970015  0.98262743  0.63541479  1
  O  O186  1  0.74339261  0.49760656  0.13134251  1
  O  O187  1  0.74063326  0.50157800  0.63551481  1
  O  O188  1  0.76133639  1.00197689  0.14545606  1
  O  O189  1  0.74110246  1.00456854  0.64212720  1
  O  O190  1  -0.02144503  0.36851590  0.26378089  1
  O  O191  1  0.00378476  0.36546046  0.75837871  1
  O  O192  1  0.00856727  0.87592224  0.25403503  1
  O  O193  1  0.00422954  0.88566064  0.76805090  1
  O  O194  1  0.50907694  0.36494872  0.25560959  1
  O  O195  1  0.49850161  0.36470398  0.75884137  1
  O  O196  1  0.51940560  0.93025046  0.25331479  1
  O  O197  1  0.50283773  0.86904367  0.75505029  1
  O  O198  1  0.50547173  0.13364573  0.25281802  1
  O  O199  1  0.50236008  0.13153485  0.74071483  1
  O  O200  1  0.49912484  0.61346943  0.23927820  1
  O  O201  1  0.49746556  0.63145996  0.74504194  1
  O  O202  1  1.00784352  0.13833953  0.23612576  1
  O  O203  1  0.99530647  0.13400162  0.73837119  1
  O  O204  1  0.99708782  0.64000881  0.25229749  1
  O  O205  1  0.99831302  0.61847309  0.74983018  1
  O  O206  1  0.36667320  0.25596436  -0.00428145  1
  O  O207  1  0.38641735  0.26401793  0.49625965  1
  O  O208  1  0.38296297  0.76373352  0.01044906  1
  O  O209  1  0.36887655  0.75914759  0.51003497  1
  O  O210  1  0.86693939  0.26004834  -0.00554885  1
  O  O211  1  0.85499933  0.26771779  0.50204107  1
  O  O212  1  0.88312195  0.74341211  0.00729551  1
  O  O213  1  0.88651775  0.78511432  0.49820100  1
  O  O214  1  0.13672210  0.28861210  0.50068815  1
  O  O215  1  0.13047449  0.24458505  0.99118303  1
  O  O216  1  0.14734608  0.75093534  0.49115091  1
  O  O217  1  0.13084123  0.75594726  0.99320703  1
  O  O218  1  0.63667965  0.24001936  0.50528752  1
  O  O219  1  0.63530434  0.24547573  0.99394429  1
  O  O220  1  0.62517818  0.75354142  0.45617334  1
  O  O221  1  0.60872561  0.73164567  1.00120801  1
  O  O222  1  0.49434836  0.24633072  0.13608709  1
  O  O223  1  0.50612672  0.24022820  0.63570220  1
  O  O224  1  0.48421992  0.73878997  0.13277347  1
  O  O225  1  0.48898123  0.73879014  0.63422685  1
  O  O226  1  0.99867837  0.24263113  0.12829554  1
  O  O227  1  0.99257558  0.26277565  0.64017483  1
  O  O228  1  0.98900831  0.75957333  0.13643679  1
  O  O229  1  1.00681054  0.72814898  0.63044836  1
  O  O230  1  -0.00376623  0.26905095  0.36738148  1
  O  O231  1  0.00759637  0.25451359  0.86626802  1
  O  O232  1  0.00524685  0.76622065  0.35199780  1
  O  O233  1  0.01362686  0.77237902  0.88364056  1
  O  O234  1  0.50050648  0.25931496  0.36600863  1
  O  O235  1  0.50154975  0.25854735  0.86676504  1
  O  O236  1  0.46896619  0.75854331  0.37117644  1
  O  O237  1  0.48900398  0.75946083  0.86545104  1
  O  O238  1  0.24181620  0.15677026  0.53834848  1
  O  O239  1  0.24010292  0.13333121  1.00436106  1
  O  O240  1  0.26155454  0.64165803  0.49848938  1
  O  O241  1  0.25378179  0.62970836  0.99208447  1
  O  O242  1  0.74122605  0.13772945  0.50372419  1
  O  O243  1  0.74455810  0.13104338  0.99394416  1
  O  O244  1  0.76120766  0.65000867  0.49927714  1
  O  O245  1  0.73715791  0.61554934  0.99139287  1
  O  O246  1  0.25883922  0.36907814  0.00174561  1
  O  O247  1  0.27520052  0.38292297  0.51269420  1
  O  O248  1  0.26289553  0.88059127  0.00902749  1
  O  O249  1  0.26053438  0.86519499  0.51375693  1
  O  O250  1  0.76050656  0.36724219  0.00820443  1
  O  O251  1  0.74712382  0.36654963  0.50790009  1
  O  O252  1  0.70625090  0.87308897  0.01570684  1
  O  O253  1  0.74689169  0.86919751  0.51530278  1
  O  O254  1  0.07732629  0.48214019  0.22580393  1
  O  O255  1  0.12654307  0.48731001  0.74631355  1
  O  O256  1  0.12174676  0.99602488  0.23490768  1
  O  O257  1  0.13399111  0.99844996  0.75772835  1
  O  O258  1  0.63462463  0.49023482  0.24233517  1
  O  O259  1  0.62963777  0.49605501  0.74008010  1
  O  O260  1  0.66013237  1.04862887  0.25339985  1
  O  O261  1  0.62961976  0.99761131  0.74736953  1
  O  O262  1  0.36451615  0.01496018  0.26563688  1
  O  O263  1  0.37303777  -0.00482085  0.76083480  1
  O  O264  1  0.37483491  0.49689967  0.26404874  1
  O  O265  1  0.37213113  0.49791265  0.76196217  1
  O  O266  1  0.87870826  0.00204983  0.25405870  1
  O  O267  1  0.86554350  0.00507043  0.75874688  1
  O  O268  1  0.87339933  0.50934992  0.25314261  1
  O  O269  1  0.86041645  0.49236043  0.76034462  1
  O  O270  1  0.09900852  0.39598819  0.36927367  1
  O  O271  1  0.11702509  0.36518887  0.86770226  1
  O  O272  1  0.13445537  0.88025156  0.35298532  1
  O  O273  1  0.11774822  0.87387861  0.87874314  1
  O  O274  1  0.61846796  0.38163311  0.36216380  1
  O  O275  1  0.61046019  0.37958347  0.88450932  1
  O  O276  1  0.61437266  0.90858630  0.36942900  1
  O  O277  1  0.60659963  0.88657383  0.86336168  1
  O  O278  1  0.37367534  0.12271615  0.14377363  1
  O  O279  1  0.39229956  0.12006769  0.62285451  1
  O  O280  1  0.38347348  0.62827875  0.12566849  1
  O  O281  1  0.38298245  0.62982935  0.62611077  1
  O  O282  1  0.89228651  0.12609293  0.11853403  1
  O  O283  1  0.89541342  0.11641271  0.61480248  1
  O  O284  1  0.87613430  0.63212940  0.13421576  1
  O  O285  1  0.88595069  0.62574414  0.63704378  1
  O  O286  1  0.25192138  0.25876809  0.10887490  1
  O  O287  1  0.25459665  0.21107669  0.60581801  1
  O  O288  1  0.25588354  0.75619050  0.11410777  1
  O  O289  1  0.25918904  0.75603211  0.62653974  1
  O  O290  1  0.74893993  0.24700357  0.11527606  1
  O  O291  1  0.74552329  0.26085015  0.62902574  1
  O  O292  1  0.77083740  0.74447450  0.12680402  1
  O  O293  1  0.74806971  0.74692124  0.64283664  1
  O  O294  1  0.23513392  0.27374040  0.37352252  1
  O  O295  1  0.23831697  0.25566236  0.88403204  1
  O  O296  1  0.26463536  0.75763810  0.37886589  1
  O  O297  1  0.24633827  0.74330879  0.87270618  1
  O  O298  1  0.74635496  0.25680207  0.38439769  1
  O  O299  1  0.75032257  0.24301125  0.88203498  1
  O  O300  1  0.76659918  0.74132126  0.36440060  1
  O  O301  1  0.73937965  0.73549510  0.87892027  1
  O  O302  1  0.01056483  0.12396466  0.00907353  1
  O  O303  1  -0.00369329  0.08504019  0.50913904  1
  O  O304  1  -0.00847045  0.62056454  -0.03871224  1
  O  O305  1  -0.00798821  0.61342971  0.51226288  1
  O  O306  1  0.50578396  0.12353361  -0.00492676  1
  O  O307  1  0.51115299  0.12680092  0.51434475  1
  O  O308  1  0.50364219  0.61495820  0.01099879  1
  O  O309  1  0.49492060  0.61238769  0.51149610  1
  O  O310  1  0.50017289  0.37938374  0.49335104  1
  O  O311  1  0.49230056  0.37559139  0.99492894  1
  O  O312  1  0.48601466  0.89114659  0.50267432  1
  O  O313  1  0.49710906  0.88513784  0.99179012  1
  O  O314  1  0.98286095  0.38580327  0.49184277  1
  O  O315  1  0.99509829  0.37167701  0.98614279  1
  O  O316  1  1.01667149  0.87051179  0.48071839  1
  O  O317  1  1.00555107  0.89508704  0.99370821  1
  O  O318  1  0.50064322  0.48836468  0.38374233  1
  O  O319  1  0.49082709  0.49342153  0.87941011  1
  O  O320  1  0.48177886  1.02004008  0.39588529  1
  O  O321  1  0.48595074  0.99462881  0.87746552  1
  O  O322  1  0.98704242  0.49856229  0.38422422  1
  O  O323  1  0.98838519  0.48828358  0.87277618  1
  O  O324  1  1.01346206  0.98308846  0.38603272  1
  O  O325  1  0.99577862  0.99965044  0.88214648  1
  O  O326  1  0.00862061  0.01326075  0.11848723  1
  O  O327  1  0.01001531  -0.01084422  0.62195565  1
  O  O328  1  -0.01275698  0.52048547  0.09083458  1
  O  O329  1  0.00216772  0.50638136  0.62376208  1
  O  O330  1  0.48426348  0.00647522  0.10299023  1
  O  O331  1  0.50571816  0.01131992  0.61998817  1
  O  O332  1  0.50870954  0.50306506  0.12296307  1
  O  O333  1  0.50640638  0.50486457  0.62054193  1
  O  O334  1  0.25128428  0.36851510  0.22799636  1
  O  O335  1  0.23791555  0.36938953  0.75023938  1
  O  O336  1  0.23981690  0.86390380  0.22942296  1
  O  O337  1  0.25111483  0.87916110  0.73780851  1
  O  O338  1  0.74610331  0.38084709  0.24726695  1
  O  O339  1  0.75154158  0.37925727  0.73857892  1
  O  O340  1  0.74304389  0.89835729  0.24970893  1
  O  O341  1  0.73548244  0.88814516  0.76866198  1
  O  O342  1  0.25135906  0.13855831  0.24804307  1
  O  O343  1  0.24763311  0.10310202  0.74014546  1
  O  O344  1  0.20990625  0.61922493  0.28250324  1
  O  O345  1  0.25536877  0.62021578  0.76130171  1
  O  O346  1  0.77363140  0.12175595  0.25699671  1
  O  O347  1  0.74888598  0.11957158  0.75836387  1
  O  O348  1  0.75895094  0.61205809  0.24465605  1
  O  O349  1  0.73588560  0.60937179  0.77249376  1
  O  O350  1  0.37049848  0.12258973  0.36499732  1
  O  O351  1  0.37195499  0.10979895  0.87653278  1
  O  O352  1  0.37214061  0.59981806  0.37931851  1
  O  O353  1  0.36922112  0.61588480  0.87849795  1
  O  O354  1  0.88227192  0.13788308  0.41370319  1
  O  O355  1  0.86464670  0.11893267  0.87481804  1
  O  O356  1  0.87955943  0.61588560  0.36061720  1
  O  O357  1  0.84739735  0.60819099  0.88292176  1
  O  O358  1  0.14191758  0.37655938  0.11099150  1
  O  O359  1  0.12336143  0.38523276  0.63475802  1
  O  O360  1  0.12866426  0.88795891  0.12526262  1
  O  O361  1  0.13715229  0.86036621  0.62174495  1
  O  O362  1  0.62450119  0.38421814  0.13363735  1
  O  O363  1  0.63902872  0.38380922  0.62171209  1
  O  O364  1  0.63244144  0.82787925  0.15154051  1
  O  O365  1  0.61727159  0.89230579  0.64175379  1
  O  O366  1  0.10087877  0.27293134  0.24105109  1
  O  O367  1  0.11520726  0.25299782  0.75439442  1
  O  O368  1  0.11462323  0.76329184  0.23659059  1
  O  O369  1  0.12756758  0.75108390  0.76217928  1
  O  O370  1  0.62185815  0.25799097  0.24190382  1
  O  O371  1  0.60719673  0.24789549  0.75708240  1
  O  O372  1  0.62666760  0.73971955  0.28572384  1
  O  O373  1  0.60840635  0.76011130  0.74885488  1
  O  O374  1  0.38419014  0.23559622  0.25163393  1
  O  O375  1  0.39321903  0.24762441  0.75541138  1
  O  O376  1  0.34827957  0.73171119  0.23781868  1
  O  O377  1  0.38345045  0.75105313  0.74133022  1
  O  O378  1  0.88925509  0.24886714  0.24941707  1
  O  O379  1  0.88672015  0.24660148  0.75661575  1
  O  O380  1  0.88849607  0.74432203  0.24224848  1
  O  O381  1  0.88113535  0.74401985  0.79113514  1
  O  O382  1  0.38897791  0.48710453  0.49211262  1
  O  O383  1  0.38157623  0.49041085  0.99185522  1
  O  O384  1  0.37597616  1.00072744  0.49998377  1
  O  O385  1  0.37821845  0.99208975  0.98712249  1
  O  O386  1  0.87285138  0.49783199  0.49357749  1
  O  O387  1  0.88001620  0.49044704  0.98538169  1
  O  O388  1  0.88655398  0.96359957  0.51146499  1
  O  O389  1  0.88650790  1.01347110  0.99104941  1
  O  O390  1  0.12009627  0.01051736  0.00553676  1
  O  O391  1  0.12510918  -0.01157521  0.50399709  1
  O  O392  1  0.10487305  0.50357963  -0.02025903  1
  O  O393  1  0.10992631  0.49450526  0.51762707  1
  O  O394  1  0.60877770  0.01447940  -0.01254782  1
  O  O395  1  0.61973905  0.01151964  0.51009228  1
  O  O396  1  0.62064161  0.50304969  0.01337800  1
  O  O397  1  0.61495055  0.49480868  0.51192317  1
  O  O398  1  0.36983261  0.37328335  0.11209725  1
  O  O399  1  0.39127895  0.37076096  0.61525680  1
  O  O400  1  0.36820802  0.86930252  0.12271832  1
  O  O401  1  0.37227303  0.86654153  0.61855810  1
  O  O402  1  0.88709480  0.38640799  0.11110641  1
  O  O403  1  0.85481407  0.38694389  0.61536584  1
  O  O404  1  0.87083962  0.86386301  0.11987338  1
  O  O405  1  0.87017745  0.85647091  0.63959602  1
  O  O406  1  0.09615457  0.13699091  0.39038680  1
  O  O407  1  0.11718027  0.13529539  0.88435650  1
  O  O408  1  0.15912587  0.61580459  0.34196676  1
  O  O409  1  0.13865501  0.63665294  0.87287410  1
  O  O410  1  0.61687316  0.12073874  0.39577886  1
  O  O411  1  0.63848971  0.12629164  0.88273554  1
  O  O412  1  0.64419723  0.60654668  0.37705230  1
  O  O413  1  0.63138851  0.61214059  0.88804761  1
