# generated using pymatgen
data_V93Zn93O256
_symmetry_space_group_name_H-M   'P 1'
_cell_length_a   17.04835133
_cell_length_b   17.04596980
_cell_length_c   17.04392812
_cell_angle_alpha   90.00315057
_cell_angle_beta   89.98141560
_cell_angle_gamma   89.96899937
_symmetry_Int_Tables_number   1
_chemical_formula_structural   V93Zn93O256
_chemical_formula_sum   'V93 Zn93 O256'
_cell_volume   4953.06135988
_cell_formula_units_Z   1
loop_
 _symmetry_equiv_pos_site_id
 _symmetry_equiv_pos_as_xyz
  1  'x, y, z'
loop_
 _atom_site_type_symbol
 _atom_site_label
 _atom_site_symmetry_multiplicity
 _atom_site_fract_x
 _atom_site_fract_y
 _atom_site_fract_z
 _atom_site_occupancy
  V  V0  1  0.12508462  0.87425902  0.75065346  1
  V  V1  1  0.37443094  0.00082974  0.37375759  1
  V  V2  1  0.74919648  0.87520604  0.12471063  1
  V  V3  1  0.87458908  -0.00029059  0.37658268  1
  V  V4  1  0.87471186  -0.00137155  0.87644234  1
  V  V5  1  -0.00164650  -0.00137072  0.00185650  1
  V  V6  1  0.87668760  0.87498487  0.50167749  1
  V  V7  1  0.25134198  0.87371847  0.62393762  1
  V  V8  1  0.87666083  0.37670160  0.00035709  1
  V  V9  1  0.37451273  0.74956662  0.12367494  1
  V  V10  1  0.25006444  0.12554734  0.37426710  1
  V  V11  1  0.49958169  0.12489116  0.62508677  1
  V  V12  1  0.62303563  0.37586470  0.24943808  1
  V  V13  1  0.75157219  0.75172777  0.00114018  1
  V  V14  1  -0.00150340  0.12498987  0.12680669  1
  V  V15  1  0.24659225  0.37818575  0.12210895  1
  V  V16  1  0.62344899  0.87531579  0.24999608  1
  V  V17  1  0.37477121  0.87540236  0.00033167  1
  V  V18  1  0.12270445  0.25295005  0.37525934  1
  V  V19  1  0.25112754  0.62505771  0.87380132  1
  V  V20  1  0.37588998  0.24982412  0.62343846  1
  V  V21  1  0.50068631  0.50039861  -0.00171650  1
  V  V22  1  0.49798045  0.24518594  0.24563486  1
  V  V23  1  0.49937612  0.00290771  0.00327059  1
  V  V24  1  0.74548863  0.87199853  0.62650495  1
  V  V25  1  -0.00089403  0.25404448  0.25546764  1
  V  V26  1  0.74850530  0.24967596  0.00134591  1
  V  V27  1  0.62472797  -0.00283432  0.62731922  1
  V  V28  1  0.49657023  0.37763498  0.37278857  1
  V  V29  1  0.25045811  0.75003909  -0.00092609  1
  V  V30  1  0.12298796  0.37744451  0.25072379  1
  V  V31  1  0.00251280  0.49544806  0.49414102  1
  V  V32  1  0.50404768  0.87612932  0.86839917  1
  V  V33  1  0.74965912  0.37527494  0.62398440  1
  V  V34  1  0.74936244  0.37644827  0.12646788  1
  V  V35  1  0.74943155  0.00089110  0.25091378  1
  V  V36  1  0.75088658  0.62432235  0.87466043  1
  V  V37  1  0.74940367  0.24929285  0.49909041  1
  V  V38  1  0.24541457  0.50201811  0.24489337  1
  V  V39  1  0.37568539  0.24639107  0.12436169  1
  V  V40  1  0.61910058  0.12614949  0.00643027  1
  V  V41  1  0.62083670  0.00235907  0.12519544  1
  V  V42  1  0.37746191  0.62823193  0.74804046  1
  V  V43  1  0.00182989  0.62391794  0.62455160  1
  V  V44  1  0.87482840  0.25016652  0.12671378  1
  V  V45  1  0.00056040  0.00011510  0.50055429  1
  V  V46  1  0.00485261  0.61702244  0.12481321  1
  V  V47  1  0.37575188  0.62019852  0.25172852  1
  V  V48  1  0.62514584  0.12542107  0.50037988  1
  V  V49  1  0.49630089  0.50104725  0.49482005  1
  V  V50  1  0.12435414  -0.00030158  0.12677352  1
  V  V51  1  0.12577577  0.74993398  0.37528404  1
  V  V52  1  0.87618721  0.49980497  0.87591440  1
  V  V53  1  0.62486241  0.24961016  0.87382466  1
  V  V54  1  0.24884026  0.12513083  0.87562571  1
  V  V55  1  0.87627214  0.74887849  0.62574239  1
  V  V56  1  0.37506484  0.12622968  0.74959230  1
  V  V57  1  0.87962207  0.37370621  0.49397117  1
  V  V58  1  0.12477676  0.12572725  0.50136964  1
  V  V59  1  0.25018782  0.25169152  0.49829338  1
  V  V60  1  0.25556147  0.62045036  0.37492839  1
  V  V61  1  -0.00105958  0.74920351  0.25024846  1
  V  V62  1  0.62526318  0.50096141  0.12470487  1
  V  V63  1  0.12667435  0.62237847  0.49982283  1
  V  V64  1  0.12283166  0.25042827  0.87541812  1
  V  V65  1  0.50083153  0.87519911  0.37418311  1
  V  V66  1  0.87162662  0.50652786  0.37637457  1
  V  V67  1  0.74920795  0.12477818  0.37604519  1
  V  V68  1  0.00044013  0.74729239  0.75063531  1
  V  V69  1  0.37497353  0.37706568  0.49700033  1
  V  V70  1  0.37678976  0.50111947  0.87270416  1
  V  V71  1  0.37511012  0.00092585  0.87592735  1
  V  V72  1  -0.00029095  0.87353699  0.87730958  1
  V  V73  1  0.24852777  -0.00046422  0.24976333  1
  V  V74  1  0.62504786  0.62599008  -0.00047589  1
  V  V75  1  0.12566267  0.37537069  0.74889209  1
  V  V76  1  0.37474089  0.87432644  0.50004258  1
  V  V77  1  0.49997273  0.00060727  0.49939800  1
  V  V78  1  0.12442072  0.00027998  0.62508141  1
  V  V79  1  0.62711014  0.49942543  0.62524313  1
  V  V80  1  0.74913899  0.50712674  0.25591813  1
  V  V81  1  0.24933741  -0.00003467  0.75050071  1
  V  V82  1  0.49866915  0.62516294  0.12414430  1
  V  V83  1  0.63131182  0.74720271  0.37385764  1
  V  V84  1  0.12571848  0.74741147  0.87660420  1
  V  V85  1  0.74568800  -0.00590428  0.75112624  1
  V  V86  1  0.50015010  0.37554061  0.87282855  1
  V  V87  1  0.62514569  0.75422973  0.86695069  1
  V  V88  1  0.63399717  0.62438312  0.49370633  1
  V  V89  1  0.87477517  0.12481743  0.75032167  1
  V  V90  1  0.12407883  0.12525537  0.00025769  1
  V  V91  1  0.50065969  0.62686003  0.62338374  1
  V  V92  1  0.87443149  0.24908739  0.62574089  1
  Zn  Zn93  1  0.62371213  0.24961588  0.37351716  1
  Zn  Zn94  1  -0.00163805  0.25050826  0.74994921  1
  Zn  Zn95  1  0.37230048  0.37526028  -0.00163785  1
  Zn  Zn96  1  0.87548163  0.87529626  0.00316284  1
  Zn  Zn97  1  0.24874604  0.87438245  0.12528871  1
  Zn  Zn98  1  0.25042907  0.37674944  0.62512710  1
  Zn  Zn99  1  0.37672919  0.75055688  0.62262452  1
  Zn  Zn100  1  0.49914885  0.75008651  0.24923146  1
  Zn  Zn101  1  0.13056748  0.61764194  0.00543603  1
  Zn  Zn102  1  0.25075518  0.25115168  0.00108914  1
  Zn  Zn103  1  0.87615058  0.62150184  0.74944405  1
  Zn  Zn104  1  0.50491352  0.75649090  0.74385223  1
  Zn  Zn105  1  0.00065023  0.87564761  0.37485238  1
  Zn  Zn106  1  0.87542698  0.74945916  0.12811407  1
  Zn  Zn107  1  0.74875549  0.12233133  0.87695249  1
  Zn  Zn108  1  0.87385438  0.12566356  0.25152548  1
  Zn  Zn109  1  0.87098812  0.62756178  0.25277327  1
  Zn  Zn110  1  0.37797682  0.12346415  0.24519854  1
  Zn  Zn111  1  0.12357722  0.87538119  0.24982081  1
  Zn  Zn112  1  0.75239132  0.49897810  0.75003127  1
  Zn  Zn113  1  0.00016369  0.37617235  0.87446062  1
  Zn  Zn114  1  0.62695703  0.37339361  0.74847718  1
  Zn  Zn115  1  0.25325635  0.74772113  0.50071047  1
  Zn  Zn116  1  0.75510466  0.74589991  0.49568701  1
  Zn  Zn117  1  0.24997503  0.49978586  0.74687583  1
  Zn  Zn118  1  0.12644701  0.49770231  0.62515624  1
  Zn  Zn119  1  0.50029811  0.25029547  0.74844984  1
  Zn  Zn120  1  0.01010926  0.49456957  0.00583225  1
  Zn  Zn121  1  0.00012261  0.12517836  0.62621166  1
  Zn  Zn122  1  0.18775465  0.18887630  0.18697655  1
  Zn  Zn123  1  0.18935225  0.19002119  0.68654786  1
  Zn  Zn124  1  0.18658840  0.68889094  0.18686353  1
  Zn  Zn125  1  0.18895156  0.68747122  0.68632097  1
  Zn  Zn126  1  0.68619738  0.18829692  0.18880538  1
  Zn  Zn127  1  0.68908567  0.18488224  0.68769418  1
  Zn  Zn128  1  0.68514686  0.68897054  0.18702308  1
  Zn  Zn129  1  0.69070503  0.68335504  0.68647968  1
  Zn  Zn130  1  0.31207438  0.31387504  0.31068551  1
  Zn  Zn131  1  0.31080374  0.31185810  0.81165823  1
  Zn  Zn132  1  0.31353648  0.81073759  0.31217391  1
  Zn  Zn133  1  0.31433652  0.81243730  0.81252882  1
  Zn  Zn134  1  0.81094109  0.31511263  0.31389844  1
  Zn  Zn135  1  0.80931388  0.31378006  0.81188054  1
  Zn  Zn136  1  0.81344652  0.81574090  0.31281799  1
  Zn  Zn137  1  0.81486006  0.81180575  0.81257931  1
  Zn  Zn138  1  0.18934877  0.43835749  0.43196322  1
  Zn  Zn139  1  0.18778999  0.44044287  0.93512749  1
  Zn  Zn140  1  0.18759571  0.93640138  0.43809656  1
  Zn  Zn141  1  0.18656460  0.93694740  0.93897356  1
  Zn  Zn142  1  0.68685962  0.43506479  0.43672812  1
  Zn  Zn143  1  0.68875557  0.43708235  0.93806219  1
  Zn  Zn144  1  0.68817701  0.93585602  0.43981814  1
  Zn  Zn145  1  0.68633724  0.93741822  0.93811000  1
  Zn  Zn146  1  0.31078070  0.06376744  0.06225635  1
  Zn  Zn147  1  0.31158026  0.06220046  0.56167865  1
  Zn  Zn148  1  0.31354011  0.56177095  0.06051992  1
  Zn  Zn149  1  0.31138579  0.56061360  0.56525254  1
  Zn  Zn150  1  0.80993522  0.06397812  0.06349666  1
  Zn  Zn151  1  0.81219073  0.06115978  0.56391609  1
  Zn  Zn152  1  0.81608419  0.56566538  0.06669696  1
  Zn  Zn153  1  0.81563886  0.56155424  0.56278922  1
  Zn  Zn154  1  0.43336421  0.43705506  0.18549241  1
  Zn  Zn155  1  0.43952287  0.43886016  0.68575440  1
  Zn  Zn156  1  0.43676180  0.93736093  0.18655691  1
  Zn  Zn157  1  0.43562181  0.93949988  0.68645943  1
  Zn  Zn158  1  0.93538777  0.43691722  0.19092347  1
  Zn  Zn159  1  0.94071914  0.43604627  0.68629080  1
  Zn  Zn160  1  0.93539018  0.93462205  0.18905105  1
  Zn  Zn161  1  0.93704317  0.93630520  0.68791294  1
  Zn  Zn162  1  0.06144521  0.06561993  0.31398004  1
  Zn  Zn163  1  0.06074179  0.06145272  0.81370419  1
  Zn  Zn164  1  0.06235919  0.56279248  0.31305030  1
  Zn  Zn165  1  0.06215167  0.55997310  0.81593604  1
  Zn  Zn166  1  0.56330050  0.06320765  0.31313005  1
  Zn  Zn167  1  0.56239926  0.06415055  0.81411243  1
  Zn  Zn168  1  0.56231351  0.56346583  0.31221649  1
  Zn  Zn169  1  0.56323547  0.56597493  0.81063585  1
  Zn  Zn170  1  0.43728642  0.18850081  0.43414049  1
  Zn  Zn171  1  0.43643169  0.18963453  0.93909977  1
  Zn  Zn172  1  0.44123287  0.69011807  0.43635833  1
  Zn  Zn173  1  0.43860385  0.68955249  0.93587018  1
  Zn  Zn174  1  0.93728872  0.18515340  0.43772071  1
  Zn  Zn175  1  0.93705840  0.18650908  0.93757086  1
  Zn  Zn176  1  0.93913582  0.68583967  0.43940534  1
  Zn  Zn177  1  0.93810514  0.68522290  0.93936217  1
  Zn  Zn178  1  0.06314409  0.31116477  0.06600113  1
  Zn  Zn179  1  0.06048824  0.31026811  0.56622984  1
  Zn  Zn180  1  0.06472005  0.81042297  0.06473187  1
  Zn  Zn181  1  0.06373443  0.81172094  0.56199492  1
  Zn  Zn182  1  0.56020715  0.31413164  0.06210488  1
  Zn  Zn183  1  0.56222174  0.31164914  0.56145330  1
  Zn  Zn184  1  0.56127372  0.81425600  0.06006026  1
  Zn  Zn185  1  0.56363720  0.81091777  0.55906513  1
  O  O186  1  0.11855104  0.12047630  0.12014078  1
  O  O187  1  0.12531424  0.11870672  0.61946886  1
  O  O188  1  0.10926950  0.62889928  0.12667029  1
  O  O189  1  0.11994864  0.62332158  0.61724112  1
  O  O190  1  0.62861233  0.12061919  0.11349904  1
  O  O191  1  0.61967628  0.11839016  0.61960272  1
  O  O192  1  0.61827003  0.61983972  0.11949068  1
  O  O193  1  0.62100338  0.61782215  0.61493507  1
  O  O194  1  0.38502494  0.37092084  0.38506412  1
  O  O195  1  0.38500919  0.38016641  0.87334449  1
  O  O196  1  0.38049334  0.88087518  0.37905713  1
  O  O197  1  0.38267997  0.88145084  0.88054956  1
  O  O198  1  0.87081815  0.38392423  0.38856178  1
  O  O199  1  0.87372310  0.38069471  0.88517861  1
  O  O200  1  0.87594395  0.88213307  0.38426052  1
  O  O201  1  0.88236997  0.88087548  0.87786787  1
  O  O202  1  0.25390608  0.00507395  0.36826940  1
  O  O203  1  0.25476069  0.00508116  0.87004010  1
  O  O204  1  0.24795380  0.51299773  0.36253840  1
  O  O205  1  0.26056854  0.50707062  0.87043489  1
  O  O206  1  0.75394880  0.00453530  0.37109263  1
  O  O207  1  0.75437171  -0.00180299  0.86641126  1
  O  O208  1  0.75650957  0.49419378  0.36589761  1
  O  O209  1  0.75836249  0.50511913  0.87581461  1
  O  O210  1  0.25413998  0.49228465  0.13475972  1
  O  O211  1  0.24481045  0.49444050  0.62829734  1
  O  O212  1  0.24390224  1.00109805  0.13458671  1
  O  O213  1  0.24448714  0.99468075  0.63104519  1
  O  O214  1  0.74499158  0.49493470  0.13285002  1
  O  O215  1  0.74093509  0.49443574  0.62199948  1
  O  O216  1  0.74210446  0.99521862  0.13058465  1
  O  O217  1  0.74577845  0.99133992  0.63214678  1
  O  O218  1  0.01028355  0.36461583  0.24136828  1
  O  O219  1  0.01004057  0.37065935  0.75350061  1
  O  O220  1  0.00199128  0.86297572  0.25395402  1
  O  O221  1  0.00584820  0.86892868  0.75646778  1
  O  O222  1  0.50194452  0.37240190  0.25709307  1
  O  O223  1  0.50435529  0.37401950  0.76059882  1
  O  O224  1  0.50606227  0.87444466  0.25645546  1
  O  O225  1  0.49418907  0.87619090  0.76408780  1
  O  O226  1  0.49889937  0.14090782  0.25615227  1
  O  O227  1  0.49265386  0.12483167  0.74327636  1
  O  O228  1  0.49084257  0.62397169  0.24390929  1
  O  O229  1  0.49280288  0.62751249  0.74255851  1
  O  O230  1  0.99787232  0.13613795  0.24452787  1
  O  O231  1  0.98541363  0.12354283  0.74960379  1
  O  O232  1  0.99918797  0.63189100  0.24254386  1
  O  O233  1  1.00002759  0.63009876  0.74335402  1
  O  O234  1  0.37269869  0.25494910  0.00864438  1
  O  O235  1  0.37103000  0.25794606  0.50316349  1
  O  O236  1  0.37038090  0.75544934  0.00366009  1
  O  O237  1  0.37437927  0.75887756  0.50034413  1
  O  O238  1  0.86930774  0.25727475  0.00509757  1
  O  O239  1  0.87077964  0.25667586  0.50374464  1
  O  O240  1  0.85973636  0.75097148  -0.00129688  1
  O  O241  1  0.87455301  0.75495255  0.50643553  1
  O  O242  1  0.12968033  0.24712987  0.49522477  1
  O  O243  1  0.12506823  0.24410647  0.99173258  1
  O  O244  1  0.12636228  0.74184745  0.49028088  1
  O  O245  1  0.13258740  0.74624155  0.99350016  1
  O  O246  1  0.63142438  0.24321252  0.49880306  1
  O  O247  1  0.62708026  0.24456532  0.99478194  1
  O  O248  1  0.62723437  0.74052924  0.49122280  1
  O  O249  1  0.63369035  0.74584074  0.99154638  1
  O  O250  1  0.48850107  0.26209935  0.13549411  1
  O  O251  1  0.49443795  0.24287669  0.62561716  1
  O  O252  1  0.49407042  0.74284131  0.12445249  1
  O  O253  1  0.50001750  0.74324602  0.62616347  1
  O  O254  1  0.99454320  0.24432489  0.13437390  1
  O  O255  1  0.98958301  0.24477007  0.62910908  1
  O  O256  1  0.99885742  0.74316227  0.13618253  1
  O  O257  1  0.99618380  0.74450498  0.63029808  1
  O  O258  1  0.00477757  0.24469980  0.36301714  1
  O  O259  1  0.01163230  0.25025403  0.87391776  1
  O  O260  1  0.01018254  0.74574012  0.36774761  1
  O  O261  1  0.00509297  0.75328134  0.87124582  1
  O  O262  1  0.50046304  0.26110814  0.36556276  1
  O  O263  1  0.50840916  0.25857011  0.87484614  1
  O  O264  1  0.51184463  0.75746124  0.37249558  1
  O  O265  1  0.50936967  0.75913111  0.87507735  1
  O  O266  1  0.24442927  0.13129271  0.49429910  1
  O  O267  1  0.24120100  0.12586111  0.99274165  1
  O  O268  1  0.24747853  0.62333461  0.48954570  1
  O  O269  1  0.25286255  0.63251746  0.99189033  1
  O  O270  1  0.74479529  0.12926714  0.49640667  1
  O  O271  1  0.73863581  0.13150579  0.99795954  1
  O  O272  1  0.73755054  0.62453966  0.50325642  1
  O  O273  1  0.74459947  0.63305810  0.99612928  1
  O  O274  1  0.25001161  0.37454623  0.01058333  1
  O  O275  1  0.26105623  0.37137600  0.49585423  1
  O  O276  1  0.25761662  0.86889397  -0.00019650  1
  O  O277  1  0.25719968  0.87439186  0.50583350  1
  O  O278  1  0.75725945  0.36983510  0.00681802  1
  O  O279  1  0.75797585  0.36946597  0.50477261  1
  O  O280  1  0.74876347  0.86661632  0.00567892  1
  O  O281  1  0.75749825  0.87415600  0.51172880  1
  O  O282  1  0.13388982  0.49087874  0.25459113  1
  O  O283  1  0.12495077  0.48704096  0.75101544  1
  O  O284  1  0.13238380  1.00011664  0.24672801  1
  O  O285  1  0.12990808  0.99423437  0.74631968  1
  O  O286  1  0.63075852  0.49576362  0.24528889  1
  O  O287  1  0.62509167  0.50109480  0.73411990  1
  O  O288  1  0.62926249  0.99548968  0.24514883  1
  O  O289  1  0.63820303  1.00802709  0.74480172  1
  O  O290  1  0.36686385  0.00308512  0.25425203  1
  O  O291  1  0.36842995  0.00640423  0.75633608  1
  O  O292  1  0.36481382  0.51308396  0.24545081  1
  O  O293  1  0.37809780  0.51185739  0.75376531  1
  O  O294  1  0.86710903  0.00077280  0.25767001  1
  O  O295  1  0.86665300  0.00585623  0.75477872  1
  O  O296  1  0.86611894  0.49718002  0.26103086  1
  O  O297  1  0.87498011  0.49825020  0.76257837  1
  O  O298  1  0.13248793  0.36734630  0.35990016  1
  O  O299  1  0.12456215  0.36468565  0.86822632  1
  O  O300  1  0.12418956  0.86143554  0.37493474  1
  O  O301  1  0.11956682  0.86883776  0.86995263  1
  O  O302  1  0.61359774  0.37284485  0.36914484  1
  O  O303  1  0.61820695  0.36692273  0.87502278  1
  O  O304  1  0.62002288  0.86921444  0.37060044  1
  O  O305  1  0.61500785  0.86659136  0.88085149  1
  O  O306  1  0.36800449  0.14115915  0.12620463  1
  O  O307  1  0.38009077  0.12923405  0.62876606  1
  O  O308  1  0.37971633  0.62963761  0.13181440  1
  O  O309  1  0.38218580  0.62519750  0.63210855  1
  O  O310  1  0.87964639  0.13269287  0.12757183  1
  O  O311  1  0.87336355  0.12975005  0.63480866  1
  O  O312  1  0.88609670  0.63067457  0.13155215  1
  O  O313  1  0.88302499  0.63065345  0.62512004  1
  O  O314  1  0.25731762  0.26032950  0.12587238  1
  O  O315  1  0.25793718  0.25293457  0.61551919  1
  O  O316  1  0.25639981  0.75091619  0.11815567  1
  O  O317  1  0.25338571  0.75843247  0.62164210  1
  O  O318  1  0.75443527  0.25682821  0.12155328  1
  O  O319  1  0.75477610  0.25452119  0.61854658  1
  O  O320  1  0.74771502  0.75522434  0.11566039  1
  O  O321  1  0.75566191  0.75800481  0.62508335  1
  O  O322  1  0.24435477  0.24536676  0.37911532  1
  O  O323  1  0.23956477  0.24363670  0.87709606  1
  O  O324  1  0.24142510  0.73913786  0.37335538  1
  O  O325  1  0.24597252  0.74530704  0.87941329  1
  O  O326  1  0.74763618  0.24416667  0.38118395  1
  O  O327  1  0.73873159  0.25085287  0.88239921  1
  O  O328  1  0.73572695  0.75653992  0.37608472  1
  O  O329  1  0.74324851  0.74737224  0.88160294  1
  O  O330  1  0.00433922  0.11896569  0.00677679  1
  O  O331  1  0.00728220  0.11860122  0.50234246  1
  O  O332  1  -0.00105046  0.62627853  0.01748695  1
  O  O333  1  0.00688124  0.61536908  0.50460510  1
  O  O334  1  0.51108441  0.11913330  -0.00662463  1
  O  O335  1  0.50415048  0.11977553  0.50445114  1
  O  O336  1  0.50531130  0.61994630  0.00375116  1
  O  O337  1  0.50751515  0.61653892  0.50235364  1
  O  O338  1  0.49484709  0.38075587  0.49191324  1
  O  O339  1  0.50031900  0.38196057  0.98756819  1
  O  O340  1  0.49583193  0.88233204  0.49411883  1
  O  O341  1  0.49409625  0.88189138  0.98988951  1
  O  O342  1  0.98984279  0.38299679  0.50646077  1
  O  O343  1  0.98691192  0.37434081  1.00256324  1
  O  O344  1  0.99443933  0.88152116  0.49920280  1
  O  O345  1  0.99897454  0.88028727  0.99537281  1
  O  O346  1  0.50572712  0.49054577  0.38472406  1
  O  O347  1  0.49855846  0.49367470  0.87815412  1
  O  O348  1  0.49473867  0.99565371  0.37980838  1
  O  O349  1  0.49563032  0.99411850  0.88096949  1
  O  O350  1  0.99137458  0.50317524  0.38724150  1
  O  O351  1  0.98653452  0.49813040  0.88177160  1
  O  O352  1  0.99385214  0.99949281  0.38191567  1
  O  O353  1  0.99524355  0.99357417  0.88205632  1
  O  O354  1  0.00379413  0.00494283  0.12230186  1
  O  O355  1  0.00705757  0.00068554  0.61958866  1
  O  O356  1  -0.00587710  0.51386245  0.12821095  1
  O  O357  1  0.00163879  0.50514809  0.61229077  1
  O  O358  1  0.50777176  -0.00590160  0.11573857  1
  O  O359  1  0.50488415  0.00480432  0.61930883  1
  O  O360  1  0.50510032  0.50445692  0.11904952  1
  O  O361  1  0.50952635  0.50429057  0.61379143  1
  O  O362  1  0.24486004  0.38414367  0.24371560  1
  O  O363  1  0.23936507  0.37580760  0.74861884  1
  O  O364  1  0.24927816  0.88867547  0.25043797  1
  O  O365  1  0.24510828  0.88084847  0.74602933  1
  O  O366  1  0.74293000  0.38306438  0.24519156  1
  O  O367  1  0.74614330  0.37877124  0.74024161  1
  O  O368  1  0.74268583  0.88137047  0.24473756  1
  O  O369  1  0.75711835  0.88446433  0.73947400  1
  O  O370  1  0.24908540  0.11480980  0.25621252  1
  O  O371  1  0.25502839  0.11926385  0.75534603  1
  O  O372  1  0.25503744  0.61940795  0.25388986  1
  O  O373  1  0.26147027  0.62513404  0.75475744  1
  O  O374  1  0.74973641  0.11916276  0.25705772  1
  O  O375  1  0.75974133  0.11413582  0.75145028  1
  O  O376  1  0.74986845  0.61041325  0.24348551  1
  O  O377  1  0.75497051  0.62026260  0.75839832  1
  O  O378  1  0.36762670  0.11836898  0.37321624  1
  O  O379  1  0.36961704  0.12057136  0.87050281  1
  O  O380  1  0.36636275  0.63361194  0.36413708  1
  O  O381  1  0.37336002  0.62148938  0.86600764  1
  O  O382  1  0.86653233  0.11775738  0.37482136  1
  O  O383  1  0.87149752  0.11876886  0.86759486  1
  O  O384  1  0.87585471  0.61070624  0.37576033  1
  O  O385  1  0.86943577  0.61471107  0.87709983  1
  O  O386  1  0.13658660  0.36688907  0.13781202  1
  O  O387  1  0.12662585  0.37293011  0.63634929  1
  O  O388  1  0.12873733  0.88381639  0.12848157  1
  O  O389  1  0.13089373  0.88022779  0.63106062  1
  O  O390  1  0.62934922  0.38220261  0.12897336  1
  O  O391  1  0.62944365  0.38454231  0.62201473  1
  O  O392  1  0.62942847  0.88087446  0.12997872  1
  O  O393  1  0.63679892  0.88040553  0.61863057  1
  O  O394  1  0.11752176  0.25590916  0.25502646  1
  O  O395  1  0.12452042  0.25491334  0.75929867  1
  O  O396  1  0.11756922  0.74999703  0.25957444  1
  O  O397  1  0.11997525  0.75580692  0.75565711  1
  O  O398  1  0.61476718  0.25832447  0.24841103  1
  O  O399  1  0.62396062  0.24876924  0.76169040  1
  O  O400  1  0.62265735  0.75579684  0.25715506  1
  O  O401  1  0.62563230  0.74455495  0.76355729  1
  O  O402  1  0.38150257  0.25025396  0.24273662  1
  O  O403  1  0.37585552  0.24326237  0.74266275  1
  O  O404  1  0.37547912  0.73877791  0.24280498  1
  O  O405  1  0.37956138  0.73867396  0.74883231  1
  O  O406  1  0.88297975  0.25321436  0.24573396  1
  O  O407  1  0.87188897  0.24008701  0.74662734  1
  O  O408  1  0.88542384  0.74706457  0.25473024  1
  O  O409  1  0.88339190  0.74736259  0.74414810  1
  O  O410  1  0.38835987  0.49167151  0.50549508  1
  O  O411  1  0.38358739  0.49861963  0.99119170  1
  O  O412  1  0.38040632  0.99504751  0.49361846  1
  O  O413  1  0.37935273  0.99693993  0.99482571  1
  O  O414  1  0.88112528  0.49281613  0.49438587  1
  O  O415  1  0.87281376  0.48981166  0.99421114  1
  O  O416  1  0.88060466  0.99514421  0.49682938  1
  O  O417  1  0.88030607  1.00023828  0.99476524  1
  O  O418  1  0.11836756  0.00561516  0.00568207  1
  O  O419  1  0.12103060  0.00551888  0.50533688  1
  O  O420  1  0.12086450  0.50569421  -0.00605568  1
  O  O421  1  0.11679233  0.50252137  0.49665651  1
  O  O422  1  0.62059123  0.00871598  0.00413139  1
  O  O423  1  0.61920257  0.00545878  0.50650036  1
  O  O424  1  0.62128603  0.50646300  0.00495491  1
  O  O425  1  0.61804397  0.50562200  0.50512524  1
  O  O426  1  0.36324600  0.36780723  0.12393467  1
  O  O427  1  0.37851189  0.36929095  0.61242547  1
  O  O428  1  0.37318123  0.86814704  0.11778252  1
  O  O429  1  0.36930576  0.87575805  0.61834160  1
  O  O430  1  0.86918224  0.37058614  0.11840719  1
  O  O431  1  0.86928382  0.37022269  0.61534130  1
  O  O432  1  0.86509995  0.87001167  0.12308086  1
  O  O433  1  0.86734398  0.86917361  0.62071881  1
  O  O434  1  0.13063615  0.13230479  0.38222159  1
  O  O435  1  0.12845451  0.13129284  0.87914567  1
  O  O436  1  0.13421996  0.63139665  0.37890323  1
  O  O437  1  0.13361841  0.63284530  0.87250624  1
  O  O438  1  0.63115704  0.12631655  0.38308399  1
  O  O439  1  0.62602040  0.13479559  0.88450935  1
  O  O440  1  0.61887510  0.63402061  0.38310543  1
  O  O441  1  0.62977143  0.63308204  0.88100539  1
