# generated using pymatgen
data_V93Zn93O256
_symmetry_space_group_name_H-M   'P 1'
_cell_length_a   17.04058285
_cell_length_b   17.04281503
_cell_length_c   17.04421401
_cell_angle_alpha   90.04472245
_cell_angle_beta   90.00337801
_cell_angle_gamma   90.00062478
_symmetry_Int_Tables_number   1
_chemical_formula_structural   V93Zn93O256
_chemical_formula_sum   'V93 Zn93 O256'
_cell_volume   4949.97061814
_cell_formula_units_Z   1
loop_
 _symmetry_equiv_pos_site_id
 _symmetry_equiv_pos_as_xyz
  1  'x, y, z'
loop_
 _atom_site_type_symbol
 _atom_site_label
 _atom_site_symmetry_multiplicity
 _atom_site_fract_x
 _atom_site_fract_y
 _atom_site_fract_z
 _atom_site_occupancy
  V  V0  1  0.62683703  0.37360973  0.24971940  1
  V  V1  1  0.50108421  0.37602572  0.37689745  1
  V  V2  1  -0.00139181  0.75092332  0.74891594  1
  V  V3  1  0.74972824  0.75063715  0.00031371  1
  V  V4  1  0.49867004  0.87325245  0.37636844  1
  V  V5  1  0.74825371  -0.00159348  0.74722821  1
  V  V6  1  0.49331923  -0.00652295  0.00247899  1
  V  V7  1  0.37122455  0.00490531  0.87697677  1
  V  V8  1  0.37606691  0.37634456  0.49980449  1
  V  V9  1  0.37520499  0.24932463  0.12761964  1
  V  V10  1  0.00066874  0.62570890  0.12464317  1
  V  V11  1  0.75104631  0.25051052  0.50106878  1
  V  V12  1  0.37664499  0.37344034  0.00052804  1
  V  V13  1  0.62824720  0.50010232  0.62887727  1
  V  V14  1  0.87059225  0.75328159  0.62434800  1
  V  V15  1  0.24985759  0.25078153  0.50017982  1
  V  V16  1  -0.00040430  0.62514688  0.62282833  1
  V  V17  1  0.87195823  0.62503801  0.74918934  1
  V  V18  1  0.62380390  0.87282717  0.25220644  1
  V  V19  1  0.25011497  0.00711721  0.75295030  1
  V  V20  1  0.37445196  0.75594882  0.12245862  1
  V  V21  1  -0.00088072  0.12621230  0.62473350  1
  V  V22  1  0.12634128  0.37475647  0.75064549  1
  V  V23  1  0.12497399  0.62595054  0.49860304  1
  V  V24  1  0.12451991  0.75042085  0.87371132  1
  V  V25  1  0.75224515  0.37789955  0.62955909  1
  V  V26  1  0.62679124  0.12661139  -0.00531476  1
  V  V27  1  0.25405274  0.75636254  -0.00093749  1
  V  V28  1  0.87239115  0.00072034  0.87513783  1
  V  V29  1  0.62272563  0.74908114  0.37618605  1
  V  V30  1  0.75097016  0.12504631  0.37468767  1
  V  V31  1  0.24934862  0.49953418  0.74914077  1
  V  V32  1  0.49909309  0.62411370  0.12648428  1
  V  V33  1  0.12406840  0.87676679  0.74849727  1
  V  V34  1  0.62521438  0.62463766  0.50189345  1
  V  V35  1  0.00043597  0.25030242  0.24741039  1
  V  V36  1  -0.00016550  0.00098747  0.49861423  1
  V  V37  1  0.87433841  0.75061523  0.12370255  1
  V  V38  1  0.74920053  0.75333409  0.50332734  1
  V  V39  1  0.37197574  0.50067630  0.36854885  1
  V  V40  1  0.25113364  0.37651060  0.62533416  1
  V  V41  1  0.87324245  0.87569645  -0.00097891  1
  V  V42  1  0.62312695  0.74970805  0.87458768  1
  V  V43  1  0.62553330  0.12454012  0.50147823  1
  V  V44  1  -0.00048538  0.49760248  -0.00208413  1
  V  V45  1  0.12559392  0.25211834  0.37431140  1
  V  V46  1  0.37376263  -0.00011350  0.37612512  1
  V  V47  1  0.12478619  0.12694405  0.49894370  1
  V  V48  1  0.87015999  0.87707451  0.50305345  1
  V  V49  1  0.62496252  -0.00307266  0.62593891  1
  V  V50  1  0.12522587  0.00047072  0.62499587  1
  V  V51  1  0.50563606  0.24867066  0.75332841  1
  V  V52  1  0.24907001  0.62228881  0.36667875  1
  V  V53  1  0.49958194  0.62330861  0.62627364  1
  V  V54  1  0.62583988  0.87428545  0.74730152  1
  V  V55  1  0.37479878  0.62464361  0.74957739  1
  V  V56  1  0.75088574  0.00011325  0.25098362  1
  V  V57  1  0.12429628  0.87637216  0.24845154  1
  V  V58  1  0.63035477  0.37507325  0.75356613  1
  V  V59  1  0.49939692  0.12300657  0.12809559  1
  V  V60  1  0.62586268  0.25059265  0.37643891  1
  V  V61  1  0.87729099  0.37708813  0.49781936  1
  V  V62  1  0.49884521  -0.00027650  0.50202984  1
  V  V63  1  0.12532095  0.62551703  -0.00118639  1
  V  V64  1  0.25006594  0.62454332  0.87443090  1
  V  V65  1  0.87328434  0.50038167  0.86925282  1
  V  V66  1  0.25210450  0.37848934  0.12550633  1
  V  V67  1  0.50495757  0.37083889  0.87667704  1
  V  V68  1  0.87438694  0.25167586  0.11839317  1
  V  V69  1  0.49974165  0.12509227  0.62700702  1
  V  V70  1  0.00008067  0.87592189  0.37410225  1
  V  V71  1  0.49224992  0.87328475  0.87844283  1
  V  V72  1  0.13408693  0.24583452  0.87388146  1
  V  V73  1  0.00117745  0.24956696  0.75045632  1
  V  V74  1  0.37284082  0.87419180  0.50115589  1
  V  V75  1  0.87484457  0.12560612  0.75096686  1
  V  V76  1  0.62419725  0.62266217  0.00029929  1
  V  V77  1  0.62356399  -0.00275224  0.12688680  1
  V  V78  1  0.12821473  0.50007131  0.12533459  1
  V  V79  1  0.37587437  0.49805089  0.87494782  1
  V  V80  1  0.13064608  0.37956765  0.24929280  1
  V  V81  1  0.74963014  0.62591623  0.37514822  1
  V  V82  1  0.75042995  0.62277352  0.87141906  1
  V  V83  1  -0.00262745  0.87550412  0.87447189  1
  V  V84  1  0.37706292  0.25063615  0.62546969  1
  V  V85  1  0.13177827  0.12451194  -0.00502192  1
  V  V86  1  0.87465534  0.62552943  0.24989449  1
  V  V87  1  0.12335119  0.00178427  0.12331973  1
  V  V88  1  0.24972270  -0.00030098  0.25049859  1
  V  V89  1  -0.00030285  0.75175999  0.24927463  1
  V  V90  1  0.37537929  0.12446077  0.25175344  1
  V  V91  1  0.37196707  0.74958113  0.62453787  1
  V  V92  1  0.75096231  0.50005217  0.24909198  1
  Zn  Zn93  1  0.36865024  0.62101313  0.24530779  1
  Zn  Zn94  1  0.24797415  0.87513849  0.62364642  1
  Zn  Zn95  1  0.87644691  0.00304632  0.37397041  1
  Zn  Zn96  1  0.73890046  0.26051730  -0.00596829  1
  Zn  Zn97  1  0.25531383  0.24494195  -0.00458899  1
  Zn  Zn98  1  -0.00122657  0.12618992  0.12106971  1
  Zn  Zn99  1  0.87616581  0.25141225  0.62647542  1
  Zn  Zn100  1  0.24794381  0.75148006  0.49678613  1
  Zn  Zn101  1  0.50063367  0.49772384  0.00048619  1
  Zn  Zn102  1  0.49815343  0.75039746  0.75134215  1
  Zn  Zn103  1  0.50013206  0.50036250  0.50020583  1
  Zn  Zn104  1  0.25349481  0.87683186  0.12171669  1
  Zn  Zn105  1  0.50122093  0.24817087  0.25234492  1
  Zn  Zn106  1  0.12727590  0.75014703  0.37248572  1
  Zn  Zn107  1  0.12374182  0.49958793  0.62397280  1
  Zn  Zn108  1  0.62450689  0.49763555  0.12467441  1
  Zn  Zn109  1  0.00025631  0.50073527  0.49725862  1
  Zn  Zn110  1  0.87781790  0.50178521  0.37486071  1
  Zn  Zn111  1  0.00046005  0.37333699  0.87425546  1
  Zn  Zn112  1  0.74636190  0.13242145  0.87247289  1
  Zn  Zn113  1  0.49559619  0.74767297  0.25205955  1
  Zn  Zn114  1  0.74868910  0.87428122  0.12574762  1
  Zn  Zn115  1  -0.00131057  0.00221873  -0.00138013  1
  Zn  Zn116  1  0.00108229  0.37898543  0.37369105  1
  Zn  Zn117  1  0.75120153  0.37531722  0.12383242  1
  Zn  Zn118  1  0.25063497  0.12600224  0.37544582  1
  Zn  Zn119  1  0.37207724  0.12866392  0.75504506  1
  Zn  Zn120  1  0.87067300  0.37503048  -0.00292080  1
  Zn  Zn121  1  0.87654840  0.12572467  0.24885298  1
  Zn  Zn122  1  0.18967852  0.18794152  0.18570165  1
  Zn  Zn123  1  0.18709391  0.18792521  0.68583175  1
  Zn  Zn124  1  0.18687122  0.68950440  0.18574755  1
  Zn  Zn125  1  0.18645721  0.68678573  0.68669542  1
  Zn  Zn126  1  0.68955895  0.18689388  0.18325077  1
  Zn  Zn127  1  0.68893532  0.18828985  0.68788585  1
  Zn  Zn128  1  0.68658641  0.68845646  0.18795582  1
  Zn  Zn129  1  0.68866420  0.68912897  0.68814666  1
  Zn  Zn130  1  0.31274491  0.31247367  0.31315537  1
  Zn  Zn131  1  0.31596368  0.31318024  0.81076670  1
  Zn  Zn132  1  0.31123939  0.80887380  0.30961276  1
  Zn  Zn133  1  0.30978956  0.81525725  0.80969735  1
  Zn  Zn134  1  0.81420603  0.31132591  0.31229099  1
  Zn  Zn135  1  0.81444070  0.30991794  0.81796912  1
  Zn  Zn136  1  0.81244739  0.81368522  0.31584477  1
  Zn  Zn137  1  0.80962510  0.81154763  0.81292543  1
  Zn  Zn138  1  0.18885398  0.44037461  0.43703936  1
  Zn  Zn139  1  0.18874070  0.43412726  0.93794220  1
  Zn  Zn140  1  0.18775631  0.93685896  0.43668619  1
  Zn  Zn141  1  0.18645857  0.93803155  0.93525205  1
  Zn  Zn142  1  0.68977807  0.43922115  0.43889425  1
  Zn  Zn143  1  0.69068826  0.43827543  0.93638505  1
  Zn  Zn144  1  0.68675631  0.93790457  0.43626286  1
  Zn  Zn145  1  0.68531352  0.93869643  0.93513866  1
  Zn  Zn146  1  0.31136550  0.06223738  0.06455208  1
  Zn  Zn147  1  0.31129464  0.06393301  0.56554209  1
  Zn  Zn148  1  0.31394022  0.56268783  0.05990990  1
  Zn  Zn149  1  0.31051786  0.56213779  0.55767751  1
  Zn  Zn150  1  0.81266422  0.06330380  0.06623307  1
  Zn  Zn151  1  0.81217049  0.06179496  0.56511690  1
  Zn  Zn152  1  0.81258887  0.56196136  0.06121463  1
  Zn  Zn153  1  0.81264662  0.56285082  0.56317981  1
  Zn  Zn154  1  0.44116152  0.43746006  0.18804582  1
  Zn  Zn155  1  0.44000175  0.43745895  0.68862051  1
  Zn  Zn156  1  0.43686089  0.93530285  0.19067842  1
  Zn  Zn157  1  0.43606871  0.93641994  0.69057968  1
  Zn  Zn158  1  0.93906510  0.43602236  0.18524249  1
  Zn  Zn159  1  0.94062914  0.43832977  0.68668293  1
  Zn  Zn160  1  0.93674067  0.93752897  0.18533557  1
  Zn  Zn161  1  0.93679128  0.93900180  0.68630130  1
  Zn  Zn162  1  0.06297187  0.06492638  0.31276286  1
  Zn  Zn163  1  0.06144948  0.06351652  0.81353380  1
  Zn  Zn164  1  0.06160099  0.56109152  0.31313146  1
  Zn  Zn165  1  0.06119323  0.56308920  0.81027068  1
  Zn  Zn166  1  0.56320191  0.06094353  0.31472353  1
  Zn  Zn167  1  0.55836548  0.05895885  0.81410355  1
  Zn  Zn168  1  0.56146430  0.56059906  0.31303720  1
  Zn  Zn169  1  0.56177391  0.55952560  0.81183305  1
  Zn  Zn170  1  0.43850044  0.18818585  0.43766609  1
  Zn  Zn171  1  0.44096212  0.18549333  0.94078273  1
  Zn  Zn172  1  0.43556709  0.68463066  0.43938282  1
  Zn  Zn173  1  0.43662269  0.68651835  0.93903316  1
  Zn  Zn174  1  0.93699640  0.19066703  0.43485418  1
  Zn  Zn175  1  0.94324830  0.18489316  0.93547276  1
  Zn  Zn176  1  0.93759050  0.69022414  0.43603174  1
  Zn  Zn177  1  0.93728947  0.68725465  0.93731682  1
  Zn  Zn178  1  0.06470217  0.31024458  0.06093161  1
  Zn  Zn179  1  0.06304443  0.31307555  0.56411988  1
  Zn  Zn180  1  0.06271528  0.81485703  0.06071671  1
  Zn  Zn181  1  0.05950386  0.81231778  0.56093154  1
  Zn  Zn182  1  0.56090288  0.30981358  0.06634492  1
  Zn  Zn183  1  0.56288291  0.31287730  0.56394320  1
  Zn  Zn184  1  0.56199925  0.81118263  0.06402172  1
  Zn  Zn185  1  0.55864120  0.81025616  0.56344634  1
  O  O186  1  0.12493557  0.11614206  0.11775892  1
  O  O187  1  0.11891767  0.12035982  0.61824036  1
  O  O188  1  0.12027382  0.62001409  0.11893877  1
  O  O189  1  0.11834723  0.62571808  0.61622723  1
  O  O190  1  0.61813067  0.11572100  0.11976505  1
  O  O191  1  0.61947186  0.11861411  0.62025632  1
  O  O192  1  0.61703210  0.62701338  0.11542931  1
  O  O193  1  0.62151079  0.61733626  0.62346855  1
  O  O194  1  0.37951400  0.38153171  0.37953512  1
  O  O195  1  0.38481005  0.37815146  0.87981720  1
  O  O196  1  0.37917602  0.87960425  0.38046953  1
  O  O197  1  0.38598985  0.88249717  0.86948432  1
  O  O198  1  0.87472101  0.37570307  0.38692696  1
  O  O199  1  0.88024196  0.38728926  0.87640810  1
  O  O200  1  0.88182631  0.87765907  0.38539891  1
  O  O201  1  0.87769557  0.88000816  0.87941811  1
  O  O202  1  0.25633894  0.00282452  0.36904050  1
  O  O203  1  0.26083204  -0.00794980  0.86655154  1
  O  O204  1  0.26100305  0.50920091  0.37953989  1
  O  O205  1  0.25558607  0.50476452  0.86983934  1
  O  O206  1  0.74919664  0.00624682  0.36586689  1
  O  O207  1  0.75304764  0.00494406  0.86380578  1
  O  O208  1  0.75138559  0.50696240  0.36436539  1
  O  O209  1  0.76480630  0.50863506  0.88124902  1
  O  O210  1  0.24506463  0.48731340  0.11777034  1
  O  O211  1  0.25001715  0.49426193  0.63175458  1
  O  O212  1  0.24101105  0.99674082  0.13045424  1
  O  O213  1  0.24358766  0.99769082  0.63420175  1
  O  O214  1  0.74714405  0.50187426  0.13816190  1
  O  O215  1  0.74003204  0.48967639  0.62214422  1
  O  O216  1  0.74313806  0.99764612  0.13663985  1
  O  O217  1  0.74158900  1.00353238  0.63873757  1
  O  O218  1  0.01148667  0.36574777  0.24789398  1
  O  O219  1  0.00873276  0.36790853  0.74940994  1
  O  O220  1  0.00374328  0.87153821  0.25422857  1
  O  O221  1  0.00361886  0.86992873  0.75448304  1
  O  O222  1  0.51230144  0.37423816  0.25757346  1
  O  O223  1  0.50825119  0.36751049  0.75685085  1
  O  O224  1  0.50617896  0.87263650  0.25908654  1
  O  O225  1  0.50842730  0.87509381  0.76150360  1
  O  O226  1  0.49443678  0.12340623  0.24535119  1
  O  O227  1  0.50209520  0.13441293  0.74601036  1
  O  O228  1  0.50171571  0.62617528  0.23673475  1
  O  O229  1  0.49278371  0.62590331  0.74505244  1
  O  O230  1  1.00077322  0.13949904  0.24810854  1
  O  O231  1  0.99519931  0.12950680  0.74375703  1
  O  O232  1  0.99501092  0.63078357  0.24321353  1
  O  O233  1  0.99438405  0.63300718  0.74324510  1
  O  O234  1  0.37607567  0.25463776  0.00785668  1
  O  O235  1  0.37059069  0.25639632  0.50526744  1
  O  O236  1  0.36356121  0.74223143  0.00851614  1
  O  O237  1  0.37395050  0.75463764  0.51017112  1
  O  O238  1  0.88511284  0.25212181  0.01142135  1
  O  O239  1  0.86925679  0.25957226  0.50330697  1
  O  O240  1  0.86943219  0.75447016  0.00400935  1
  O  O241  1  0.86972140  0.75860870  0.50398899  1
  O  O242  1  0.13022759  0.24711931  0.49465324  1
  O  O243  1  0.12720989  0.24278344  0.99052929  1
  O  O244  1  0.12483329  0.73879761  0.49737726  1
  O  O245  1  0.13129263  0.74419156  0.99407895  1
  O  O246  1  0.63073985  0.24461265  0.49650408  1
  O  O247  1  0.62034644  0.22968510  1.00802571  1
  O  O248  1  0.62931747  0.74516880  0.49662159  1
  O  O249  1  0.62886946  0.74067487  0.99465899  1
  O  O250  1  0.49255396  0.24180505  0.13065357  1
  O  O251  1  0.49651621  0.24603027  0.63365956  1
  O  O252  1  0.49098623  0.74090608  0.12291091  1
  O  O253  1  0.48829785  0.74226072  0.62793697  1
  O  O254  1  0.99543472  0.25065458  0.13291388  1
  O  O255  1  1.00048762  0.24291188  0.63266674  1
  O  O256  1  0.99453133  0.74494726  0.12823581  1
  O  O257  1  0.99200951  0.74463813  0.63023800  1
  O  O258  1  0.00659924  0.25544641  0.36465041  1
  O  O259  1  0.01192905  0.25189569  0.86697250  1
  O  O260  1  0.00181545  0.75738229  0.36590674  1
  O  O261  1  0.00477428  0.75480632  0.86876067  1
  O  O262  1  0.50837052  0.25686318  0.37442767  1
  O  O263  1  0.49569090  0.26029217  0.86606912  1
  O  O264  1  0.50478054  0.75498997  0.37569997  1
  O  O265  1  0.50342029  0.75777254  0.87586370  1
  O  O266  1  0.24284616  0.13306979  0.50083024  1
  O  O267  1  0.23745621  0.12669357  1.00424399  1
  O  O268  1  0.24040447  0.62743927  0.49110784  1
  O  O269  1  0.24382536  0.63241801  0.99324897  1
  O  O270  1  0.74462576  0.12953326  0.49647679  1
  O  O271  1  0.73127182  0.11685405  1.00173043  1
  O  O272  1  0.74443419  0.63127269  0.49476813  1
  O  O273  1  0.74169548  0.63032709  0.99417485  1
  O  O274  1  0.25789250  0.37051222  0.00858673  1
  O  O275  1  0.25576154  0.37015590  0.50580661  1
  O  O276  1  0.24380701  0.85966524  -0.00034988  1
  O  O277  1  0.25667252  0.87240679  0.50328427  1
  O  O278  1  0.75211858  0.37623481  0.00649119  1
  O  O279  1  0.75651406  0.37074486  0.50879669  1
  O  O280  1  0.75389204  0.86860219  -0.00019690  1
  O  O281  1  0.76151920  0.87012857  0.49257416  1
  O  O282  1  0.11768323  0.48708134  0.24082214  1
  O  O283  1  0.13205430  0.49388406  0.74940790  1
  O  O284  1  0.12930588  0.99758307  0.24158298  1
  O  O285  1  0.13119477  0.99673183  0.74622622  1
  O  O286  1  0.63419341  0.49095982  0.25103176  1
  O  O287  1  0.62098489  0.48814160  0.73940912  1
  O  O288  1  0.63180210  0.99354884  0.24749744  1
  O  O289  1  0.62913394  0.99352077  0.74709107  1
  O  O290  1  0.36965635  0.00415432  0.25616298  1
  O  O291  1  0.36727155  0.00206236  0.75771910  1
  O  O292  1  0.38040154  0.50071721  0.26399297  1
  O  O293  1  0.36942050  0.50417211  0.75515036  1
  O  O294  1  0.86300857  0.00094642  0.25030049  1
  O  O295  1  0.86543788  0.00302246  0.75334811  1
  O  O296  1  0.86661591  0.50589707  0.24919339  1
  O  O297  1  0.88449373  0.50863410  0.76178740  1
  O  O298  1  0.12781765  0.37086353  0.36461560  1
  O  O299  1  0.12383387  0.36589129  0.86882874  1
  O  O300  1  0.11772178  0.87458583  0.36707906  1
  O  O301  1  0.11783926  0.86962632  0.86818259  1
  O  O302  1  0.62249652  0.37074604  0.36957215  1
  O  O303  1  0.61669829  0.38347749  0.86480114  1
  O  O304  1  0.61780979  0.86882297  0.37276589  1
  O  O305  1  0.61438403  0.87064907  0.86747372  1
  O  O306  1  0.38011169  0.12874941  0.13173303  1
  O  O307  1  0.38284374  0.13261840  0.62752621  1
  O  O308  1  0.38322645  0.62988077  0.12454957  1
  O  O309  1  0.37852165  0.63052092  0.62889194  1
  O  O310  1  0.87876424  0.13518513  0.12814752  1
  O  O311  1  0.88139285  0.12678505  0.63235183  1
  O  O312  1  0.88093114  0.63078518  0.12952314  1
  O  O313  1  0.87991849  0.63185197  0.62938344  1
  O  O314  1  0.25731440  0.26119843  0.12241605  1
  O  O315  1  0.25697402  0.25648159  0.62071310  1
  O  O316  1  0.25688609  0.74964246  0.11568488  1
  O  O317  1  0.26173581  0.75056163  0.62396275  1
  O  O318  1  0.76126881  0.25041175  0.11839838  1
  O  O319  1  0.75075561  0.26151220  0.61931635  1
  O  O320  1  0.75664540  0.75069663  0.11860875  1
  O  O321  1  0.75745164  0.74568020  0.61580040  1
  O  O322  1  0.24420672  0.24911502  0.38276712  1
  O  O323  1  0.23904913  0.25380264  0.87373340  1
  O  O324  1  0.24804025  0.73864660  0.37703582  1
  O  O325  1  0.24518420  0.74500206  0.87991295  1
  O  O326  1  0.74465586  0.24481688  0.38108960  1
  O  O327  1  0.75462982  0.24403758  0.88393027  1
  O  O328  1  0.74245781  0.74478924  0.38179265  1
  O  O329  1  0.74282984  0.74342791  0.88154486  1
  O  O330  1  0.01567346  0.12091618  0.00174105  1
  O  O331  1  0.00489148  0.12146823  0.50389870  1
  O  O332  1  0.00604008  0.61825827  0.00448324  1
  O  O333  1  0.00721811  0.62728095  0.50509472  1
  O  O334  1  0.50767147  0.11335917  0.00793324  1
  O  O335  1  0.50616285  0.11992972  0.50659612  1
  O  O336  1  0.50885790  0.62401432  0.00689016  1
  O  O337  1  0.50823712  0.62349933  0.50850759  1
  O  O338  1  0.49435566  0.37542967  0.49477733  1
  O  O339  1  0.49806675  0.37364711  0.99157853  1
  O  O340  1  0.49355732  0.88070369  0.49561002  1
  O  O341  1  0.50652068  0.88380220  0.99094792  1
  O  O342  1  0.98885253  0.37507357  0.50104327  1
  O  O343  1  1.00257173  0.39004490  0.99942864  1
  O  O344  1  0.99223676  0.88124741  0.49340282  1
  O  O345  1  0.99209598  0.87673917  0.99167937  1
  O  O346  1  0.49226734  0.49441642  0.37919612  1
  O  O347  1  0.49412264  0.48734769  0.87518530  1
  O  O348  1  0.49435505  0.99369534  0.38306237  1
  O  O349  1  0.49167109  0.99104594  0.88325537  1
  O  O350  1  0.99495162  0.49571131  0.37834643  1
  O  O351  1  0.99316983  0.50313521  0.88371627  1
  O  O352  1  0.99872993  0.99521831  0.38069017  1
  O  O353  1  0.99108639  0.99225807  0.87350804  1
  O  O354  1  0.01208386  0.00251802  0.12375618  1
  O  O355  1  0.00577015  0.00698220  0.61925488  1
  O  O356  1  0.00597678  0.50646224  0.11600587  1
  O  O357  1  0.00237172  0.51158263  0.62160851  1
  O  O358  1  0.50218741  0.00136978  0.11929553  1
  O  O359  1  0.50406121  0.00515372  0.62108931  1
  O  O360  1  0.50323652  0.50986401  0.12102131  1
  O  O361  1  0.51055710  0.50395401  0.62367457  1
  O  O362  1  0.24033143  0.36936008  0.23908231  1
  O  O363  1  0.24683253  0.38028993  0.74449928  1
  O  O364  1  0.24229625  0.88201944  0.24770152  1
  O  O365  1  0.24163135  0.88544291  0.74680882  1
  O  O366  1  0.74272750  0.38323028  0.25094118  1
  O  O367  1  0.74104828  0.36701372  0.74065025  1
  O  O368  1  0.74302083  0.88438316  0.25210892  1
  O  O369  1  0.73616985  0.88476214  0.75807996  1
  O  O370  1  0.25722390  0.11804228  0.25122060  1
  O  O371  1  0.25121534  0.11158876  0.74604576  1
  O  O372  1  0.24720773  0.62643341  0.26174219  1
  O  O373  1  0.25453715  0.61967923  0.75581403  1
  O  O374  1  0.74731941  0.11459820  0.25543777  1
  O  O375  1  0.75424588  0.11624841  0.75124263  1
  O  O376  1  0.75367744  0.61851662  0.25481832  1
  O  O377  1  0.75845856  0.63197970  0.75959078  1
  O  O378  1  0.37493877  0.11775020  0.37074368  1
  O  O379  1  0.38349492  0.10993023  0.87363605  1
  O  O380  1  0.36750671  0.61738037  0.37387359  1
  O  O381  1  0.36977331  0.61896168  0.86971020  1
  O  O382  1  0.86683597  0.12432667  0.37079977  1
  O  O383  1  0.87656523  0.11647610  0.86757535  1
  O  O384  1  0.86723563  0.62661024  0.36725740  1
  O  O385  1  0.87075215  0.62016591  0.86964105  1
  O  O386  1  0.13390384  0.37853017  0.12959534  1
  O  O387  1  0.13370715  0.37623443  0.63201084  1
  O  O388  1  0.12574711  0.88585175  0.12896904  1
  O  O389  1  0.12249226  0.88240482  0.63075785  1
  O  O390  1  0.62577921  0.37536320  0.13753867  1
  O  O391  1  0.63205065  0.38145856  0.63172890  1
  O  O392  1  0.62543497  0.87921422  0.13328732  1
  O  O393  1  0.61410845  0.87992938  0.63914255  1
  O  O394  1  0.11954513  0.25844909  0.25232839  1
  O  O395  1  0.12220200  0.25353066  0.75634170  1
  O  O396  1  0.11655904  0.75841587  0.24753121  1
  O  O397  1  0.11928819  0.75561636  0.75455276  1
  O  O398  1  0.62797365  0.25927806  0.25673612  1
  O  O399  1  0.61458008  0.26103781  0.74346066  1
  O  O400  1  0.62331668  0.75519433  0.25856850  1
  O  O401  1  0.62288295  0.75837612  0.75586600  1
  O  O402  1  0.37740113  0.24299845  0.24600386  1
  O  O403  1  0.38744564  0.24940661  0.74452792  1
  O  O404  1  0.37591116  0.74263312  0.23780827  1
  O  O405  1  0.37471840  0.74387806  0.74163296  1
  O  O406  1  0.88414957  0.25197031  0.24032770  1
  O  O407  1  0.88331082  0.24351581  0.74872416  1
  O  O408  1  0.87885803  0.74579409  0.24361845  1
  O  O409  1  0.87948867  0.74694101  0.74474440  1
  O  O410  1  0.37744101  0.49335960  0.49063376  1
  O  O411  1  0.37762131  0.49170889  0.99202243  1
  O  O412  1  0.37973135  0.99514678  0.49707728  1
  O  O413  1  0.38562038  1.00356087  0.99487681  1
  O  O414  1  0.87397921  0.48950773  0.49848510  1
  O  O415  1  0.88590286  0.50329481  0.99144390  1
  O  O416  1  0.88027678  0.99288532  0.49980965  1
  O  O417  1  0.87446061  0.99430965  0.99420608  1
  O  O418  1  0.12571643  0.00580875  0.00666058  1
  O  O419  1  0.11939746  0.00600339  0.50487231  1
  O  O420  1  0.11871288  0.50588612  0.00324162  1
  O  O421  1  0.12377963  0.51285850  0.50203029  1
  O  O422  1  0.61362045  0.00428948  0.00687509  1
  O  O423  1  0.61922500  0.00385040  0.50604756  1
  O  O424  1  0.62478088  0.51301717  0.00111307  1
  O  O425  1  0.62489239  0.50560907  0.51146725  1
  O  O426  1  0.37061938  0.37112815  0.12210366  1
  O  O427  1  0.37158506  0.37019796  0.62050885  1
  O  O428  1  0.37436181  0.86073337  0.12795164  1
  O  O429  1  0.37592533  0.86488526  0.62083194  1
  O  O430  1  0.87383714  0.36566296  0.12208621  1
  O  O431  1  0.86611047  0.37618639  0.61937619  1
  O  O432  1  0.87255892  0.86829688  0.11709868  1
  O  O433  1  0.88192343  0.86974506  0.61105324  1
  O  O434  1  0.12699059  0.13369660  0.38179240  1
  O  O435  1  0.12247157  0.13362027  0.88205256  1
  O  O436  1  0.13170618  0.62488944  0.38117870  1
  O  O437  1  0.13023442  0.63146353  0.87801742  1
  O  O438  1  0.62989564  0.13010390  0.38260954  1
  O  O439  1  0.62005371  0.11668230  0.89234952  1
  O  O440  1  0.62912576  0.62931177  0.38165947  1
  O  O441  1  0.62796060  0.62838306  0.88149114  1
