# generated using pymatgen
data_V93Zn93O256
_symmetry_space_group_name_H-M   'P 1'
_cell_length_a   17.06749603
_cell_length_b   17.06810199
_cell_length_c   17.06914815
_cell_angle_alpha   90.03019368
_cell_angle_beta   89.97116675
_cell_angle_gamma   89.93526615
_symmetry_Int_Tables_number   1
_chemical_formula_structural   V93Zn93O256
_chemical_formula_sum   'V93 Zn93 O256'
_cell_volume   4972.40500398
_cell_formula_units_Z   1
loop_
 _symmetry_equiv_pos_site_id
 _symmetry_equiv_pos_as_xyz
  1  'x, y, z'
loop_
 _atom_site_type_symbol
 _atom_site_label
 _atom_site_symmetry_multiplicity
 _atom_site_fract_x
 _atom_site_fract_y
 _atom_site_fract_z
 _atom_site_occupancy
  V  V0  1  0.24864639  -0.00059263  0.24924829  1
  V  V1  1  0.62509472  0.24942073  0.37449034  1
  V  V2  1  0.25565775  0.25066894  0.00451150  1
  V  V3  1  0.11747086  0.50422658  0.12504061  1
  V  V4  1  0.50068546  0.87428085  0.37478758  1
  V  V5  1  0.74775618  0.87556970  0.62464478  1
  V  V6  1  0.75255070  0.00170581  0.75545697  1
  V  V7  1  0.25335463  0.50208335  0.25010307  1
  V  V8  1  0.49864872  0.62631425  0.12657664  1
  V  V9  1  0.37510969  0.87491606  0.50022876  1
  V  V10  1  0.49437142  0.25021770  0.24489141  1
  V  V11  1  0.63575579  0.24456415  0.88221756  1
  V  V12  1  0.00016871  -0.00114051  0.50048467  1
  V  V13  1  0.12557644  0.24978219  0.37582300  1
  V  V14  1  0.49942273  0.12489057  0.62579912  1
  V  V15  1  0.37520079  0.62615628  0.74957282  1
  V  V16  1  0.12446601  0.74980587  0.37400971  1
  V  V17  1  0.37438978  0.49951534  0.87553686  1
  V  V18  1  0.12116180  0.25637074  0.87735865  1
  V  V19  1  0.87499537  0.50015008  0.37315503  1
  V  V20  1  0.37501143  0.87575364  0.00145360  1
  V  V21  1  0.87226163  0.12251106  0.75623497  1
  V  V22  1  0.25020084  0.74973921  0.50015089  1
  V  V23  1  0.74973405  0.74899550  0.49834165  1
  V  V24  1  0.25030905  0.25058571  0.50065493  1
  V  V25  1  0.87772172  0.74162781  0.12320089  1
  V  V26  1  0.37526224  -0.00048533  0.87503428  1
  V  V27  1  0.87371888  0.87858288  -0.00188743  1
  V  V28  1  0.12606345  0.12515871  0.50145900  1
  V  V29  1  0.49884960  0.24836056  0.75233934  1
  V  V30  1  0.87706415  0.12379919  0.25447390  1
  V  V31  1  -0.00384667  0.00250331  -0.00375468  1
  V  V32  1  -0.00032139  0.62637968  0.62319356  1
  V  V33  1  0.74915768  0.87301002  0.12557656  1
  V  V34  1  0.37527977  0.12541613  0.75049062  1
  V  V35  1  0.24901681  0.00040420  0.75031095  1
  V  V36  1  0.37594666  0.37572304  0.49932635  1
  V  V37  1  0.12073577  0.37768133  0.75375545  1
  V  V38  1  0.00020142  0.24770973  0.25223809  1
  V  V39  1  0.62383087  0.87370435  0.25071559  1
  V  V40  1  0.75010074  0.62567164  0.87185403  1
  V  V41  1  0.74850819  0.37536733  0.62495302  1
  V  V42  1  0.50019558  0.00063173  0.50114537  1
  V  V43  1  0.12534733  -0.00006965  0.62676316  1
  V  V44  1  0.37498407  0.00008131  0.37527305  1
  V  V45  1  0.74959597  0.12256380  0.37795808  1
  V  V46  1  0.00016049  0.12464661  0.62614198  1
  V  V47  1  0.87468028  0.62464442  0.75079939  1
  V  V48  1  -0.00079936  0.25265200  0.75187939  1
  V  V49  1  -0.00051696  0.87419254  0.37436069  1
  V  V50  1  0.87578815  -0.00213590  0.37665926  1
  V  V51  1  0.49765822  0.12551913  0.12099310  1
  V  V52  1  0.74683850  0.75046850  -0.00540743  1
  V  V53  1  0.00118759  0.37449419  0.37662768  1
  V  V54  1  0.12418776  0.12457744  0.00216061  1
  V  V55  1  -0.00408855  0.87790852  0.87381952  1
  V  V56  1  0.49837914  0.37523763  0.87467211  1
  V  V57  1  0.87513592  0.24941361  0.62540142  1
  V  V58  1  0.49839519  0.50117254  -0.00179228  1
  V  V59  1  0.25031352  0.50005837  0.75043991  1
  V  V60  1  0.25099383  0.12494695  0.37507920  1
  V  V61  1  0.75042006  -0.00357575  0.25366275  1
  V  V62  1  0.24963763  0.87559183  0.62642623  1
  V  V63  1  0.12481623  0.62504137  0.50060727  1
  V  V64  1  0.25686101  0.37225914  0.12546012  1
  V  V65  1  0.75094768  0.62369792  0.37065398  1
  V  V66  1  0.00123722  0.75287294  0.74930355  1
  V  V67  1  0.86893479  0.25512767  0.12316146  1
  V  V68  1  0.62359207  0.12467065  0.50171246  1
  V  V69  1  0.25099201  0.62482421  0.37437755  1
  V  V70  1  0.62520294  0.74918539  0.37397719  1
  V  V71  1  0.62389203  0.00039803  0.12510352  1
  V  V72  1  0.12678376  0.37463800  0.25069521  1
  V  V73  1  0.12597974  0.87522813  0.24828571  1
  V  V74  1  0.37570460  0.74949718  0.62613171  1
  V  V75  1  0.87431385  0.75060238  0.62288186  1
  V  V76  1  0.25022556  0.75002617  0.00123037  1
  V  V77  1  0.11470319  0.62667203  0.00387820  1
  V  V78  1  0.00069418  0.50087377  0.50007279  1
  V  V79  1  0.62444753  0.62849069  -0.00685740  1
  V  V80  1  0.50516604  0.87108315  0.87474052  1
  V  V81  1  -0.00019316  0.74290403  0.24425978  1
  V  V82  1  0.50658021  0.75048008  0.75301081  1
  V  V83  1  0.87542145  0.37451903  0.50065040  1
  V  V84  1  0.25034089  0.37526164  0.62564066  1
  V  V85  1  0.50016896  0.37789156  0.37431182  1
  V  V86  1  0.62519462  0.37650666  0.74896941  1
  V  V87  1  0.63178953  0.37339944  0.24451580  1
  V  V88  1  0.63343678  0.49656654  0.12090444  1
  V  V89  1  0.37484964  0.12669406  0.24726049  1
  V  V90  1  0.24986426  0.62564791  0.87673099  1
  V  V91  1  0.25026447  0.12528928  0.87594758  1
  V  V92  1  0.74986770  0.24907443  0.50061800  1
  Zn  Zn93  1  0.62425236  0.00015567  0.62846579  1
  Zn  Zn94  1  0.62816414  0.87461349  0.75508441  1
  Zn  Zn95  1  0.81135005  0.06577427  0.91855596  1
  Zn  Zn96  1  0.49779475  0.75002698  0.25027512  1
  Zn  Zn97  1  0.71307018  0.31342291  0.06036568  1
  Zn  Zn98  1  0.12539302  0.50073671  0.62541353  1
  Zn  Zn99  1  0.62448086  0.50243524  0.62107387  1
  Zn  Zn100  1  0.88563327  0.48866710  0.87124669  1
  Zn  Zn101  1  0.37431615  0.37386754  0.00154965  1
  Zn  Zn102  1  0.37569027  0.75141989  0.12799151  1
  Zn  Zn103  1  0.24965535  0.87631328  0.12524396  1
  Zn  Zn104  1  -0.00013262  0.12355176  0.12746272  1
  Zn  Zn105  1  0.00613187  0.47995532  -0.01755654  1
  Zn  Zn106  1  0.12537947  0.87490750  0.75267535  1
  Zn  Zn107  1  0.12464004  -0.00167837  0.12457177  1
  Zn  Zn108  1  0.12448375  0.75124596  0.87505485  1
  Zn  Zn109  1  0.37480077  0.24983383  0.62658587  1
  Zn  Zn110  1  0.50247290  0.00281076  -0.00266041  1
  Zn  Zn111  1  0.37712440  0.50368521  0.37554948  1
  Zn  Zn112  1  0.37677900  0.62873812  0.25176801  1
  Zn  Zn113  1  0.87575277  0.37563206  -0.01273010  1
  Zn  Zn114  1  0.64251063  0.12542015  0.00177324  1
  Zn  Zn115  1  0.50147369  0.50226839  0.50409647  1
  Zn  Zn116  1  0.75482638  0.49623900  0.24483904  1
  Zn  Zn117  1  0.87563727  0.87445774  0.49978297  1
  Zn  Zn118  1  0.50278730  0.62330269  0.62293481  1
  Zn  Zn119  1  0.87964537  0.61880306  0.24299433  1
  Zn  Zn120  1  0.75047533  0.50036389  0.74718284  1
  Zn  Zn121  1  0.62166202  0.62076348  0.49966877  1
  Zn  Zn122  1  0.18810195  0.18736600  0.18685268  1
  Zn  Zn123  1  0.18805165  0.18970832  0.68852385  1
  Zn  Zn124  1  0.18770552  0.68790527  0.18496568  1
  Zn  Zn125  1  0.18671025  0.68823440  0.68807900  1
  Zn  Zn126  1  0.68498189  0.18148772  0.19239304  1
  Zn  Zn127  1  0.68686037  0.18758114  0.69015147  1
  Zn  Zn128  1  0.68704769  0.68663658  0.18565904  1
  Zn  Zn129  1  0.68531805  0.68817128  0.68412690  1
  Zn  Zn130  1  0.31320626  0.31316549  0.31360399  1
  Zn  Zn131  1  0.31018866  0.31254170  0.81438816  1
  Zn  Zn132  1  0.31368977  0.81155574  0.31139946  1
  Zn  Zn133  1  0.31497061  0.81244778  0.81366869  1
  Zn  Zn134  1  0.81393768  0.31035320  0.31344566  1
  Zn  Zn135  1  0.81141563  0.31205223  0.81214297  1
  Zn  Zn136  1  0.81466966  0.81024980  0.31113671  1
  Zn  Zn137  1  0.81409858  0.81346642  0.81163254  1
  Zn  Zn138  1  0.18818137  0.43880953  0.43773409  1
  Zn  Zn139  1  0.18695827  0.43984760  0.94023310  1
  Zn  Zn140  1  0.18685770  0.93671407  0.43691640  1
  Zn  Zn141  1  0.18493666  0.93696764  0.93603011  1
  Zn  Zn142  1  0.68725356  0.43873994  0.43645776  1
  Zn  Zn143  1  0.69161380  0.44008390  0.93092188  1
  Zn  Zn144  1  0.68584958  0.93602641  0.44015595  1
  Zn  Zn145  1  0.68340527  0.93726339  0.94091248  1
  Zn  Zn146  1  0.31338150  0.06116003  0.06433875  1
  Zn  Zn147  1  0.31353199  0.06264636  0.56401966  1
  Zn  Zn148  1  0.31042932  0.56200292  0.06289541  1
  Zn  Zn149  1  0.31404886  0.56183731  0.56390433  1
  Zn  Zn150  1  0.81333917  0.06523640  0.07888354  1
  Zn  Zn151  1  0.81320829  0.06119049  0.56605732  1
  Zn  Zn152  1  0.81703224  0.55634470  0.05314164  1
  Zn  Zn153  1  0.80983231  0.56145784  0.56095343  1
  Zn  Zn154  1  0.44029957  0.44087684  0.18624174  1
  Zn  Zn155  1  0.43848616  0.43824151  0.68627207  1
  Zn  Zn156  1  0.43744380  0.94025213  0.18763982  1
  Zn  Zn157  1  0.43731095  0.93684358  0.68851318  1
  Zn  Zn158  1  0.93795813  0.43338034  0.18764014  1
  Zn  Zn159  1  0.93816658  0.43949854  0.68769452  1
  Zn  Zn160  1  0.93905432  0.93395215  0.18443164  1
  Zn  Zn161  1  0.93459776  0.93853072  0.68788655  1
  Zn  Zn162  1  0.06385592  0.06107883  0.31460897  1
  Zn  Zn163  1  0.06171144  0.06500465  0.81405803  1
  Zn  Zn164  1  0.06504700  0.56157473  0.31283410  1
  Zn  Zn165  1  0.06541227  0.56753442  0.81351710  1
  Zn  Zn166  1  0.56180608  0.06193386  0.31183442  1
  Zn  Zn167  1  0.56475753  0.06060325  0.81348757  1
  Zn  Zn168  1  0.56728621  0.56113615  0.30947214  1
  Zn  Zn169  1  0.56057396  0.56298841  0.81080857  1
  Zn  Zn170  1  0.43774142  0.18932685  0.43576222  1
  Zn  Zn171  1  0.43979730  0.18799037  0.93564415  1
  Zn  Zn172  1  0.43825543  0.68646923  0.43719588  1
  Zn  Zn173  1  0.43595020  0.68874791  0.93664934  1
  Zn  Zn174  1  0.93819208  0.18627227  0.43888375  1
  Zn  Zn175  1  0.94035870  0.19746247  0.94067486  1
  Zn  Zn176  1  0.93580901  0.68752600  0.43490132  1
  Zn  Zn177  1  0.93530881  0.69069736  0.93384246  1
  Zn  Zn178  1  0.06023283  0.31378579  0.06886515  1
  Zn  Zn179  1  0.06340974  0.31315595  0.56593837  1
  Zn  Zn180  1  0.06257344  0.81390148  0.06239146  1
  Zn  Zn181  1  0.06345290  0.81343397  0.56274218  1
  Zn  Zn182  1  0.55075662  0.31177412  0.06068268  1
  Zn  Zn183  1  0.56086641  0.31096181  0.56395806  1
  Zn  Zn184  1  0.56158425  0.81226154  0.06265161  1
  Zn  Zn185  1  0.56345297  0.80890850  0.56295972  1
  O  O186  1  0.12255464  0.12533800  0.11248316  1
  O  O187  1  0.12040771  0.12051637  0.62065629  1
  O  O188  1  0.13373605  0.61494473  0.11511481  1
  O  O189  1  0.11815471  0.62473747  0.61787086  1
  O  O190  1  0.61516958  0.11897749  0.12568105  1
  O  O191  1  0.61769623  0.12540602  0.61869935  1
  O  O192  1  0.61764550  0.61756245  0.11483697  1
  O  O193  1  0.62290394  0.62172002  0.62026117  1
  O  O194  1  0.38367885  0.37544554  0.38193075  1
  O  O195  1  0.37993024  0.38236552  0.87525155  1
  O  O196  1  0.38007924  0.88072968  0.38140992  1
  O  O197  1  0.38179736  0.88050305  0.88368427  1
  O  O198  1  0.88121467  0.37899956  0.38112752  1
  O  O199  1  0.87861397  0.37416772  0.86977249  1
  O  O200  1  0.88139454  0.88062688  0.37615082  1
  O  O201  1  0.88720787  0.87032075  0.88240969  1
  O  O202  1  0.25535195  0.00614375  0.37083021  1
  O  O203  1  0.25443040  0.00588055  0.87029708  1
  O  O204  1  0.24907920  0.50494951  0.36440867  1
  O  O205  1  0.25481165  0.50558315  0.87037222  1
  O  O206  1  0.75536323  0.00308611  0.37264775  1
  O  O207  1  0.74946582  -0.01036152  0.86117037  1
  O  O208  1  0.75649646  0.50758746  0.37198087  1
  O  O209  1  0.75379351  0.51784313  0.86817655  1
  O  O210  1  0.24254395  0.49292528  0.13294781  1
  O  O211  1  0.24894293  0.49339259  0.63257928  1
  O  O212  1  0.24675430  0.99828869  0.13404952  1
  O  O213  1  0.24506403  0.99549192  0.63021380  1
  O  O214  1  0.73545583  0.51033671  0.12499148  1
  O  O215  1  0.74759435  0.49010255  0.62724182  1
  O  O216  1  0.74470458  0.99121352  0.13556166  1
  O  O217  1  0.74975946  0.99031531  0.63309495  1
  O  O218  1  0.00810337  0.36811169  0.25877705  1
  O  O219  1  0.01404038  0.36886407  0.74074099  1
  O  O220  1  0.00569820  0.86599692  0.25525238  1
  O  O221  1  -0.00167017  0.87219846  0.75802192  1
  O  O222  1  0.50679245  0.36784401  0.25361668  1
  O  O223  1  0.50704292  0.36832739  0.75495000  1
  O  O224  1  0.50644522  0.87656102  0.25725352  1
  O  O225  1  0.49862025  0.86807527  0.75845985  1
  O  O226  1  0.49614714  0.13261976  0.24421942  1
  O  O227  1  0.49444923  0.12834209  0.74596512  1
  O  O228  1  0.50110907  0.62369039  0.23805391  1
  O  O229  1  0.49260119  0.63509813  0.75233871  1
  O  O230  1  0.99517362  0.12989853  0.25410229  1
  O  O231  1  0.99344834  0.13067674  0.74454985  1
  O  O232  1  1.00058455  0.63939622  0.25452849  1
  O  O233  1  0.99259700  0.63334568  0.74280052  1
  O  O234  1  0.35859066  0.25075563  -0.00724069  1
  O  O235  1  0.36892950  0.26019085  0.49899209  1
  O  O236  1  0.36678841  0.75880813  0.00087254  1
  O  O237  1  0.36867215  0.75655372  0.50512887  1
  O  O238  1  0.87792575  0.24621226  0.02178295  1
  O  O239  1  0.87031696  0.25450017  0.50535501  1
  O  O240  1  0.86635057  0.75551611  0.00635486  1
  O  O241  1  0.86845257  0.75162605  0.50536744  1
  O  O242  1  0.13003141  0.24477046  0.49548546  1
  O  O243  1  0.13233535  0.24298800  0.99440383  1
  O  O244  1  0.13046459  0.74496579  0.49411311  1
  O  O245  1  0.13582437  0.74520316  1.00102702  1
  O  O246  1  0.62997856  0.24489392  0.49382548  1
  O  O247  1  0.62869213  0.25516391  0.99178983  1
  O  O248  1  0.63328240  0.74927362  0.49074531  1
  O  O249  1  0.63633536  0.73975550  1.00724766  1
  O  O250  1  0.50402347  0.24099362  0.13636572  1
  O  O251  1  0.49722480  0.24272305  0.63347481  1
  O  O252  1  0.49993314  0.73783727  0.12553398  1
  O  O253  1  0.49168239  0.75182029  0.63521708  1
  O  O254  1  0.99092130  0.24548975  0.13710150  1
  O  O255  1  0.99516011  0.24386618  0.63083696  1
  O  O256  1  0.98943732  0.75741522  0.13328113  1
  O  O257  1  0.99411903  0.74622054  0.62837308  1
  O  O258  1  0.00633528  0.25503812  0.37301086  1
  O  O259  1  0.01578915  0.24507499  0.86830440  1
  O  O260  1  0.00486736  0.75493810  0.36650985  1
  O  O261  1  0.00111280  0.76082546  0.86774967  1
  O  O262  1  0.50564915  0.25812800  0.36589386  1
  O  O263  1  0.50638032  0.25754572  0.87125839  1
  O  O264  1  0.50709316  0.75762413  0.37368881  1
  O  O265  1  0.49064462  0.76016638  0.86468788  1
  O  O266  1  0.24580517  0.12994447  0.49506547  1
  O  O267  1  0.24312075  0.13119251  0.99703897  1
  O  O268  1  0.24520561  0.63023569  0.49525622  1
  O  O269  1  0.24567088  0.63374452  0.99575640  1
  O  O270  1  0.74465347  0.12941978  0.49690790  1
  O  O271  1  0.75480689  0.11628143  0.99974937  1
  O  O272  1  0.75122338  0.63068858  0.48608298  1
  O  O273  1  0.74366169  0.63194373  0.99103319  1
  O  O274  1  0.24913654  0.36756633  0.00852994  1
  O  O275  1  0.25684719  0.37026035  0.50345252  1
  O  O276  1  0.25829749  0.86797367  -0.00226678  1
  O  O277  1  0.25512874  0.86976798  0.50516107  1
  O  O278  1  0.76127358  0.38739064  -0.00171810  1
  O  O279  1  0.75623967  0.36744976  0.50341483  1
  O  O280  1  0.75284199  0.86750466  0.00414930  1
  O  O281  1  0.75232247  0.86965348  0.50880317  1
  O  O282  1  0.13554044  0.49563529  0.24548366  1
  O  O283  1  0.13230561  0.49218162  0.74900913  1
  O  O284  1  0.13077757  0.99381353  0.25029654  1
  O  O285  1  0.13133677  1.00118171  0.74431019  1
  O  O286  1  0.62520648  0.48829770  0.23756540  1
  O  O287  1  0.62577170  0.48484750  0.75284187  1
  O  O288  1  0.63123447  0.99375164  0.24657770  1
  O  O289  1  0.63681039  0.99811382  0.74741641  1
  O  O290  1  0.36893469  0.00586450  0.25739901  1
  O  O291  1  0.36836647  0.00596546  0.75549400  1
  O  O292  1  0.36264261  0.50141406  0.25081021  1
  O  O293  1  0.36926756  0.50549042  0.75617666  1
  O  O294  1  0.87060852  0.00256449  0.25637840  1
  O  O295  1  0.86696409  0.01167698  0.74584226  1
  O  O296  1  0.87340866  0.50065800  0.25493757  1
  O  O297  1  0.87293068  0.51612663  0.74673130  1
  O  O298  1  0.12115093  0.36902820  0.37094524  1
  O  O299  1  0.13369431  0.36625906  0.86527029  1
  O  O300  1  0.11961628  0.86850902  0.36918265  1
  O  O301  1  0.11137459  0.87274814  0.87399990  1
  O  O302  1  0.61687744  0.36905848  0.36575482  1
  O  O303  1  0.61954481  0.36639153  0.86760372  1
  O  O304  1  0.62017110  0.87008426  0.37004882  1
  O  O305  1  0.60897239  0.87766599  0.87603503  1
  O  O306  1  0.38702154  0.11862933  0.13349492  1
  O  O307  1  0.38077156  0.12693122  0.63226686  1
  O  O308  1  0.38895718  0.62289109  0.12403735  1
  O  O309  1  0.37427545  0.63281286  0.63284727  1
  O  O310  1  0.88028181  0.13397152  0.13935099  1
  O  O311  1  0.88153678  0.13069199  0.63221496  1
  O  O312  1  0.86700616  0.63909992  0.12357001  1
  O  O313  1  0.87840750  0.63116476  0.63124789  1
  O  O314  1  0.24304461  0.26037695  0.11618759  1
  O  O315  1  0.25170724  0.25620293  0.61809715  1
  O  O316  1  0.25386346  0.75269287  0.11284671  1
  O  O317  1  0.25502261  0.75579757  0.61951538  1
  O  O318  1  0.76221307  0.24319297  0.13426397  1
  O  O319  1  0.75534708  0.25468514  0.61935715  1
  O  O320  1  0.75651696  0.75449265  0.11569639  1
  O  O321  1  0.75507119  0.75790135  0.61960839  1
  O  O322  1  0.24464472  0.24465581  0.38026515  1
  O  O323  1  0.23973731  0.24506711  0.88329044  1
  O  O324  1  0.24382221  0.74519653  0.38085368  1
  O  O325  1  0.25093659  0.74542955  0.88582301  1
  O  O326  1  0.74507384  0.24256180  0.38131251  1
  O  O327  1  0.73303259  0.24807630  0.86916154  1
  O  O328  1  0.74654227  0.74280980  0.37805111  1
  O  O329  1  0.75456643  0.74324143  0.88673839  1
  O  O330  1  0.00873936  0.11841253  -0.00219960  1
  O  O331  1  0.00671815  0.11958671  0.50603230  1
  O  O332  1  0.01573270  0.63736600  -0.00280865  1
  O  O333  1  0.00472486  0.62099998  0.50327486  1
  O  O334  1  0.50010067  0.12676377  0.01290186  1
  O  O335  1  0.50356157  0.12104404  0.50439660  1
  O  O336  1  0.50780334  0.62233721  0.00367111  1
  O  O337  1  0.50140192  0.62099105  0.50209276  1
  O  O338  1  0.49203666  0.37047325  0.48931466  1
  O  O339  1  0.49418727  0.38256005  0.99374725  1
  O  O340  1  0.49457345  0.88025695  0.49517065  1
  O  O341  1  0.49051843  0.87310685  0.99227019  1
  O  O342  1  0.99540929  0.37952509  0.49616595  1
  O  O343  1  0.99171382  0.37032689  1.00559758  1
  O  O344  1  0.99967578  0.88121501  0.49309502  1
  O  O345  1  0.99483897  0.88291469  0.99336287  1
  O  O346  1  0.49940259  0.48525152  0.37044211  1
  O  O347  1  0.49435841  0.49508824  0.87930451  1
  O  O348  1  0.49429110  0.99521324  0.38106354  1
  O  O349  1  0.49275486  0.99109876  0.87568090  1
  O  O350  1  0.99603999  0.49398564  0.37992943  1
  O  O351  1  0.99872216  0.50618600  0.87262884  1
  O  O352  1  0.99527424  0.99406899  0.38107840  1
  O  O353  1  1.00455198  0.99257490  0.88628495  1
  O  O354  1  0.00191928  0.00117508  0.11058766  1
  O  O355  1  0.00536208  0.00501229  0.62043825  1
  O  O356  1  0.01806027  0.49536152  0.13401034  1
  O  O357  1  0.00118594  0.50840172  0.61705310  1
  O  O358  1  0.50636758  0.00977866  0.12515899  1
  O  O359  1  0.50055654  0.00589757  0.61882441  1
  O  O360  1  0.51040335  0.50652629  0.11800307  1
  O  O361  1  0.50426204  0.50284537  0.62363056  1
  O  O362  1  0.24643132  0.38098318  0.24518437  1
  O  O363  1  0.24188435  0.37947988  0.74548515  1
  O  O364  1  0.24362387  0.88146257  0.25069022  1
  O  O365  1  0.25008200  0.88231761  0.74490493  1
  O  O366  1  0.73459615  0.37376808  0.25626839  1
  O  O367  1  0.73939281  0.37404957  0.74282349  1
  O  O368  1  0.74439913  0.87797462  0.24584294  1
  O  O369  1  0.75094327  0.88092964  0.74187951  1
  O  O370  1  0.25459564  0.12123408  0.25601436  1
  O  O371  1  0.25476558  0.12097900  0.75626347  1
  O  O372  1  0.24906571  0.61607213  0.25477476  1
  O  O373  1  0.25453323  0.62057001  0.75634538  1
  O  O374  1  0.75477167  0.11587873  0.26008690  1
  O  O375  1  0.76013129  0.11500971  0.74384706  1
  O  O376  1  0.75232549  0.62360184  0.26060704  1
  O  O377  1  0.75753211  0.63122133  0.75678204  1
  O  O378  1  0.37010983  0.11972240  0.36936898  1
  O  O379  1  0.36991430  0.11929023  0.87066939  1
  O  O380  1  0.36616465  0.62203007  0.37264105  1
  O  O381  1  0.36920906  0.61908898  0.86985354  1
  O  O382  1  0.86915052  0.11816508  0.37355880  1
  O  O383  1  0.88189198  0.13346547  0.86076890  1
  O  O384  1  0.86728354  0.61845913  0.37121858  1
  O  O385  1  0.86590757  0.63121650  0.86270696  1
  O  O386  1  0.13643834  0.38295829  0.13238637  1
  O  O387  1  0.13244423  0.37615770  0.63526755  1
  O  O388  1  0.12792328  0.87724997  0.13314570  1
  O  O389  1  0.13203932  0.88253995  0.62670358  1
  O  O390  1  0.62422856  0.37941704  0.12819006  1
  O  O391  1  0.62988948  0.36983492  0.63596766  1
  O  O392  1  0.62956938  0.87958268  0.13034965  1
  O  O393  1  0.63810320  0.87530596  0.62688218  1
  O  O394  1  0.12147801  0.25433854  0.25697129  1
  O  O395  1  0.12174268  0.25745136  0.75840684  1
  O  O396  1  0.11852968  0.75419903  0.25377718  1
  O  O397  1  0.11647375  0.75346023  0.75216351  1
  O  O398  1  0.61565592  0.25580012  0.25437821  1
  O  O399  1  0.61922525  0.25643306  0.76117468  1
  O  O400  1  0.62384251  0.75701124  0.25549336  1
  O  O401  1  0.61016255  0.75317952  0.74674723  1
  O  O402  1  0.38740865  0.24433070  0.25730615  1
  O  O403  1  0.38014596  0.24292908  0.75184163  1
  O  O404  1  0.37914375  0.74676414  0.24499288  1
  O  O405  1  0.38089010  0.74518605  0.74478255  1
  O  O406  1  0.88107757  0.24225152  0.24944311  1
  O  O407  1  0.87936604  0.24150017  0.74255092  1
  O  O408  1  0.88346350  0.74916245  0.23998861  1
  O  O409  1  0.88052546  0.74251700  0.74280923  1
  O  O410  1  0.37513497  0.48550257  0.49674746  1
  O  O411  1  0.38048431  0.50014624  0.99253071  1
  O  O412  1  0.37977685  0.99489816  0.49458444  1
  O  O413  1  0.37585116  0.99118081  0.99340659  1
  O  O414  1  0.88118471  0.49355574  0.49384994  1
  O  O415  1  0.88848486  0.50008176  0.99268385  1
  O  O416  1  0.88250364  0.99925699  0.49472682  1
  O  O417  1  0.88280380  0.99755741  1.00053612  1
  O  O418  1  0.11848283  0.01073264  -0.00062368  1
  O  O419  1  0.12055733  0.00622170  0.50577452  1
  O  O420  1  0.12385079  0.50907712  0.00851432  1
  O  O421  1  0.11866978  0.50670834  0.50090974  1
  O  O422  1  0.62081199  0.00311153  0.01000940  1
  O  O423  1  0.61773532  0.00725883  0.50204242  1
  O  O424  1  0.61912134  0.50872053  0.00409674  1
  O  O425  1  0.62031647  0.49990527  0.50122358  1
  O  O426  1  0.36079078  0.38181056  0.12392433  1
  O  O427  1  0.36966021  0.37184986  0.61543091  1
  O  O428  1  0.37522181  0.87608268  0.11179280  1
  O  O429  1  0.36851401  0.87067375  0.61909551  1
  O  O430  1  0.87335389  0.35531511  0.13615621  1
  O  O431  1  0.87013092  0.36889400  0.62024840  1
  O  O432  1  0.86758936  0.86670348  0.11771549  1
  O  O433  1  0.86467797  0.86924812  0.62377652  1
  O  O434  1  0.13153890  0.13011848  0.38226226  1
  O  O435  1  0.13094382  0.13353951  0.88405277  1
  O  O436  1  0.13073730  0.63103313  0.38128014  1
  O  O437  1  0.13452412  0.62937259  0.88584840  1
  O  O438  1  0.62980600  0.12960076  0.38055351  1
  O  O439  1  0.61552301  0.14212743  0.88075505  1
  O  O440  1  0.63541531  0.63030024  0.37305185  1
  O  O441  1  0.63217409  0.62090879  0.88581049  1
