# generated using pymatgen
data_V93Zn93O256
_symmetry_space_group_name_H-M   'P 1'
_cell_length_a   17.05440288
_cell_length_b   17.05359946
_cell_length_c   17.05009295
_cell_angle_alpha   90.05181573
_cell_angle_beta   89.96412476
_cell_angle_gamma   90.01992484
_symmetry_Int_Tables_number   1
_chemical_formula_structural   V93Zn93O256
_chemical_formula_sum   'V93 Zn93 O256'
_cell_volume   4958.82793018
_cell_formula_units_Z   1
loop_
 _symmetry_equiv_pos_site_id
 _symmetry_equiv_pos_as_xyz
  1  'x, y, z'
loop_
 _atom_site_type_symbol
 _atom_site_label
 _atom_site_symmetry_multiplicity
 _atom_site_fract_x
 _atom_site_fract_y
 _atom_site_fract_z
 _atom_site_occupancy
  V  V0  1  0.87588105  0.50138226  0.87683249  1
  V  V1  1  0.25609159  0.37038631  0.62407916  1
  V  V2  1  0.75042398  0.24905248  -0.00077501  1
  V  V3  1  -0.00007057  0.12962486  0.13250724  1
  V  V4  1  0.25115033  0.24907309  -0.00145147  1
  V  V5  1  0.74449170  0.74678544  0.00253516  1
  V  V6  1  0.12095128  0.74713789  0.37174374  1
  V  V7  1  0.87332202  0.00058626  0.37281327  1
  V  V8  1  0.12424476  0.37320153  0.24960410  1
  V  V9  1  0.88119420  0.74710419  0.13251763  1
  V  V10  1  0.49924536  0.75301090  0.75083056  1
  V  V11  1  0.37272297  0.00040320  0.37250152  1
  V  V12  1  -0.00000456  0.87463518  0.87601885  1
  V  V13  1  0.24831686  0.87339585  0.62324296  1
  V  V14  1  0.12471597  0.49882054  0.62628874  1
  V  V15  1  -0.00076286  0.62488077  0.62692536  1
  V  V16  1  0.74856408  0.75126817  0.50473256  1
  V  V17  1  0.74862382  0.37596554  0.62578017  1
  V  V18  1  0.37893587  -0.00207544  0.87410734  1
  V  V19  1  0.75422874  0.50586473  0.25088677  1
  V  V20  1  0.50091980  0.25127474  0.24849342  1
  V  V21  1  0.74838797  0.25089685  0.49857177  1
  V  V22  1  0.50566234  0.62650700  0.12004323  1
  V  V23  1  0.12308881  -0.00089177  0.62360351  1
  V  V24  1  0.62579038  0.37733523  0.25015860  1
  V  V25  1  0.37604881  0.62535596  0.24920195  1
  V  V26  1  0.87544533  0.87506479  0.00136829  1
  V  V27  1  0.37614019  0.25033420  0.12334329  1
  V  V28  1  0.12438334  0.74940813  0.87619985  1
  V  V29  1  0.12343463  0.12371054  0.49922440  1
  V  V30  1  0.37203088  0.87414705  0.49868190  1
  V  V31  1  0.25162132  0.37452205  0.12383419  1
  V  V32  1  0.25130177  0.49915475  0.24902089  1
  V  V33  1  -0.00196642  0.86865737  0.37195198  1
  V  V34  1  0.50339552  0.12359365  0.12044677  1
  V  V35  1  0.37941701  0.49600532  0.87545138  1
  V  V36  1  0.86910163  0.00111312  0.87433220  1
  V  V37  1  0.62293024  0.62487526  0.50179465  1
  V  V38  1  0.12029025  0.24873222  0.36944764  1
  V  V39  1  0.25475879  0.25044705  0.50158763  1
  V  V40  1  0.12438216  0.87427843  0.74936939  1
  V  V41  1  0.49826127  0.87541463  0.37447995  1
  V  V42  1  0.74896721  0.87830087  0.12783906  1
  V  V43  1  0.12573132  -0.00094967  0.12546402  1
  V  V44  1  -0.00057209  0.74825626  0.75129575  1
  V  V45  1  0.25403561  0.75250125  0.00125201  1
  V  V46  1  0.62370197  0.75055357  0.37710931  1
  V  V47  1  0.62520566  0.50104806  0.62640747  1
  V  V48  1  0.62375570  0.74875753  0.87583899  1
  V  V49  1  0.49805707  0.25205936  0.75467414  1
  V  V50  1  0.49698752  0.13220920  0.62162629  1
  V  V51  1  0.62699834  0.50383528  0.12143765  1
  V  V52  1  0.87542384  0.37589350  0.50139025  1
  V  V53  1  0.62081653  0.37384491  0.75639658  1
  V  V54  1  0.00027720  0.37356031  0.37216053  1
  V  V55  1  0.75287223  0.37661982  0.12581219  1
  V  V56  1  0.24868506  0.12482732  0.87326578  1
  V  V57  1  0.49945503  0.62420742  0.62539703  1
  V  V58  1  0.37459094  0.12496410  0.24868679  1
  V  V59  1  0.62481244  0.87671933  0.25056143  1
  V  V60  1  0.50031481  0.00174832  0.50152691  1
  V  V61  1  0.25112479  0.49798390  0.75018391  1
  V  V62  1  0.00096494  0.37548861  0.87520490  1
  V  V63  1  0.25040222  0.62361295  0.87457214  1
  V  V64  1  0.49916737  0.74953742  0.24979254  1
  V  V65  1  0.24848821  0.12428233  0.37274722  1
  V  V66  1  0.87983838  0.25151458  0.13272535  1
  V  V67  1  0.74885658  0.62560608  0.37600793  1
  V  V68  1  0.37923725  0.37504756  -0.00418448  1
  V  V69  1  0.24946950  0.62328418  0.37493595  1
  V  V70  1  0.12476767  0.37323110  0.75035005  1
  V  V71  1  0.62485125  0.25076635  0.37510279  1
  V  V72  1  0.87074002  0.87615426  0.50478062  1
  V  V73  1  0.12567186  0.12484535  -0.00072738  1
  V  V74  1  0.24865754  0.74882152  0.49978011  1
  V  V75  1  0.24997650  -0.00046110  0.74803113  1
  V  V76  1  0.86976717  0.75335160  0.62845018  1
  V  V77  1  0.12505860  0.62369508  0.50047185  1
  V  V78  1  0.86984262  0.12604592  0.75014943  1
  V  V79  1  0.50453564  0.49836205  -0.00334897  1
  V  V80  1  0.00000759  0.25009139  0.75099313  1
  V  V81  1  0.37493991  0.62338477  0.74919660  1
  V  V82  1  0.00077872  0.12522110  0.62596370  1
  V  V83  1  0.12639835  0.49919426  0.12412608  1
  V  V84  1  0.37344837  0.13038156  0.74200392  1
  V  V85  1  0.12621768  0.62385115  0.00136879  1
  V  V86  1  -0.00008637  0.49808639  0.50243539  1
  V  V87  1  0.00264904  0.50070694  0.00204453  1
  V  V88  1  0.00058010  0.00127631  -0.00019362  1
  V  V89  1  0.74731788  0.62391589  0.88015218  1
  V  V90  1  0.37534651  0.49748303  0.37534620  1
  V  V91  1  0.49810974  0.37611628  0.37460602  1
  V  V92  1  0.12298327  0.87016986  0.24895244  1
  Zn  Zn93  1  0.88818945  0.63614681  0.26281173  1
  Zn  Zn94  1  0.87495840  0.25055363  0.62515978  1
  Zn  Zn95  1  0.74844662  0.49941980  0.75310795  1
  Zn  Zn96  1  0.37334006  0.74895706  0.62513949  1
  Zn  Zn97  1  0.37718777  0.75259070  0.12374554  1
  Zn  Zn98  1  0.63639854  0.87436865  0.74084020  1
  Zn  Zn99  1  -0.00127638  0.00006995  0.49975991  1
  Zn  Zn100  1  0.37854440  0.37188156  0.50310367  1
  Zn  Zn101  1  0.74824210  0.12570120  0.37166743  1
  Zn  Zn102  1  0.75518767  -0.01705979  0.72786224  1
  Zn  Zn103  1  0.62643083  0.12455357  0.49957445  1
  Zn  Zn104  1  0.87496979  0.12863251  0.25340449  1
  Zn  Zn105  1  0.87802423  0.37456407  0.00196423  1
  Zn  Zn106  1  0.62253963  0.25086457  0.87818707  1
  Zn  Zn107  1  0.62985127  -0.00291659  0.62648194  1
  Zn  Zn108  1  0.74589970  0.12550906  0.87310507  1
  Zn  Zn109  1  0.62669863  0.12190007  -0.00470290  1
  Zn  Zn110  1  0.25365490  0.87655228  0.12573566  1
  Zn  Zn111  1  0.74764541  0.00424154  0.25188146  1
  Zn  Zn112  1  0.25015598  -0.00109396  0.24693884  1
  Zn  Zn113  1  0.37913688  0.87670328  0.00188920  1
  Zn  Zn114  1  0.49846309  0.49792832  0.50035018  1
  Zn  Zn115  1  0.12405453  0.24938837  0.87608125  1
  Zn  Zn116  1  0.50535324  -0.00271282  -0.00247725  1
  Zn  Zn117  1  0.50374692  0.87786033  0.87511752  1
  Zn  Zn118  1  0.87654671  0.50342148  0.37693297  1
  Zn  Zn119  1  0.62494663  0.00177361  0.12372050  1
  Zn  Zn120  1  0.87346030  0.62453413  0.75079788  1
  Zn  Zn121  1  0.00634377  0.62862229  0.13356029  1
  Zn  Zn122  1  0.18780089  0.18652388  0.18627000  1
  Zn  Zn123  1  0.18577764  0.18822507  0.68646870  1
  Zn  Zn124  1  0.18875432  0.68815100  0.18721475  1
  Zn  Zn125  1  0.18710490  0.68691645  0.68787996  1
  Zn  Zn126  1  0.69055078  0.18775637  0.18801604  1
  Zn  Zn127  1  0.68200824  0.18593959  0.68343386  1
  Zn  Zn128  1  0.68724032  0.68951233  0.18895492  1
  Zn  Zn129  1  0.68775938  0.68636194  0.69247732  1
  Zn  Zn130  1  0.31163225  0.31080466  0.31237524  1
  Zn  Zn131  1  0.31347798  0.31180881  0.81336583  1
  Zn  Zn132  1  0.30939906  0.81133560  0.31127081  1
  Zn  Zn133  1  0.31280482  0.81251234  0.81253482  1
  Zn  Zn134  1  0.81286106  0.31683690  0.31332984  1
  Zn  Zn135  1  0.81233461  0.31448511  0.81232285  1
  Zn  Zn136  1  0.80933743  0.81432911  0.31532675  1
  Zn  Zn137  1  0.81231972  0.81195645  0.81483228  1
  Zn  Zn138  1  0.18747306  0.43660461  0.43828230  1
  Zn  Zn139  1  0.18970418  0.43584549  0.93666623  1
  Zn  Zn140  1  0.18561838  0.93725191  0.43557996  1
  Zn  Zn141  1  0.18952647  0.93783966  0.93654333  1
  Zn  Zn142  1  0.68576405  0.43869012  0.43775319  1
  Zn  Zn143  1  0.68869358  0.43470769  0.94005935  1
  Zn  Zn144  1  0.68826336  0.93716302  0.44104408  1
  Zn  Zn145  1  0.68405054  0.93428747  0.93834195  1
  Zn  Zn146  1  0.31336028  0.06142570  0.06106570  1
  Zn  Zn147  1  0.31091860  0.06149912  0.56006165  1
  Zn  Zn148  1  0.31672552  0.56405034  0.06205064  1
  Zn  Zn149  1  0.31380332  0.55903034  0.56193313  1
  Zn  Zn150  1  0.81533131  0.06561407  0.06215215  1
  Zn  Zn151  1  0.81383826  0.06607755  0.55994499  1
  Zn  Zn152  1  0.81495444  0.56428470  0.06246240  1
  Zn  Zn153  1  0.81174284  0.56354338  0.56357488  1
  Zn  Zn154  1  0.43854040  0.43887909  0.18527922  1
  Zn  Zn155  1  0.43961020  0.43744004  0.68789141  1
  Zn  Zn156  1  0.43642952  0.93740400  0.18527581  1
  Zn  Zn157  1  0.43880512  0.93758778  0.68453444  1
  Zn  Zn158  1  0.93889237  0.44008260  0.18904841  1
  Zn  Zn159  1  0.93508477  0.43648257  0.68966174  1
  Zn  Zn160  1  0.93896146  0.93760494  0.18858656  1
  Zn  Zn161  1  0.93738629  0.93812392  0.68905505  1
  Zn  Zn162  1  0.06087850  0.05624718  0.31229321  1
  Zn  Zn163  1  0.06027194  0.06215914  0.81193894  1
  Zn  Zn164  1  0.06215712  0.55944378  0.31175901  1
  Zn  Zn165  1  0.06322612  0.56192571  0.81310757  1
  Zn  Zn166  1  0.56305590  0.06357156  0.31148676  1
  Zn  Zn167  1  0.56917878  0.06397416  0.80931659  1
  Zn  Zn168  1  0.56275377  0.56230144  0.31123422  1
  Zn  Zn169  1  0.56423462  0.56536567  0.81283969  1
  Zn  Zn170  1  0.43673675  0.18766876  0.43376333  1
  Zn  Zn171  1  0.43594917  0.18436322  0.93443833  1
  Zn  Zn172  1  0.43627122  0.68622945  0.43791449  1
  Zn  Zn173  1  0.43776675  0.68296723  0.93616279  1
  Zn  Zn174  1  0.93670465  0.18768829  0.43914289  1
  Zn  Zn175  1  0.93615468  0.18874954  0.94011281  1
  Zn  Zn176  1  0.93639667  0.68759206  0.44222841  1
  Zn  Zn177  1  0.93647781  0.68609560  0.94402976  1
  Zn  Zn178  1  0.06306653  0.31226515  0.06087636  1
  Zn  Zn179  1  0.06548918  0.31015962  0.56203458  1
  Zn  Zn180  1  0.06435620  0.81331525  0.06173631  1
  Zn  Zn181  1  0.05841301  0.81110116  0.56021867  1
  Zn  Zn182  1  0.56522797  0.31511072  0.06265083  1
  Zn  Zn183  1  0.56221857  0.31392719  0.56493096  1
  Zn  Zn184  1  0.56162129  0.81550061  0.06070001  1
  Zn  Zn185  1  0.56022023  0.81275577  0.56440125  1
  O  O186  1  0.11828524  0.12072985  0.11951127  1
  O  O187  1  0.12066876  0.11821395  0.61980248  1
  O  O188  1  0.12768926  0.61686158  0.11881367  1
  O  O189  1  0.11971180  0.61861676  0.62065547  1
  O  O190  1  0.61327188  0.12661678  0.12495587  1
  O  O191  1  0.60929549  0.12136832  0.61885661  1
  O  O192  1  0.61413383  0.61962650  0.13106106  1
  O  O193  1  0.61999814  0.62080997  0.62159278  1
  O  O194  1  0.38053087  0.38054156  0.37304993  1
  O  O195  1  0.36991650  0.38378984  0.88257819  1
  O  O196  1  0.37851230  0.87983528  0.37868914  1
  O  O197  1  0.37431659  0.88832120  0.87282992  1
  O  O198  1  0.88589166  0.37751319  0.38113129  1
  O  O199  1  0.88134295  0.38660918  0.87693879  1
  O  O200  1  0.88087548  0.87831917  0.38252473  1
  O  O201  1  0.88160160  0.88167298  0.88174413  1
  O  O202  1  0.25497956  0.00740278  0.37433016  1
  O  O203  1  0.25618493  0.00539283  0.86661234  1
  O  O204  1  0.25359125  0.50396200  0.36864807  1
  O  O205  1  0.25649192  0.50467348  0.86891600  1
  O  O206  1  0.76134786  0.00085278  0.37691390  1
  O  O207  1  0.76624887  -0.00011355  0.88191996  1
  O  O208  1  0.74928674  0.50626373  0.36598342  1
  O  O209  1  0.75820659  0.50796286  0.88042984  1
  O  O210  1  0.24707020  0.49390372  0.12895723  1
  O  O211  1  0.24348099  0.49158984  0.63041032  1
  O  O212  1  0.24084699  0.99848278  0.12506923  1
  O  O213  1  0.24286545  0.99339890  0.62870436  1
  O  O214  1  0.74744509  0.49856157  0.13148578  1
  O  O215  1  0.74350146  0.49506293  0.62862607  1
  O  O216  1  0.75450667  0.98592714  0.12503758  1
  O  O217  1  0.74421374  1.00474440  0.61708764  1
  O  O218  1  0.00738890  0.38355886  0.26442684  1
  O  O219  1  0.00549243  0.37039261  0.75519282  1
  O  O220  1  0.01001250  0.87827009  0.26100354  1
  O  O221  1  0.00538202  0.86851372  0.75635761  1
  O  O222  1  0.50585330  0.37056847  0.25265151  1
  O  O223  1  0.50836270  0.36319497  0.74070641  1
  O  O224  1  0.50468276  0.86937268  0.25531112  1
  O  O225  1  0.49240329  0.85917826  0.75404466  1
  O  O226  1  0.49421482  0.13226704  0.24196058  1
  O  O227  1  0.49146353  0.13174705  0.73966255  1
  O  O228  1  0.49567131  0.62975656  0.24212138  1
  O  O229  1  0.49435064  0.63228897  0.74511626  1
  O  O230  1  0.99970987  0.11959284  0.23548642  1
  O  O231  1  0.99157970  0.12993345  0.74596210  1
  O  O232  1  0.99767224  0.61940564  0.24562519  1
  O  O233  1  0.99974450  0.63105218  0.74497710  1
  O  O234  1  0.37087166  0.25473829  0.00347766  1
  O  O235  1  0.35788511  0.25118163  0.49143036  1
  O  O236  1  0.36345681  0.74912550  -0.00373417  1
  O  O237  1  0.36632440  0.75580584  0.49994937  1
  O  O238  1  0.86833327  0.25262887  0.01187892  1
  O  O239  1  0.86532403  0.25756435  0.50085813  1
  O  O240  1  0.86504820  0.75598146  0.00931630  1
  O  O241  1  0.86992825  0.75673345  0.50999877  1
  O  O242  1  0.13323667  0.24428875  0.48881708  1
  O  O243  1  0.13348156  0.24302037  0.99869580  1
  O  O244  1  0.12904906  0.74282690  0.49405240  1
  O  O245  1  0.13277696  0.74426683  0.99505637  1
  O  O246  1  0.63379974  0.25278371  0.49370070  1
  O  O247  1  0.63775189  0.25233511  1.00013018  1
  O  O248  1  0.62858735  0.74514988  0.49624205  1
  O  O249  1  0.63746923  0.75436857  0.99260207  1
  O  O250  1  0.49517690  0.24472201  0.12954957  1
  O  O251  1  0.50026095  0.23908907  0.63159999  1
  O  O252  1  0.50187386  0.74123845  0.13032394  1
  O  O253  1  0.49552635  0.74190403  0.63504009  1
  O  O254  1  0.99212656  0.24115869  0.11828077  1
  O  O255  1  1.00063145  0.24347644  0.63214587  1
  O  O256  1  0.98334315  0.75213306  0.11850564  1
  O  O257  1  0.99199400  0.74406319  0.63064023  1
  O  O258  1  0.01060474  0.26070103  0.38255555  1
  O  O259  1  0.00051435  0.25732329  0.87023865  1
  O  O260  1  0.00458852  0.76040237  0.38188660  1
  O  O261  1  0.00455376  0.75449290  0.87294951  1
  O  O262  1  0.50420176  0.25607847  0.36743304  1
  O  O263  1  0.50070610  0.24367618  0.85879764  1
  O  O264  1  0.50442182  0.75538742  0.37049538  1
  O  O265  1  0.50881906  0.74362408  0.86778183  1
  O  O266  1  0.24349955  0.13154096  0.49407065  1
  O  O267  1  0.24525196  0.13008782  0.99379143  1
  O  O268  1  0.24406464  0.62801637  0.49508727  1
  O  O269  1  0.24637596  0.63107718  0.99360982  1
  O  O270  1  0.74953869  0.14095361  0.49485598  1
  O  O271  1  0.75043919  0.13765141  1.00107375  1
  O  O272  1  0.74243446  0.63101032  0.49561337  1
  O  O273  1  0.75529244  0.63581076  0.99226211  1
  O  O274  1  0.25727744  0.36939801  0.00535236  1
  O  O275  1  0.24837833  0.36698022  0.50761144  1
  O  O276  1  0.25024887  0.86280976  -0.00060353  1
  O  O277  1  0.25214568  0.86863922  0.50318990  1
  O  O278  1  0.75439051  0.36819133  0.00896213  1
  O  O279  1  0.75445931  0.36984725  0.50483019  1
  O  O280  1  0.75559145  0.86606748  0.00901951  1
  O  O281  1  0.76366514  0.86636507  0.49426736  1
  O  O282  1  0.13382346  0.49245295  0.24413252  1
  O  O283  1  0.13141379  0.49364074  0.74564405  1
  O  O284  1  0.12654884  0.98912986  0.24421056  1
  O  O285  1  0.12962033  0.99366874  0.74446815  1
  O  O286  1  0.63532724  0.49694964  0.24366306  1
  O  O287  1  0.62441422  0.49161684  0.74545544  1
  O  O288  1  0.62635945  0.99127380  0.24654010  1
  O  O289  1  0.63445875  0.99623237  0.74852945  1
  O  O290  1  0.37338001  0.00687844  0.25605768  1
  O  O291  1  0.36916151  0.00842022  0.75384713  1
  O  O292  1  0.36951380  0.50507341  0.25433089  1
  O  O293  1  0.37057100  0.50355681  0.75565474  1
  O  O294  1  0.87309346  -0.00309560  0.26295217  1
  O  O295  1  0.87472349  0.00840507  0.75826505  1
  O  O296  1  0.86150916  0.50299470  0.25179935  1
  O  O297  1  0.87320190  0.50200759  0.76466729  1
  O  O298  1  0.11936892  0.36737123  0.37132093  1
  O  O299  1  0.11959782  0.37447422  0.86765743  1
  O  O300  1  0.11656177  0.86906046  0.36952512  1
  O  O301  1  0.11962513  0.86981277  0.86919721  1
  O  O302  1  0.61852366  0.37144328  0.36871535  1
  O  O303  1  0.63001663  0.37362166  0.85999088  1
  O  O304  1  0.61827323  0.86950878  0.37166761  1
  O  O305  1  0.62500181  0.85837064  0.87097377  1
  O  O306  1  0.38209525  0.13137375  0.12867362  1
  O  O307  1  0.37939974  0.11982842  0.63468938  1
  O  O308  1  0.38658565  0.62670079  0.13191431  1
  O  O309  1  0.37977042  0.62431507  0.63171344  1
  O  O310  1  0.88483857  0.13312208  0.12659942  1
  O  O311  1  0.88295270  0.12779247  0.63424219  1
  O  O312  1  0.87363722  0.64184131  0.12568579  1
  O  O313  1  0.88176492  0.63429609  0.62654658  1
  O  O314  1  0.25659341  0.25455652  0.11883124  1
  O  O315  1  0.24018157  0.25914418  0.61322332  1
  O  O316  1  0.25227247  0.74968450  0.11211580  1
  O  O317  1  0.24931622  0.75539391  0.61815155  1
  O  O318  1  0.75893872  0.25679589  0.11935103  1
  O  O319  1  0.74820490  0.25686116  0.61339659  1
  O  O320  1  0.75600363  0.75789871  0.11953183  1
  O  O321  1  0.76308538  0.74086504  0.62119949  1
  O  O322  1  0.23944126  0.24508658  0.38124854  1
  O  O323  1  0.24892520  0.24220089  0.88110288  1
  O  O324  1  0.24245929  0.74203358  0.38072192  1
  O  O325  1  0.24361824  0.74386928  0.88079768  1
  O  O326  1  0.74380982  0.25521374  0.38362982  1
  O  O327  1  0.75427175  0.25121618  0.88919476  1
  O  O328  1  0.74258438  0.74532335  0.38265643  1
  O  O329  1  0.74556846  0.74262086  0.88425913  1
  O  O330  1  0.00591874  0.11988830  0.00789675  1
  O  O331  1  0.00670595  0.12440986  0.50751180  1
  O  O332  1  0.00880481  0.61895721  0.00579866  1
  O  O333  1  0.00622709  0.61886118  0.50700413  1
  O  O334  1  0.50055728  0.12655804  0.01084866  1
  O  O335  1  0.49435860  0.11830641  0.50558770  1
  O  O336  1  0.49453577  0.61508407  0.01227411  1
  O  O337  1  0.50593412  0.62466012  0.50720100  1
  O  O338  1  0.49681128  0.37557999  0.49234737  1
  O  O339  1  0.49286352  0.38797734  1.00814004  1
  O  O340  1  0.49115572  0.88253096  0.49322992  1
  O  O341  1  0.49646707  0.87799814  0.99270658  1
  O  O342  1  0.99686342  0.37879082  0.49390876  1
  O  O343  1  1.00082152  0.38276320  0.99283536  1
  O  O344  1  0.98884763  0.87568341  0.49092363  1
  O  O345  1  0.99591681  0.88114491  0.99492179  1
  O  O346  1  0.49369253  0.49362812  0.37404458  1
  O  O347  1  0.49476647  0.51151809  0.88820373  1
  O  O348  1  0.49196346  0.99581703  0.38122438  1
  O  O349  1  0.48878695  1.00178383  0.87103462  1
  O  O350  1  1.00175882  0.48922884  0.38509353  1
  O  O351  1  0.99384940  0.49705091  0.88110718  1
  O  O352  1  0.99177296  0.98770096  0.37792346  1
  O  O353  1  0.99103114  0.99442378  0.87938312  1
  O  O354  1  0.00435275  0.00770381  0.11843635  1
  O  O355  1  0.00638565  0.00632696  0.62423289  1
  O  O356  1  0.00956651  0.49804739  0.11804812  1
  O  O357  1  0.00499881  0.50420213  0.62220266  1
  O  O358  1  0.49915859  0.01351462  0.12361678  1
  O  O359  1  0.49349689  0.01108966  0.61236771  1
  O  O360  1  0.50594667  0.50800450  0.11852925  1
  O  O361  1  0.50684979  0.50709257  0.62411416  1
  O  O362  1  0.24531066  0.37937549  0.24316213  1
  O  O363  1  0.24542920  0.37765978  0.74268680  1
  O  O364  1  0.23722184  0.87772890  0.24958536  1
  O  O365  1  0.24315256  0.87881307  0.74360779  1
  O  O366  1  0.74567912  0.38661625  0.24619623  1
  O  O367  1  0.74062230  0.37547388  0.74316173  1
  O  O368  1  0.74322627  0.87536705  0.24217982  1
  O  O369  1  0.75076945  0.87215792  0.74886868  1
  O  O370  1  0.25669966  0.12427210  0.25555790  1
  O  O371  1  0.25554298  0.12026021  0.75138558  1
  O  O372  1  0.25527059  0.61898971  0.25561519  1
  O  O373  1  0.25381890  0.61776912  0.75450161  1
  O  O374  1  0.75582825  0.12151696  0.25364504  1
  O  O375  1  0.76468989  0.13164047  0.74985143  1
  O  O376  1  0.74983982  0.61840371  0.25706380  1
  O  O377  1  0.75336343  0.62240364  0.76603140  1
  O  O378  1  0.36881036  0.12038150  0.36764902  1
  O  O379  1  0.36841763  0.11684304  0.86307822  1
  O  O380  1  0.36901955  0.61830079  0.36922672  1
  O  O381  1  0.36845718  0.61635664  0.86854884  1
  O  O382  1  0.87822070  0.11352697  0.37391753  1
  O  O383  1  0.87628921  0.11645808  0.86720856  1
  O  O384  1  0.86597510  0.62384092  0.37785797  1
  O  O385  1  0.86826360  0.61730969  0.87688287  1
  O  O386  1  0.13208911  0.37850833  0.12951253  1
  O  O387  1  0.13286657  0.38027858  0.63060826  1
  O  O388  1  0.12359147  0.87975639  0.13421130  1
  O  O389  1  0.12765942  0.87833999  0.62938345  1
  O  O390  1  0.63309228  0.38319943  0.13235581  1
  O  O391  1  0.62995452  0.38171778  0.63321753  1
  O  O392  1  0.63538074  0.87355736  0.13152498  1
  O  O393  1  0.60916651  0.88396990  0.63013767  1
  O  O394  1  0.13131158  0.25592178  0.26232589  1
  O  O395  1  0.11829566  0.25547082  0.75325280  1
  O  O396  1  0.13032297  0.76002105  0.25675868  1
  O  O397  1  0.11980451  0.75455121  0.75651139  1
  O  O398  1  0.62081667  0.25835264  0.25464915  1
  O  O399  1  0.61614898  0.25772348  0.74888703  1
  O  O400  1  0.61883326  0.75625181  0.25769218  1
  O  O401  1  0.61389638  0.74800209  0.75800620  1
  O  O402  1  0.38060628  0.24529491  0.24322488  1
  O  O403  1  0.38073228  0.23817707  0.75380469  1
  O  O404  1  0.38160054  0.74252098  0.25064736  1
  O  O405  1  0.38139295  0.74093569  0.75086612  1
  O  O406  1  0.87107317  0.25127763  0.23675775  1
  O  O407  1  0.88205994  0.24268477  0.74942155  1
  O  O408  1  0.86848820  0.75276408  0.23582499  1
  O  O409  1  0.88245472  0.74851677  0.74325035  1
  O  O410  1  0.37642634  0.49528149  0.49018445  1
  O  O411  1  0.38332051  0.49486379  0.99536994  1
  O  O412  1  0.38056521  0.99466414  0.49239099  1
  O  O413  1  0.37615057  1.00180836  0.98473720  1
  O  O414  1  0.88184301  0.49351242  0.50014255  1
  O  O415  1  0.88267583  0.50007226  0.99209925  1
  O  O416  1  0.87710563  0.99098048  0.49160488  1
  O  O417  1  0.88180584  0.99556808  0.99356415  1
  O  O418  1  0.11999408  0.00468576  0.00457997  1
  O  O419  1  0.12287956  0.00598438  0.50541352  1
  O  O420  1  0.12316166  0.50446507  0.00476042  1
  O  O421  1  0.12023728  0.50439680  0.50679546  1
  O  O422  1  0.62351603  0.00342952  0.00520835  1
  O  O423  1  0.60742685  0.00222527  0.49360164  1
  O  O424  1  0.61498799  0.49305795  0.00731763  1
  O  O425  1  0.62301274  0.50746869  0.50754865  1
  O  O426  1  0.37007104  0.36971354  0.11861236  1
  O  O427  1  0.35922906  0.38010705  0.62447600  1
  O  O428  1  0.37155935  0.87015642  0.12080321  1
  O  O429  1  0.36565560  0.87391452  0.61690233  1
  O  O430  1  0.87177123  0.36890085  0.12522205  1
  O  O431  1  0.86746270  0.37297277  0.62001500  1
  O  O432  1  0.86836822  0.86621320  0.12197929  1
  O  O433  1  0.88457772  0.86432531  0.61552470  1
  O  O434  1  0.12666068  0.13103091  0.37755197  1
  O  O435  1  0.13082354  0.12398652  0.88081445  1
  O  O436  1  0.13041786  0.62705424  0.38124071  1
  O  O437  1  0.13094908  0.62955451  0.88085815  1
  O  O438  1  0.62490397  0.13573265  0.37820791  1
  O  O439  1  0.63047763  0.13280476  0.87727147  1
  O  O440  1  0.62833689  0.63131398  0.38101368  1
  O  O441  1  0.63654955  0.63608374  0.87280821  1
