# generated using pymatgen
data_V93Zn93O256
_symmetry_space_group_name_H-M   'P 1'
_cell_length_a   17.05260680
_cell_length_b   17.05175801
_cell_length_c   17.04837354
_cell_angle_alpha   90.03904977
_cell_angle_beta   90.11321599
_cell_angle_gamma   89.99238416
_symmetry_Int_Tables_number   1
_chemical_formula_structural   V93Zn93O256
_chemical_formula_sum   'V93 Zn93 O256'
_cell_volume   4957.26275471
_cell_formula_units_Z   1
loop_
 _symmetry_equiv_pos_site_id
 _symmetry_equiv_pos_as_xyz
  1  'x, y, z'
loop_
 _atom_site_type_symbol
 _atom_site_label
 _atom_site_symmetry_multiplicity
 _atom_site_fract_x
 _atom_site_fract_y
 _atom_site_fract_z
 _atom_site_occupancy
  V  V0  1  0.49903592  0.87847413  0.37659462  1
  V  V1  1  0.24934982  0.87372139  0.12403158  1
  V  V2  1  -0.00001736  0.49830002  -0.00091719  1
  V  V3  1  0.12493841  0.25035164  0.37527757  1
  V  V4  1  0.62782386  0.74910490  0.37588195  1
  V  V5  1  0.49958267  0.37552948  0.37388733  1
  V  V6  1  0.37330292  0.75110264  0.62215568  1
  V  V7  1  0.74482172  0.50100806  0.24601650  1
  V  V8  1  0.49892598  0.37473962  0.87597040  1
  V  V9  1  -0.00013835  0.37543369  0.37616197  1
  V  V10  1  0.13195788  0.50106440  0.63172619  1
  V  V11  1  0.50131722  0.74915783  0.24779364  1
  V  V12  1  0.87004152  0.87043623  0.00021841  1
  V  V13  1  -0.00102263  0.62855316  0.63266566  1
  V  V14  1  0.74985094  0.24915417  0.00146025  1
  V  V15  1  0.74925888  0.50079340  0.75140645  1
  V  V16  1  0.87897205  0.75164544  0.63395360  1
  V  V17  1  0.12430841  0.86768010  0.25367329  1
  V  V18  1  0.24873401  0.24828216  -0.00101691  1
  V  V19  1  0.50095962  0.49861369  0.00259730  1
  V  V20  1  0.00052990  0.12358665  0.12576200  1
  V  V21  1  0.50008773  0.25009367  0.24961136  1
  V  V22  1  0.87441535  0.62529290  0.25182314  1
  V  V23  1  0.37336898  0.37630016  0.50145195  1
  V  V24  1  0.37450689  -0.00133227  0.87414102  1
  V  V25  1  0.62745107  0.74918359  0.87928349  1
  V  V26  1  0.62510795  0.12549242  0.50115541  1
  V  V27  1  0.87351467  0.87484095  0.50244883  1
  V  V28  1  0.49983905  0.87320779  0.87518789  1
  V  V29  1  -0.00115684  0.62407749  0.12422321  1
  V  V30  1  0.37026495  0.49837742  0.87141032  1
  V  V31  1  0.62531407  0.87441685  0.75125474  1
  V  V32  1  0.87544382  0.00052854  0.37642229  1
  V  V33  1  0.62833109  0.87480350  0.24823436  1
  V  V34  1  0.37598316  0.74831955  0.12233541  1
  V  V35  1  0.62569040  0.62570101  0.50013506  1
  V  V36  1  0.00189471  0.50220947  0.50145965  1
  V  V37  1  0.37257893  0.50380804  0.37423037  1
  V  V38  1  0.87028750  0.74974633  0.12183611  1
  V  V39  1  0.87456104  0.37434887  0.00059125  1
  V  V40  1  0.87469226  0.50020879  0.87465851  1
  V  V41  1  0.87919508  0.13221212  0.75141583  1
  V  V42  1  -0.00006361  0.36981832  0.86707838  1
  V  V43  1  0.24903904  0.12332372  0.87393048  1
  V  V44  1  0.24974109  0.49983784  0.24952824  1
  V  V45  1  0.24937961  0.62051372  0.87081817  1
  V  V46  1  0.24882047  0.74809416  -0.00153383  1
  V  V47  1  0.12410685  0.37404322  0.24888803  1
  V  V48  1  0.87426803  0.37552276  0.50204581  1
  V  V49  1  0.75019896  0.62760480  0.87994154  1
  V  V50  1  0.74654927  0.37655605  0.12548211  1
  V  V51  1  0.75091425  0.12614110  0.37594460  1
  V  V52  1  0.62483692  0.37762981  0.24667230  1
  V  V53  1  0.87499182  0.24941890  0.12607878  1
  V  V54  1  0.50033658  0.62683454  0.62516818  1
  V  V55  1  0.00059153  0.13302029  0.62980499  1
  V  V56  1  0.62642118  0.50189780  0.62512674  1
  V  V57  1  0.62534575  0.25122290  0.37539693  1
  V  V58  1  0.36928383  0.61895947  0.74728119  1
  V  V59  1  0.75102245  0.25233902  0.50191003  1
  V  V60  1  0.12514005  0.62366191  -0.00108084  1
  V  V61  1  0.75113395  0.12488354  0.87580168  1
  V  V62  1  0.24926195  0.87518158  0.62412918  1
  V  V63  1  0.87548437  0.12493139  0.25165980  1
  V  V64  1  -0.00040280  0.25027435  0.25038719  1
  V  V65  1  0.75206715  0.00045651  0.75104824  1
  V  V66  1  0.62507348  0.25000460  0.87536147  1
  V  V67  1  0.11973689  0.24762841  0.86811051  1
  V  V68  1  0.24996094  0.12502169  0.37532690  1
  V  V69  1  -0.00093050  0.87246284  0.87349768  1
  V  V70  1  0.49807779  0.24737219  0.74800810  1
  V  V71  1  0.37494934  0.37424852  -0.00055937  1
  V  V72  1  0.12149754  0.87359937  0.74873884  1
  V  V73  1  0.37441666  0.12442004  0.25046799  1
  V  V74  1  0.12338394  -0.00104631  0.12281745  1
  V  V75  1  0.50097360  0.12313802  0.12429344  1
  V  V76  1  0.50274172  0.62079347  0.12308053  1
  V  V77  1  0.37490070  0.87237912  -0.00215453  1
  V  V78  1  0.75057658  -0.00146903  0.24868293  1
  V  V79  1  0.37545677  0.62428854  0.24852499  1
  V  V80  1  0.00048426  0.00271187  0.50209493  1
  V  V81  1  0.62479062  0.12324168  0.00166290  1
  V  V82  1  0.24907610  0.37321650  0.12403461  1
  V  V83  1  0.00408493  0.86869266  0.37576816  1
  V  V84  1  0.37398893  0.24861006  0.12470792  1
  V  V85  1  0.12060193  0.74782594  0.86846077  1
  V  V86  1  0.12457605  0.49808673  0.12329908  1
  V  V87  1  0.62279475  0.00075296  0.62454299  1
  V  V88  1  0.24969193  0.25364481  0.50157457  1
  V  V89  1  0.25069214  0.00038417  0.25032929  1
  V  V90  1  0.62486219  0.37644714  0.74979986  1
  V  V91  1  0.12484352  0.12604207  0.50148601  1
  V  V92  1  0.62522140  0.62035125  0.00270143  1
  Zn  Zn93  1  0.23836249  0.75386804  0.48840163  1
  Zn  Zn94  1  0.37290334  0.24818732  0.62587701  1
  Zn  Zn95  1  0.75035720  0.37574333  0.62643249  1
  Zn  Zn96  1  0.74827487  0.87245284  0.12004814  1
  Zn  Zn97  1  0.50010467  0.74924731  0.74983318  1
  Zn  Zn98  1  0.62599171  -0.00366365  0.12334306  1
  Zn  Zn99  1  0.49714943  0.00267392  0.49980209  1
  Zn  Zn100  1  0.12206424  0.12421100  -0.00050446  1
  Zn  Zn101  1  0.37586574  0.00187309  0.37771299  1
  Zn  Zn102  1  0.37318123  0.87810626  0.49853948  1
  Zn  Zn103  1  0.00466431  0.74367535  0.25527837  1
  Zn  Zn104  1  -0.00218610  -0.00090802  0.00047783  1
  Zn  Zn105  1  0.87694625  0.25478921  0.63124624  1
  Zn  Zn106  1  0.24965135  0.00021494  0.74868357  1
  Zn  Zn107  1  0.37517968  0.12399082  0.74678882  1
  Zn  Zn108  1  0.12031987  0.63756620  0.48870701  1
  Zn  Zn109  1  0.13163149  0.37631645  0.75174308  1
  Zn  Zn110  1  0.87614689  0.63019502  0.75417044  1
  Zn  Zn111  1  0.75235899  0.74871174  0.50261878  1
  Zn  Zn112  1  0.50213054  -0.00245641  0.00178471  1
  Zn  Zn113  1  0.87757958  -0.00036752  0.87819426  1
  Zn  Zn114  1  0.23304722  0.64051794  0.36871906  1
  Zn  Zn115  1  0.87420431  0.50197176  0.37560768  1
  Zn  Zn116  1  0.74999357  0.87237493  0.62643182  1
  Zn  Zn117  1  0.50047143  0.50055152  0.49903832  1
  Zn  Zn118  1  0.25590820  0.37997560  0.63606424  1
  Zn  Zn119  1  0.49616410  0.12615304  0.62237118  1
  Zn  Zn120  1  0.12678110  0.00319556  0.62739487  1
  Zn  Zn121  1  0.75138521  0.62375487  0.37541586  1
  Zn  Zn122  1  0.18702176  0.18619207  0.18788531  1
  Zn  Zn123  1  0.18976150  0.19132035  0.68669386  1
  Zn  Zn124  1  0.18878574  0.68544616  0.18679929  1
  Zn  Zn125  1  0.18677638  0.68704723  0.68143125  1
  Zn  Zn126  1  0.68705855  0.18747698  0.18792727  1
  Zn  Zn127  1  0.68859395  0.18865823  0.68656513  1
  Zn  Zn128  1  0.68855435  0.68789835  0.18594300  1
  Zn  Zn129  1  0.69192011  0.68958758  0.68957176  1
  Zn  Zn130  1  0.31212071  0.31284050  0.31349241  1
  Zn  Zn131  1  0.30956012  0.31208661  0.81094868  1
  Zn  Zn132  1  0.31515639  0.81508995  0.30818334  1
  Zn  Zn133  1  0.30977062  0.80771216  0.80815384  1
  Zn  Zn134  1  0.81240319  0.31470844  0.31433021  1
  Zn  Zn135  1  0.81069241  0.31407604  0.81449245  1
  Zn  Zn136  1  0.81456267  0.81155461  0.31184746  1
  Zn  Zn137  1  0.81064485  0.81261370  0.81501142  1
  Zn  Zn138  1  0.18741720  0.44214753  0.43889125  1
  Zn  Zn139  1  0.18766887  0.43508395  0.93461066  1
  Zn  Zn140  1  0.18715928  0.93859698  0.43925231  1
  Zn  Zn141  1  0.18747349  0.93566284  0.93686197  1
  Zn  Zn142  1  0.68927781  0.44036263  0.43388086  1
  Zn  Zn143  1  0.68689829  0.43843812  0.93758676  1
  Zn  Zn144  1  0.68755586  0.93870953  0.43705275  1
  Zn  Zn145  1  0.68833541  0.93807830  0.93804101  1
  Zn  Zn146  1  0.31262758  0.06081822  0.06067736  1
  Zn  Zn147  1  0.31476495  0.06182586  0.56235401  1
  Zn  Zn148  1  0.31305655  0.56074881  0.06031967  1
  Zn  Zn149  1  0.30810617  0.56969539  0.55414232  1
  Zn  Zn150  1  0.81382523  0.05791361  0.06306421  1
  Zn  Zn151  1  0.81308195  0.06436011  0.56568593  1
  Zn  Zn152  1  0.81149378  0.56127862  0.06322913  1
  Zn  Zn153  1  0.81281926  0.56425489  0.56482427  1
  Zn  Zn154  1  0.43769615  0.43764852  0.18598691  1
  Zn  Zn155  1  0.44128939  0.43951227  0.68624916  1
  Zn  Zn156  1  0.43886881  0.93761932  0.18779173  1
  Zn  Zn157  1  0.43798403  0.93626052  0.68966821  1
  Zn  Zn158  1  0.93474323  0.43851412  0.18735941  1
  Zn  Zn159  1  0.93797836  0.44238045  0.68785752  1
  Zn  Zn160  1  0.93749700  0.93542337  0.18857134  1
  Zn  Zn161  1  0.94060528  0.94199294  0.68825835  1
  Zn  Zn162  1  0.06335551  0.05868122  0.31310610  1
  Zn  Zn163  1  0.06219188  0.05845700  0.81229935  1
  Zn  Zn164  1  0.06005978  0.55868160  0.31167938  1
  Zn  Zn165  1  0.06062449  0.56078501  0.81169425  1
  Zn  Zn166  1  0.56510268  0.06243748  0.31046624  1
  Zn  Zn167  1  0.56224159  0.06196252  0.81426268  1
  Zn  Zn168  1  0.56094332  0.56180059  0.31221034  1
  Zn  Zn169  1  0.55815195  0.56244786  0.81255612  1
  Zn  Zn170  1  0.43769058  0.18804188  0.43810535  1
  Zn  Zn171  1  0.43767033  0.18580616  0.93715038  1
  Zn  Zn172  1  0.43544543  0.69076452  0.43658631  1
  Zn  Zn173  1  0.43897210  0.68601313  0.93422935  1
  Zn  Zn174  1  0.93820663  0.18963292  0.44047393  1
  Zn  Zn175  1  0.93765282  0.18544045  0.93932748  1
  Zn  Zn176  1  0.93893089  0.68878777  0.44166466  1
  Zn  Zn177  1  0.93781054  0.68844121  0.93891556  1
  Zn  Zn178  1  0.06169568  0.30989937  0.05759632  1
  Zn  Zn179  1  0.06388999  0.31541093  0.56466661  1
  Zn  Zn180  1  0.05779096  0.80964463  0.06223234  1
  Zn  Zn181  1  0.06051860  0.81248236  0.56374578  1
  Zn  Zn182  1  0.56287891  0.31066598  0.06369673  1
  Zn  Zn183  1  0.56193602  0.31456542  0.56266542  1
  Zn  Zn184  1  0.56351004  0.80986936  0.06072928  1
  Zn  Zn185  1  0.56116903  0.81344247  0.56283360  1
  O  O186  1  0.12033464  0.11444556  0.12596173  1
  O  O187  1  0.11798450  0.12580884  0.62097419  1
  O  O188  1  0.11977080  0.61802750  0.11919436  1
  O  O189  1  0.11538118  0.61467464  0.62370653  1
  O  O190  1  0.61857722  0.12528901  0.11925341  1
  O  O191  1  0.62513567  0.11564666  0.62030070  1
  O  O192  1  0.61973705  0.63402444  0.11027694  1
  O  O193  1  0.62180072  0.62347089  0.61820583  1
  O  O194  1  0.37911847  0.38362210  0.38064990  1
  O  O195  1  0.37975066  0.37800148  0.88154678  1
  O  O196  1  0.38983888  0.87764060  0.37244459  1
  O  O197  1  0.37735682  0.87902966  0.87766222  1
  O  O198  1  0.88162181  0.37577515  0.38592474  1
  O  O199  1  0.88148275  0.37865135  0.88117750  1
  O  O200  1  0.88228821  0.88062802  0.38315734  1
  O  O201  1  0.88400629  0.87131519  0.88165231  1
  O  O202  1  0.24977094  0.00727328  0.36754673  1
  O  O203  1  0.25682407  0.00639054  0.87570489  1
  O  O204  1  0.26142826  0.49771929  0.36674371  1
  O  O205  1  0.25749916  0.50831708  0.88202754  1
  O  O206  1  0.75610232  0.00687080  0.36986853  1
  O  O207  1  0.75041520  0.00616856  0.86452678  1
  O  O208  1  0.75523290  0.50300011  0.36166071  1
  O  O209  1  0.75501344  0.50719267  0.87116455  1
  O  O210  1  0.24464278  0.49293942  0.12856587  1
  O  O211  1  0.23313512  0.50224740  0.61645927  1
  O  O212  1  0.24266435  0.99405447  0.12931777  1
  O  O213  1  0.24843838  0.98883368  0.62841345  1
  O  O214  1  0.75562633  0.49220950  0.13707178  1
  O  O215  1  0.74371959  0.50046690  0.63339570  1
  O  O216  1  0.74903886  0.99561761  0.13474986  1
  O  O217  1  0.74166067  0.99960562  0.63584766  1
  O  O218  1  0.00398701  0.37008900  0.25462588  1
  O  O219  1  0.00104915  0.38020962  0.76497544  1
  O  O220  1  0.00769602  0.87486516  0.25955401  1
  O  O221  1  0.00971078  0.87866157  0.75994426  1
  O  O222  1  0.50427613  0.36935935  0.25308273  1
  O  O223  1  0.50518896  0.36809903  0.75644708  1
  O  O224  1  0.50746996  0.86837851  0.25609366  1
  O  O225  1  0.50844371  0.87343966  0.75816986  1
  O  O226  1  0.49513974  0.13137600  0.24539669  1
  O  O227  1  0.50087097  0.13707120  0.75099617  1
  O  O228  1  0.49627237  0.62950967  0.24248239  1
  O  O229  1  0.48929715  0.62693098  0.74339904  1
  O  O230  1  0.99508468  0.13051183  0.24668573  1
  O  O231  1  0.98964818  0.11671668  0.74278745  1
  O  O232  1  0.98911309  0.62202526  0.24252083  1
  O  O233  1  0.99493239  0.61973989  0.73737450  1
  O  O234  1  0.36933033  0.25470948  0.00492396  1
  O  O235  1  0.36903072  0.26220707  0.49720460  1
  O  O236  1  0.36897342  0.75249192  0.00253504  1
  O  O237  1  0.37773929  0.75384762  0.51538130  1
  O  O238  1  0.86896965  0.25469320  0.00646088  1
  O  O239  1  0.87019451  0.26115439  0.50133980  1
  O  O240  1  0.88151785  0.75748512  0.01059904  1
  O  O241  1  0.87429781  0.76095876  0.50848408  1
  O  O242  1  0.12935264  0.24697600  0.49384445  1
  O  O243  1  0.13167976  0.24667529  0.99035568  1
  O  O244  1  0.12538599  0.75027724  0.50277858  1
  O  O245  1  0.12923910  0.74336254  0.99165218  1
  O  O246  1  0.63068476  0.24709175  0.49425313  1
  O  O247  1  0.63103217  0.24419362  0.99463960  1
  O  O248  1  0.62646992  0.74327515  0.49227872  1
  O  O249  1  0.62016275  0.73813692  0.98662771  1
  O  O250  1  0.49268517  0.24418003  0.13061127  1
  O  O251  1  0.49991287  0.25057074  0.63702598  1
  O  O252  1  0.49449705  0.74232611  0.12836343  1
  O  O253  1  0.49187357  0.74552725  0.62785187  1
  O  O254  1  0.99488596  0.24506942  0.13084304  1
  O  O255  1  0.99879410  0.23700232  0.62105751  1
  O  O256  1  0.99087732  0.74106804  0.12895305  1
  O  O257  1  0.98945372  0.73961679  0.62049672  1
  O  O258  1  0.00585341  0.25508772  0.36997242  1
  O  O259  1  0.00791904  0.25879569  0.88395153  1
  O  O260  1  -0.00565444  0.76582833  0.37459528  1
  O  O261  1  0.01178487  0.75755251  0.87960752  1
  O  O262  1  0.50536884  0.25587900  0.36823072  1
  O  O263  1  0.50543832  0.25515722  0.86880653  1
  O  O264  1  0.50892605  0.75725423  0.36885143  1
  O  O265  1  0.50954905  0.75446588  0.87161677  1
  O  O266  1  0.24408243  0.13251525  0.49482256  1
  O  O267  1  0.24854018  0.12904969  0.98943303  1
  O  O268  1  0.24188052  0.63113519  0.49022170  1
  O  O269  1  0.24357651  0.62933129  0.99387323  1
  O  O270  1  0.74609774  0.13122870  0.49471911  1
  O  O271  1  0.74681883  0.13005827  0.99585030  1
  O  O272  1  0.73842314  0.62602059  0.49685413  1
  O  O273  1  0.74004985  0.61554814  0.98884604  1
  O  O274  1  0.25533052  0.36848649  0.00502476  1
  O  O275  1  0.25998321  0.37217249  0.49931180  1
  O  O276  1  0.25443757  0.86730741  0.00464345  1
  O  O277  1  0.25090835  0.87525979  0.51291385  1
  O  O278  1  0.75474004  0.36973845  0.00443356  1
  O  O279  1  0.75991345  0.37272391  0.49947531  1
  O  O280  1  0.76532128  0.87683172  -0.00145279  1
  O  O281  1  0.76413135  0.87705881  0.50124361  1
  O  O282  1  0.12908430  0.49201628  0.24158896  1
  O  O283  1  0.12127845  0.50137336  0.73452681  1
  O  O284  1  0.13020083  0.99148738  0.24033440  1
  O  O285  1  0.12888746  0.98652735  0.74989964  1
  O  O286  1  0.63575455  0.49435880  0.25542111  1
  O  O287  1  0.62879266  0.49594833  0.74651867  1
  O  O288  1  0.63353373  0.99294353  0.24881149  1
  O  O289  1  0.63326817  0.99670106  0.74457248  1
  O  O290  1  0.36779158  0.00663932  0.25060384  1
  O  O291  1  0.37279070  0.00018290  0.76390920  1
  O  O292  1  0.36983094  0.50334380  0.25568595  1
  O  O293  1  0.38090468  0.51103013  0.75487466  1
  O  O294  1  0.87120210  0.00561374  0.25659968  1
  O  O295  1  0.86511164  0.00797737  0.75135232  1
  O  O296  1  0.86740952  0.50983310  0.25058008  1
  O  O297  1  0.86743918  0.50237837  0.75833525  1
  O  O298  1  0.11991733  0.37058617  0.36910735  1
  O  O299  1  0.11583550  0.36618873  0.87623180  1
  O  O300  1  0.11539965  0.88502786  0.36402246  1
  O  O301  1  0.11973879  0.86636704  0.86973573  1
  O  O302  1  0.61941583  0.37029575  0.36888611  1
  O  O303  1  0.61867729  0.36966173  0.87060708  1
  O  O304  1  0.61966149  0.86655430  0.37063977  1
  O  O305  1  0.62158437  0.86673846  0.87305116  1
  O  O306  1  0.37896891  0.12991160  0.12979541  1
  O  O307  1  0.37858212  0.12920403  0.62961515  1
  O  O308  1  0.38058875  0.62942081  0.12839038  1
  O  O309  1  0.37812870  0.63061292  0.62951154  1
  O  O310  1  0.88009170  0.13007418  0.13230937  1
  O  O311  1  0.88295999  0.12732692  0.63390749  1
  O  O312  1  0.87872565  0.63012783  0.13058887  1
  O  O313  1  0.88097755  0.63427262  0.62718063  1
  O  O314  1  0.25411975  0.25365810  0.12005122  1
  O  O315  1  0.25191707  0.25685872  0.61573674  1
  O  O316  1  0.25567947  0.75402826  0.11824570  1
  O  O317  1  0.25858696  0.75993909  0.62556426  1
  O  O318  1  0.75673142  0.25459424  0.12077064  1
  O  O319  1  0.75298593  0.25485980  0.61714395  1
  O  O320  1  0.76615649  0.75164015  0.12988321  1
  O  O321  1  0.76103228  0.75372970  0.62210875  1
  O  O322  1  0.24313755  0.24543762  0.37966487  1
  O  O323  1  0.24227083  0.24054558  0.88036051  1
  O  O324  1  0.26984317  0.74693627  0.37909152  1
  O  O325  1  0.24021584  0.74255085  0.87974277  1
  O  O326  1  0.74493922  0.24557577  0.38072497  1
  O  O327  1  0.74461311  0.24481052  0.88222872  1
  O  O328  1  0.73757506  0.74834649  0.37649958  1
  O  O329  1  0.74073512  0.73838529  0.87118303  1
  O  O330  1  0.00184951  0.12038045  0.01010669  1
  O  O331  1  0.00456227  0.12190061  0.50795029  1
  O  O332  1  0.00597620  0.61767080  0.00387894  1
  O  O333  1  -0.00333376  0.61497598  0.50968937  1
  O  O334  1  0.50646370  0.12428424  0.00618296  1
  O  O335  1  0.51025113  0.12430758  0.50100260  1
  O  O336  1  0.50622656  0.61876972  0.00261505  1
  O  O337  1  0.51132329  0.62600060  0.50489409  1
  O  O338  1  0.49062167  0.37646179  0.49222125  1
  O  O339  1  0.49471665  0.37762781  0.99582421  1
  O  O340  1  0.50070789  0.87698587  0.48740079  1
  O  O341  1  0.49223199  0.87371143  0.99295851  1
  O  O342  1  0.99224490  0.38192685  0.49665912  1
  O  O343  1  0.99339299  0.37995750  0.99267021  1
  O  O344  1  0.99137931  0.88249634  0.49443604  1
  O  O345  1  0.99251482  0.87492291  0.99032199  1
  O  O346  1  0.48961042  0.49321796  0.37419664  1
  O  O347  1  0.49141393  0.49324627  0.88121850  1
  O  O348  1  0.50297800  0.98919635  0.37375868  1
  O  O349  1  0.49065186  0.99336509  0.87727077  1
  O  O350  1  0.99630905  0.49264256  0.38540726  1
  O  O351  1  0.99516888  0.49200372  0.88112288  1
  O  O352  1  0.99377188  0.99309147  0.38160387  1
  O  O353  1  0.99971021  0.98549981  0.87857121  1
  O  O354  1  0.00963066  0.00435286  0.12791104  1
  O  O355  1  0.00278671  0.01234945  0.61921570  1
  O  O356  1  0.00495554  0.50317634  0.11855780  1
  O  O357  1  0.00499042  0.50810352  0.61779845  1
  O  O358  1  0.50252226  0.00741315  0.12250534  1
  O  O359  1  0.51347554  0.00079741  0.62677564  1
  O  O360  1  0.49364218  0.50775299  0.11574023  1
  O  O361  1  0.50880396  0.50912053  0.62140873  1
  O  O362  1  0.24371666  0.37861635  0.24319230  1
  O  O363  1  0.24559372  0.37577282  0.74836008  1
  O  O364  1  0.24290391  0.88026602  0.24298933  1
  O  O365  1  0.23986626  0.87454031  0.74235636  1
  O  O366  1  0.74595999  0.38205575  0.24617584  1
  O  O367  1  0.74242325  0.38238146  0.75106028  1
  O  O368  1  0.74567085  0.88138723  0.25118226  1
  O  O369  1  0.74484877  0.88624463  0.75184474  1
  O  O370  1  0.25470054  0.12075948  0.25532777  1
  O  O371  1  0.25125864  0.12408026  0.76349591  1
  O  O372  1  0.25809731  0.61694165  0.24811274  1
  O  O373  1  0.26157847  0.63072291  0.75431661  1
  O  O374  1  0.75638871  0.12080078  0.25661582  1
  O  O375  1  0.75675904  0.11802239  0.75542036  1
  O  O376  1  0.75724701  0.61728748  0.24879548  1
  O  O377  1  0.75003803  0.61845733  0.76375719  1
  O  O378  1  0.36800531  0.12606546  0.36757177  1
  O  O379  1  0.36642519  0.11527982  0.87594232  1
  O  O380  1  0.38307567  0.61278451  0.36676944  1
  O  O381  1  0.37000787  0.62014574  0.86600751  1
  O  O382  1  0.87109667  0.12092561  0.37143250  1
  O  O383  1  0.87037887  0.12224248  0.86820022  1
  O  O384  1  0.87423583  0.62726974  0.36370796  1
  O  O385  1  0.86683064  0.62099609  0.87670669  1
  O  O386  1  0.12914659  0.37806626  0.12841411  1
  O  O387  1  0.12197180  0.39075791  0.62785968  1
  O  O388  1  0.12833010  0.88111039  0.13123722  1
  O  O389  1  0.13059759  0.87513585  0.63528549  1
  O  O390  1  0.63368479  0.36649741  0.13384054  1
  O  O391  1  0.62595111  0.38424882  0.63130364  1
  O  O392  1  0.62877278  0.87243444  0.13173364  1
  O  O393  1  0.62761244  0.88352475  0.63103137  1
  O  O394  1  0.11916055  0.25504536  0.25479750  1
  O  O395  1  0.12580560  0.24924943  0.76578529  1
  O  O396  1  0.12369690  0.76417820  0.24175729  1
  O  O397  1  0.13027459  0.75763706  0.76082832  1
  O  O398  1  0.61975437  0.25561823  0.25690388  1
  O  O399  1  0.61904883  0.25555425  0.75609395  1
  O  O400  1  0.62096518  0.75270279  0.25802769  1
  O  O401  1  0.62498783  0.75556470  0.76078434  1
  O  O402  1  0.37968786  0.24524412  0.24438214  1
  O  O403  1  0.38797053  0.24954308  0.75126395  1
  O  O404  1  0.38277898  0.74396190  0.24037658  1
  O  O405  1  0.37689171  0.73968808  0.73985085  1
  O  O406  1  0.88026609  0.24520624  0.24629016  1
  O  O407  1  0.86784174  0.23626159  0.75067656  1
  O  O408  1  0.87829580  0.73958923  0.24325954  1
  O  O409  1  0.87087152  0.75117531  0.73816460  1
  O  O410  1  0.37609944  0.49390700  0.49002289  1
  O  O411  1  0.38040390  0.49270501  0.99335439  1
  O  O412  1  0.38003227  0.99608491  0.49517883  1
  O  O413  1  0.37457425  0.99116684  0.98924045  1
  O  O414  1  0.88306576  0.49247361  0.50068051  1
  O  O415  1  0.87996179  0.49387008  0.99454997  1
  O  O416  1  0.87957026  0.99414183  0.49682119  1
  O  O417  1  0.87883971  0.98785419  0.99827166  1
  O  O418  1  0.12476591  -0.00210883  0.01380814  1
  O  O419  1  0.11811162  0.00898989  0.50226001  1
  O  O420  1  0.12018301  0.50394942  0.00436499  1
  O  O421  1  0.11114176  0.49735061  0.50946978  1
  O  O422  1  0.62351949  0.00741005  0.00211288  1
  O  O423  1  0.62705143  0.00555106  0.51034678  1
  O  O424  1  0.61581345  0.51124495  -0.00822852  1
  O  O425  1  0.62450027  0.51007952  0.50343043  1
  O  O426  1  0.36855914  0.36817679  0.11973842  1
  O  O427  1  0.37666879  0.37758670  0.61128927  1
  O  O428  1  0.36963937  0.86814929  0.11930873  1
  O  O429  1  0.36667750  0.86734414  0.62904090  1
  O  O430  1  0.86898827  0.36851243  0.11994708  1
  O  O431  1  0.87560472  0.37471892  0.61490614  1
  O  O432  1  0.87747858  0.86611879  0.11779112  1
  O  O433  1  0.87866822  0.87027199  0.61777974  1
  O  O434  1  0.12914927  0.13089814  0.37994196  1
  O  O435  1  0.13099144  0.12892251  0.87737262  1
  O  O436  1  0.12132298  0.62345391  0.37383260  1
  O  O437  1  0.12737069  0.63041649  0.87811995  1
  O  O438  1  0.63173675  0.13159795  0.37977025  1
  O  O439  1  0.63142776  0.13058594  0.88107531  1
  O  O440  1  0.62231819  0.63430926  0.38245474  1
  O  O441  1  0.63005060  0.63026054  0.88110295  1
