# generated using pymatgen
data_V93Zn93O256
_symmetry_space_group_name_H-M   'P 1'
_cell_length_a   17.04621487
_cell_length_b   17.04524313
_cell_length_c   17.04563448
_cell_angle_alpha   90.00747440
_cell_angle_beta   89.96355278
_cell_angle_gamma   90.00238797
_symmetry_Int_Tables_number   1
_chemical_formula_structural   V93Zn93O256
_chemical_formula_sum   'V93 Zn93 O256'
_cell_volume   4952.72527112
_cell_formula_units_Z   1
loop_
 _symmetry_equiv_pos_site_id
 _symmetry_equiv_pos_as_xyz
  1  'x, y, z'
loop_
 _atom_site_type_symbol
 _atom_site_label
 _atom_site_symmetry_multiplicity
 _atom_site_fract_x
 _atom_site_fract_y
 _atom_site_fract_z
 _atom_site_occupancy
  V  V0  1  0.87186274  0.87197579  -0.00123847  1
  V  V1  1  0.37559607  0.25339707  0.11716017  1
  V  V2  1  0.24984354  0.62637223  0.87700828  1
  V  V3  1  0.37512919  0.49953934  0.87763508  1
  V  V4  1  0.62478906  0.37599257  0.75068688  1
  V  V5  1  0.25081591  0.12642038  0.87709855  1
  V  V6  1  0.87583570  0.49799767  0.37521753  1
  V  V7  1  -0.00134254  0.74969611  0.25133172  1
  V  V8  1  0.12516301  0.87441650  0.75023895  1
  V  V9  1  0.49937510  0.37517777  0.37590195  1
  V  V10  1  0.74948611  0.37534248  0.12412265  1
  V  V11  1  0.62655142  0.24985761  0.37408694  1
  V  V12  1  0.75091863  0.12495923  0.87297443  1
  V  V13  1  0.37426592  0.00123654  0.37443487  1
  V  V14  1  0.75111988  0.37389167  0.62591702  1
  V  V15  1  -0.00408141  0.62329466  0.62790337  1
  V  V16  1  0.87520123  0.37484099  -0.00141832  1
  V  V17  1  0.12618101  0.24909893  0.37457694  1
  V  V18  1  0.87443189  0.62445122  0.24967458  1
  V  V19  1  0.24942603  0.00078070  0.74934265  1
  V  V20  1  0.37574093  0.37185661  0.50358562  1
  V  V21  1  0.75300404  0.62609497  0.87506182  1
  V  V22  1  0.75098767  0.25035151  -0.00227596  1
  V  V23  1  0.25076718  0.12404052  0.37478750  1
  V  V24  1  0.50117964  0.87553014  0.37521875  1
  V  V25  1  0.37570578  0.49972928  0.37562790  1
  V  V26  1  0.37487307  0.12790990  0.74580752  1
  V  V27  1  0.49796169  0.49817197  0.00031326  1
  V  V28  1  0.36795667  0.75403837  0.12493141  1
  V  V29  1  -0.00026077  0.00083175  -0.00044419  1
  V  V30  1  0.75040483  0.00111259  0.74927244  1
  V  V31  1  0.24822258  0.87650843  0.62605352  1
  V  V32  1  0.87524545  0.50243573  0.87309968  1
  V  V33  1  0.24836146  0.75024479  0.50081685  1
  V  V34  1  0.00113130  0.37516576  0.37450675  1
  V  V35  1  0.75126038  0.00062941  0.24927339  1
  V  V36  1  0.62348315  0.50338261  0.62310648  1
  V  V37  1  0.12626544  0.37563952  0.74973351  1
  V  V38  1  0.75576091  0.50357752  0.75001306  1
  V  V39  1  0.24955325  -0.00610987  0.24672671  1
  V  V40  1  0.00089367  0.37535584  0.87429095  1
  V  V41  1  0.87433010  -0.00054279  0.87439600  1
  V  V42  1  0.62903837  0.75099653  0.87806192  1
  V  V43  1  0.49991957  0.75068340  0.25178202  1
  V  V44  1  0.12196509  0.12434067  0.50611981  1
  V  V45  1  0.00016774  0.49870697  0.50036797  1
  V  V46  1  0.62376887  0.87538317  0.75040509  1
  V  V47  1  0.75076363  0.24869812  0.49948411  1
  V  V48  1  0.24967743  0.62554121  0.37678537  1
  V  V49  1  0.00009632  0.00322871  0.50569707  1
  V  V50  1  0.25173877  0.24999722  0.50058762  1
  V  V51  1  0.49752223  0.37478320  0.87781282  1
  V  V52  1  0.12602327  0.25023693  0.87539566  1
  V  V53  1  0.49859105  0.87632866  0.87678132  1
  V  V54  1  0.87648862  0.12386379  0.24914996  1
  V  V55  1  0.25425592  0.37151700  0.62584723  1
  V  V56  1  0.74726504  0.62578188  0.37780348  1
  V  V57  1  0.62424919  0.12465317  -0.00136367  1
  V  V58  1  0.49886849  0.24886417  0.24865998  1
  V  V59  1  0.62393159  0.00047529  0.62412782  1
  V  V60  1  0.49767059  0.25179076  0.74465731  1
  V  V61  1  0.87171283  0.74843499  0.12216150  1
  V  V62  1  0.00102718  0.12410686  0.12447906  1
  V  V63  1  0.87477310  -0.00061536  0.37389386  1
  V  V64  1  0.12618275  0.37387993  0.24988266  1
  V  V65  1  -0.00003473  0.87368259  0.37442319  1
  V  V66  1  0.62782538  0.62898703  0.00054035  1
  V  V67  1  0.37634779  0.62702646  0.75032818  1
  V  V68  1  0.25460232  0.37433231  0.11888281  1
  V  V69  1  0.12493293  0.62539766  0.00067073  1
  V  V70  1  0.74976446  0.49810145  0.24929565  1
  V  V71  1  0.50000175  0.62540547  0.12525667  1
  V  V72  1  0.12834765  -0.00654161  0.12471933  1
  V  V73  1  0.36897930  0.87557496  0.00355479  1
  V  V74  1  0.00032606  0.24339184  0.74594004  1
  V  V75  1  0.12391433  0.74958732  0.87610920  1
  V  V76  1  0.37542843  0.62537692  0.25068295  1
  V  V77  1  0.00121843  0.24830271  0.24891963  1
  V  V78  1  0.74868088  0.87422882  0.62431773  1
  V  V79  1  0.49916971  0.12670712  0.62319599  1
  V  V80  1  0.12398709  0.74978587  0.37558597  1
  V  V81  1  0.87279832  0.74664286  0.62817661  1
  V  V82  1  0.00116058  0.49981315  -0.00023407  1
  V  V83  1  0.62343306  0.00034585  0.12450635  1
  V  V84  1  0.74845816  0.87149026  0.12231167  1
  V  V85  1  0.87928380  0.24357592  0.62482517  1
  V  V86  1  0.12513921  0.49970117  0.12497824  1
  V  V87  1  -0.00299590  0.74715816  0.75074254  1
  V  V88  1  0.37406658  0.87649438  0.50095091  1
  V  V89  1  0.12457781  0.49946586  0.62557063  1
  V  V90  1  0.37400533  0.75045384  0.62713398  1
  V  V91  1  0.25019840  0.49971597  0.25072679  1
  V  V92  1  0.87433983  0.87448131  0.50029508  1
  Zn  Zn93  1  0.87922892  0.12134573  0.74662193  1
  Zn  Zn94  1  0.74721786  0.74967468  0.49977586  1
  Zn  Zn95  1  0.49988343  0.62788072  0.62292235  1
  Zn  Zn96  1  0.49681102  0.12594726  0.12256526  1
  Zn  Zn97  1  0.25261287  0.25366740  -0.00218197  1
  Zn  Zn98  1  0.62520814  0.25034965  0.87400699  1
  Zn  Zn99  1  0.87673171  0.24825803  0.12344823  1
  Zn  Zn100  1  0.49992214  0.75091682  0.74898863  1
  Zn  Zn101  1  -0.00000121  0.62445616  0.12547560  1
  Zn  Zn102  1  0.25062733  0.49969189  0.74974719  1
  Zn  Zn103  1  0.62576448  0.87439434  0.25120829  1
  Zn  Zn104  1  0.62467518  0.50098243  0.12557509  1
  Zn  Zn105  1  0.12619807  0.12547370  0.00072462  1
  Zn  Zn106  1  0.62533425  0.75067934  0.37690127  1
  Zn  Zn107  1  0.62440845  0.12386336  0.49906510  1
  Zn  Zn108  1  0.12495463  0.62496577  0.50143894  1
  Zn  Zn109  1  0.12014381  0.00307251  0.62798819  1
  Zn  Zn110  1  0.12786970  0.87144477  0.24659781  1
  Zn  Zn111  1  0.37474756  0.00077449  0.87815588  1
  Zn  Zn112  1  0.87750653  0.37246860  0.49946422  1
  Zn  Zn113  1  0.61992372  0.62914938  0.50019540  1
  Zn  Zn114  1  0.24504650  0.75472569  0.00487531  1
  Zn  Zn115  1  0.50017867  0.00164687  0.49919299  1
  Zn  Zn116  1  0.74987635  0.12415232  0.37331688  1
  Zn  Zn117  1  0.62493872  0.37619129  0.24858026  1
  Zn  Zn118  1  -0.00094135  0.87490783  0.87422697  1
  Zn  Zn119  1  0.50014136  0.50178115  0.50067373  1
  Zn  Zn120  1  0.37319828  0.12521857  0.24754802  1
  Zn  Zn121  1  0.49710221  0.00150630  0.00127196  1
  Zn  Zn122  1  0.18884495  0.18358623  0.18631355  1
  Zn  Zn123  1  0.18834344  0.19002651  0.68768215  1
  Zn  Zn124  1  0.18628804  0.68616703  0.18956835  1
  Zn  Zn125  1  0.18665983  0.68646727  0.68876865  1
  Zn  Zn126  1  0.68891464  0.18789501  0.18634795  1
  Zn  Zn127  1  0.68594616  0.18757286  0.68786494  1
  Zn  Zn128  1  0.68600709  0.68797236  0.19137482  1
  Zn  Zn129  1  0.68649659  0.68729541  0.69119384  1
  Zn  Zn130  1  0.31368083  0.31251979  0.31125659  1
  Zn  Zn131  1  0.31476228  0.31253754  0.81194631  1
  Zn  Zn132  1  0.31344968  0.81301522  0.31417633  1
  Zn  Zn133  1  0.31059399  0.81248152  0.81548603  1
  Zn  Zn134  1  0.81499825  0.31159146  0.31046542  1
  Zn  Zn135  1  0.81390812  0.31274374  0.81150758  1
  Zn  Zn136  1  0.81257819  0.81244830  0.31035591  1
  Zn  Zn137  1  0.81048556  0.81235865  0.81122417  1
  Zn  Zn138  1  0.18725492  0.43826675  0.43915887  1
  Zn  Zn139  1  0.18763276  0.43888643  0.93728206  1
  Zn  Zn140  1  0.18599653  0.93704674  0.43606435  1
  Zn  Zn141  1  0.18632386  0.93868477  0.93583549  1
  Zn  Zn142  1  0.68838280  0.43590383  0.43832288  1
  Zn  Zn143  1  0.68506096  0.43974593  0.93762789  1
  Zn  Zn144  1  0.68681365  0.93851301  0.43938376  1
  Zn  Zn145  1  0.68861926  0.93867476  0.93813076  1
  Zn  Zn146  1  0.31413453  0.06335288  0.06433178  1
  Zn  Zn147  1  0.31175809  0.06180599  0.56262715  1
  Zn  Zn148  1  0.31200442  0.56502236  0.06312639  1
  Zn  Zn149  1  0.31231528  0.56057200  0.56294553  1
  Zn  Zn150  1  0.81254716  0.06171457  0.06194835  1
  Zn  Zn151  1  0.81217518  0.06300728  0.56162981  1
  Zn  Zn152  1  0.81246949  0.56121532  0.06057051  1
  Zn  Zn153  1  0.81336397  0.56135098  0.56057778  1
  Zn  Zn154  1  0.43745356  0.43613476  0.18822713  1
  Zn  Zn155  1  0.43743833  0.43964143  0.68898877  1
  Zn  Zn156  1  0.43655786  0.93756983  0.18868409  1
  Zn  Zn157  1  0.43624454  0.94004347  0.68921361  1
  Zn  Zn158  1  0.93705904  0.43653689  0.18690002  1
  Zn  Zn159  1  0.93707177  0.43188127  0.68663034  1
  Zn  Zn160  1  0.93949782  0.93686129  0.18662086  1
  Zn  Zn161  1  0.93597953  0.93353800  0.68784939  1
  Zn  Zn162  1  0.06392834  0.06099060  0.31382238  1
  Zn  Zn163  1  0.06370509  0.06106935  0.81458452  1
  Zn  Zn164  1  0.06240248  0.56371504  0.31226656  1
  Zn  Zn165  1  0.06307662  0.56323748  0.81132484  1
  Zn  Zn166  1  0.56284328  0.06313996  0.31093678  1
  Zn  Zn167  1  0.56264024  0.06146050  0.81206384  1
  Zn  Zn168  1  0.56378822  0.56074322  0.31162692  1
  Zn  Zn169  1  0.56367564  0.56324469  0.81103036  1
  Zn  Zn170  1  0.43631892  0.18854045  0.43650781  1
  Zn  Zn171  1  0.43794331  0.18875269  0.93521087  1
  Zn  Zn172  1  0.43730682  0.68761022  0.44084578  1
  Zn  Zn173  1  0.43875975  0.68980503  0.93908339  1
  Zn  Zn174  1  0.93798808  0.18576339  0.43570575  1
  Zn  Zn175  1  0.93768023  0.18690660  0.93604506  1
  Zn  Zn176  1  0.93581396  0.68561414  0.44039592  1
  Zn  Zn177  1  0.93796581  0.68639006  0.93910556  1
  Zn  Zn178  1  0.06537110  0.31120000  0.06140845  1
  Zn  Zn179  1  0.06481550  0.31267303  0.56248176  1
  Zn  Zn180  1  0.05794891  0.81272606  0.06242688  1
  Zn  Zn181  1  0.06229204  0.81347151  0.56253704  1
  Zn  Zn182  1  0.56389766  0.31234218  0.06113485  1
  Zn  Zn183  1  0.56433246  0.31404483  0.56181025  1
  Zn  Zn184  1  0.55808354  0.81203745  0.06245255  1
  Zn  Zn185  1  0.56145910  0.81009641  0.56077659  1
  O  O186  1  0.11888288  0.11423917  0.12278377  1
  O  O187  1  0.13152400  0.12451910  0.61007433  1
  O  O188  1  0.12416404  0.61744098  0.11969860  1
  O  O189  1  0.11429651  0.61895590  0.62488232  1
  O  O190  1  0.62675290  0.11701009  0.11512227  1
  O  O191  1  0.61447265  0.11951817  0.62542860  1
  O  O192  1  0.61991765  0.62627089  0.11594318  1
  O  O193  1  0.62486193  0.61466929  0.62614753  1
  O  O194  1  0.37886209  0.38038120  0.38240088  1
  O  O195  1  0.38654295  0.38671723  0.86882943  1
  O  O196  1  0.38273925  0.88084413  0.38059496  1
  O  O197  1  0.38407053  0.87434042  0.88281432  1
  O  O198  1  0.88321845  0.38040693  0.37490928  1
  O  O199  1  0.88091164  0.38194457  0.87949639  1
  O  O200  1  0.87933135  0.87956160  0.38055587  1
  O  O201  1  0.87255219  0.87859118  0.88428721  1
  O  O202  1  0.25436349  0.00459361  0.36823793  1
  O  O203  1  0.25032232  0.01108256  0.86758366  1
  O  O204  1  0.25486849  0.50480662  0.36992379  1
  O  O205  1  0.26090872  0.50480066  0.87548330  1
  O  O206  1  0.75606031  0.00021641  0.36793613  1
  O  O207  1  0.75485382  0.00421333  0.86868687  1
  O  O208  1  0.75557663  0.50465900  0.36994368  1
  O  O209  1  0.75356639  0.50590290  0.86782563  1
  O  O210  1  0.24699359  0.49345940  0.13075506  1
  O  O211  1  0.24379609  0.48879719  0.62616456  1
  O  O212  1  0.24014406  1.00743559  0.13464033  1
  O  O213  1  0.24760131  0.99386849  0.63211680  1
  O  O214  1  0.74996632  0.49082056  0.12922769  1
  O  O215  1  0.74554086  0.49611455  0.63268681  1
  O  O216  1  0.74256121  0.99158489  0.12863823  1
  O  O217  1  0.74498171  0.99449661  0.62927192  1
  O  O218  1  0.00678583  0.36930432  0.25438606  1
  O  O219  1  0.00629570  0.36704367  0.75596748  1
  O  O220  1  -0.00094657  0.86726140  0.25762898  1
  O  O221  1  0.00551634  0.86320907  0.75003532  1
  O  O222  1  0.50168430  0.36467974  0.25611911  1
  O  O223  1  0.50317855  0.36878089  0.75621868  1
  O  O224  1  0.49938225  0.87009282  0.26048427  1
  O  O225  1  0.50497914  0.87552318  0.76057664  1
  O  O226  1  0.50002284  0.13887170  0.24716194  1
  O  O227  1  0.49452328  0.13204813  0.74465101  1
  O  O228  1  0.49404491  0.62954543  0.24563477  1
  O  O229  1  0.48725392  0.62739171  0.75071452  1
  O  O230  1  0.99645351  0.12881064  0.24529523  1
  O  O231  1  1.00092000  0.13955444  0.75476918  1
  O  O232  1  0.99168976  0.63053538  0.24812687  1
  O  O233  1  1.00338289  0.63573334  0.74025383  1
  O  O234  1  0.37563297  0.24876040  0.01250929  1
  O  O235  1  0.36858275  0.26440349  0.49369090  1
  O  O236  1  0.37423162  0.75644211  0.00908630  1
  O  O237  1  0.36720310  0.75680678  0.50678039  1
  O  O238  1  0.86941688  0.25748667  -0.00036778  1
  O  O239  1  0.86877202  0.24994871  0.50582463  1
  O  O240  1  0.88047635  0.75969166  0.01052114  1
  O  O241  1  0.87404650  0.75581509  0.51231979  1
  O  O242  1  0.13005531  0.24284020  0.49419378  1
  O  O243  1  0.12908024  0.24608112  0.99071332  1
  O  O244  1  0.13073613  0.74824231  0.49426083  1
  O  O245  1  0.12377725  0.74485177  0.99573516  1
  O  O246  1  0.63332125  0.24955753  0.49212950  1
  O  O247  1  0.63085649  0.23974675  0.99781377  1
  O  O248  1  0.63011153  0.74694013  0.49548895  1
  O  O249  1  0.61875112  0.73988374  0.99037424  1
  O  O250  1  0.49365430  0.25342915  0.13226228  1
  O  O251  1  0.50671992  0.24198902  0.63582674  1
  O  O252  1  0.49116532  0.74404923  0.13130995  1
  O  O253  1  0.48974045  0.74935621  0.62936057  1
  O  O254  1  1.00080109  0.24340835  0.13110095  1
  O  O255  1  0.99167916  0.25842319  0.63445475  1
  O  O256  1  0.98751312  0.74891599  0.13180698  1
  O  O257  1  0.99337570  0.74331092  0.63107897  1
  O  O258  1  0.00691440  0.25481408  0.36899226  1
  O  O259  1  0.00498396  0.25643541  0.86661590  1
  O  O260  1  0.00290113  0.75306456  0.37133401  1
  O  O261  1  0.00289414  0.74894900  0.86512107  1
  O  O262  1  0.50691100  0.25460738  0.36798288  1
  O  O263  1  0.50123605  0.26010493  0.86663199  1
  O  O264  1  0.49661834  0.76066303  0.36985303  1
  O  O265  1  0.50972867  0.75976186  0.87403184  1
  O  O266  1  0.24379111  0.12993667  0.49467962  1
  O  O267  1  0.25176637  0.12638078  0.98587672  1
  O  O268  1  0.24940228  0.63169701  0.49464853  1
  O  O269  1  0.24259190  0.62729418  0.99448661  1
  O  O270  1  0.74830508  0.13796484  0.49716384  1
  O  O271  1  0.74295244  0.12896582  0.99433043  1
  O  O272  1  0.75011263  0.62489070  0.48771347  1
  O  O273  1  0.73646716  0.61564748  0.98919409  1
  O  O274  1  0.24585924  0.37546905  0.01501426  1
  O  O275  1  0.25646707  0.37060216  0.50636706  1
  O  O276  1  0.26442158  0.87332993  -0.00774950  1
  O  O277  1  0.25448710  0.87037120  0.50519333  1
  O  O278  1  0.75431855  0.37200108  0.00459700  1
  O  O279  1  0.75213332  0.36261433  0.50542022  1
  O  O280  1  0.76027563  0.88015996  0.01087845  1
  O  O281  1  0.75695410  0.87401470  0.50703137  1
  O  O282  1  0.13068225  0.49457653  0.24513876  1
  O  O283  1  0.12705621  0.49293841  0.74440408  1
  O  O284  1  0.13156942  0.99754913  0.24291655  1
  O  O285  1  0.12983245  0.99403392  0.74762033  1
  O  O286  1  0.63288043  0.49566524  0.24544798  1
  O  O287  1  0.63443379  0.49575601  0.74338319  1
  O  O288  1  0.63100366  0.99941092  0.23908106  1
  O  O289  1  0.63071906  0.99431956  0.74430800  1
  O  O290  1  0.36648275  0.00259216  0.25430135  1
  O  O291  1  0.36884411  0.01131156  0.75420762  1
  O  O292  1  0.36993525  0.50572007  0.25538284  1
  O  O293  1  0.37484545  0.50911326  0.76117584  1
  O  O294  1  0.87123446  0.00396837  0.25436014  1
  O  O295  1  0.86947151  0.00009072  0.75475094  1
  O  O296  1  0.87015302  0.50473365  0.25521713  1
  O  O297  1  0.86286197  0.49344004  0.75505965  1
  O  O298  1  0.12167153  0.36928968  0.36925702  1
  O  O299  1  0.12123878  0.37089872  0.86937736  1
  O  O300  1  0.11730371  0.86692790  0.37357298  1
  O  O301  1  0.12185298  0.86778885  0.86864404  1
  O  O302  1  0.61969474  0.36395080  0.37473233  1
  O  O303  1  0.61346874  0.37724453  0.86871139  1
  O  O304  1  0.61252727  0.87605918  0.37389033  1
  O  O305  1  0.62045266  0.86850099  0.87326363  1
  O  O306  1  0.37764567  0.13683290  0.12814214  1
  O  O307  1  0.38424523  0.12062371  0.63639571  1
  O  O308  1  0.38076571  0.63273735  0.13066680  1
  O  O309  1  0.37253012  0.62940847  0.63617788  1
  O  O310  1  0.88243543  0.12444243  0.13072399  1
  O  O311  1  0.87138741  0.13910296  0.62678464  1
  O  O312  1  0.87271185  0.63371434  0.12875958  1
  O  O313  1  0.88408122  0.63407992  0.62103614  1
  O  O314  1  0.25782381  0.25719122  0.12553786  1
  O  O315  1  0.24532844  0.26434041  0.61828475  1
  O  O316  1  0.26383925  0.74608455  0.12624266  1
  O  O317  1  0.25371377  0.75621801  0.62104129  1
  O  O318  1  0.75256113  0.25919598  0.11748103  1
  O  O319  1  0.75585266  0.25398697  0.61850717  1
  O  O320  1  0.75989609  0.75986219  0.13209297  1
  O  O321  1  0.75884587  0.75411752  0.62845203  1
  O  O322  1  0.24483454  0.24537766  0.37980274  1
  O  O323  1  0.24670217  0.24296176  0.87465623  1
  O  O324  1  0.24513365  0.74523690  0.38045154  1
  O  O325  1  0.24098845  0.74316012  0.87765708  1
  O  O326  1  0.74318356  0.25106854  0.38140161  1
  O  O327  1  0.74767524  0.24471364  0.87950880  1
  O  O328  1  0.75121359  0.73794003  0.37399177  1
  O  O329  1  0.73907822  0.74047593  0.86895965  1
  O  O330  1  0.00072830  0.11775158  0.00510749  1
  O  O331  1  0.01026398  0.11513934  0.49271829  1
  O  O332  1  0.00664692  0.61746660  0.00233100  1
  O  O333  1  0.00133821  0.61823647  0.51116450  1
  O  O334  1  0.51202732  0.12405410  -0.00039487  1
  O  O335  1  0.49889101  0.12687699  0.51251734  1
  O  O336  1  0.50854355  0.61829710  0.00372782  1
  O  O337  1  0.50130638  0.61904865  0.50453041  1
  O  O338  1  0.49107328  0.37568039  0.49577475  1
  O  O339  1  0.50723042  0.38632407  0.98977307  1
  O  O340  1  0.49248549  0.87668638  0.49062673  1
  O  O341  1  0.49151437  0.87594144  0.99118025  1
  O  O342  1  1.00100828  0.38023936  0.49219267  1
  O  O343  1  0.99633780  0.37987036  0.99360614  1
  O  O344  1  0.99423143  0.88207325  0.49411622  1
  O  O345  1  0.98694013  0.88135226  0.99843680  1
  O  O346  1  0.49361404  0.49239563  0.37495146  1
  O  O347  1  0.49446659  0.49507190  0.88045367  1
  O  O348  1  0.49407146  0.99255326  0.37424536  1
  O  O349  1  0.49998053  0.98781244  0.87737552  1
  O  O350  1  0.99584569  0.49498097  0.37945632  1
  O  O351  1  0.99533943  0.49545425  0.87872509  1
  O  O352  1  0.99453232  0.99369789  0.38337669  1
  O  O353  1  0.99267524  0.99717731  0.88027947  1
  O  O354  1  0.00733594  0.00516649  0.12012937  1
  O  O355  1  -0.00080014  -0.00654079  0.60982591  1
  O  O356  1  0.00698620  0.49940509  0.11835556  1
  O  O357  1  0.00230185  0.50547335  0.62261680  1
  O  O358  1  0.51230830  0.00200046  0.12486545  1
  O  O359  1  0.50508384  0.01036448  0.62575510  1
  O  O360  1  0.49899712  0.50499902  0.11616845  1
  O  O361  1  0.51282403  0.50075571  0.62706564  1
  O  O362  1  0.24483403  0.38051834  0.24294386  1
  O  O363  1  0.24663860  0.37511361  0.74161717  1
  O  O364  1  0.24856776  0.88929717  0.25599063  1
  O  O365  1  0.24503518  0.88073650  0.74663710  1
  O  O366  1  0.75117606  0.37867225  0.23961852  1
  O  O367  1  0.74458976  0.38352895  0.74666235  1
  O  O368  1  0.74921752  0.88165161  0.23840313  1
  O  O369  1  0.74329534  0.88123996  0.74425223  1
  O  O370  1  0.24948991  0.11428332  0.25816043  1
  O  O371  1  0.25774228  0.12401972  0.75534290  1
  O  O372  1  0.25600885  0.61900116  0.25641256  1
  O  O373  1  0.25964348  0.62270387  0.75728479  1
  O  O374  1  0.75744560  0.11856967  0.24954093  1
  O  O375  1  0.75045270  0.11825318  0.75541220  1
  O  O376  1  0.75516189  0.61850438  0.25736418  1
  O  O377  1  0.74372482  0.61358057  0.76271826  1
  O  O378  1  0.36873096  0.11898137  0.37365584  1
  O  O379  1  0.36818973  0.12489916  0.86510175  1
  O  O380  1  0.36929531  0.62021868  0.36981202  1
  O  O381  1  0.37157930  0.62003553  0.86929392  1
  O  O382  1  0.87379566  0.11725232  0.36719614  1
  O  O383  1  0.86808434  0.11710803  0.87291939  1
  O  O384  1  0.86732881  0.61826450  0.36992685  1
  O  O385  1  0.86126871  0.61935744  0.88435780  1
  O  O386  1  0.13356939  0.37959169  0.13115971  1
  O  O387  1  0.13349310  0.38009829  0.62999376  1
  O  O388  1  0.11867180  0.88870150  0.12627837  1
  O  O389  1  0.13134106  0.87585167  0.63229662  1
  O  O390  1  0.63848685  0.37695107  0.12347777  1
  O  O391  1  0.63147217  0.38287517  0.63097831  1
  O  O392  1  0.63246737  0.88212573  0.12191949  1
  O  O393  1  0.62880025  0.87972416  0.63060466  1
  O  O394  1  0.12129025  0.25389291  0.25530938  1
  O  O395  1  0.11840786  0.25609382  0.75411920  1
  O  O396  1  0.11800937  0.75135553  0.25581115  1
  O  O397  1  0.11602283  0.75398431  0.75533205  1
  O  O398  1  0.61844965  0.25218524  0.25702625  1
  O  O399  1  0.61506376  0.25641960  0.75280736  1
  O  O400  1  0.61553330  0.75400224  0.25417929  1
  O  O401  1  0.62225656  0.75649735  0.76091497  1
  O  O402  1  0.38457847  0.24915961  0.24283582  1
  O  O403  1  0.38695893  0.24074697  0.75421206  1
  O  O404  1  0.37949387  0.74551200  0.24394936  1
  O  O405  1  0.37393799  0.74148916  0.74672482  1
  O  O406  1  0.88354535  0.24244605  0.24769776  1
  O  O407  1  0.88367315  0.24940462  0.74254451  1
  O  O408  1  0.87919071  0.74429310  0.24134915  1
  O  O409  1  0.88450269  0.75700661  0.73905646  1
  O  O410  1  0.37455923  0.48831691  0.49358170  1
  O  O411  1  0.38738365  0.51018882  0.98913763  1
  O  O412  1  0.37606314  0.99381052  0.49320829  1
  O  O413  1  0.37803535  0.99116820  0.99967419  1
  O  O414  1  0.88204234  0.49529031  0.49371245  1
  O  O415  1  0.88143529  0.49423293  0.99327892  1
  O  O416  1  0.88152000  0.99594966  0.49485636  1
  O  O417  1  0.87895456  0.99092910  0.99521040  1
  O  O418  1  0.11939485  0.00128008  0.00714823  1
  O  O419  1  0.11695516  0.00740277  0.49989302  1
  O  O420  1  0.11976391  0.50505951  0.00496719  1
  O  O421  1  0.11795968  0.50144880  0.50742013  1
  O  O422  1  0.62616075  0.00821087  0.00854700  1
  O  O423  1  0.62139082  0.00459268  0.50788564  1
  O  O424  1  0.61356521  0.51077779  -0.00029634  1
  O  O425  1  0.62600437  0.49939754  0.51297032  1
  O  O426  1  0.36436691  0.36682415  0.13216962  1
  O  O427  1  0.36600313  0.38281854  0.61624301  1
  O  O428  1  0.38383798  0.86487139  0.11537810  1
  O  O429  1  0.36810128  0.87126795  0.62190144  1
  O  O430  1  0.86525835  0.37397642  0.11743922  1
  O  O431  1  0.86818400  0.36292356  0.62284397  1
  O  O432  1  0.86762664  0.86913749  0.11851326  1
  O  O433  1  0.86860381  0.86599730  0.61998727  1
  O  O434  1  0.13106730  0.12988353  0.38432386  1
  O  O435  1  0.13680848  0.13123373  0.87315198  1
  O  O436  1  0.13179710  0.63124302  0.37676499  1
  O  O437  1  0.12953663  0.62954157  0.88053360  1
  O  O438  1  0.62615763  0.13795419  0.37646166  1
  O  O439  1  0.63109093  0.12382471  0.88392758  1
  O  O440  1  0.63682911  0.62411250  0.37533253  1
  O  O441  1  0.63013273  0.63193619  0.88110366  1
