# generated using pymatgen
data_V93Zn93O256
_symmetry_space_group_name_H-M   'P 1'
_cell_length_a   17.04931447
_cell_length_b   17.05359807
_cell_length_c   17.04775107
_cell_angle_alpha   89.98051418
_cell_angle_beta   89.99589327
_cell_angle_gamma   90.01091194
_symmetry_Int_Tables_number   1
_chemical_formula_structural   V93Zn93O256
_chemical_formula_sum   'V93 Zn93 O256'
_cell_volume   4956.66999476
_cell_formula_units_Z   1
loop_
 _symmetry_equiv_pos_site_id
 _symmetry_equiv_pos_as_xyz
  1  'x, y, z'
loop_
 _atom_site_type_symbol
 _atom_site_label
 _atom_site_symmetry_multiplicity
 _atom_site_fract_x
 _atom_site_fract_y
 _atom_site_fract_z
 _atom_site_occupancy
  V  V0  1  -0.00156892  0.37552633  0.87470229  1
  V  V1  1  0.12797811  0.62423567  0.49787678  1
  V  V2  1  0.49828793  0.00087297  0.00181280  1
  V  V3  1  0.50115464  0.49838494  0.50042301  1
  V  V4  1  0.50030041  0.12339098  0.62642117  1
  V  V5  1  0.49930349  0.37670732  0.87535771  1
  V  V6  1  0.25251546  0.62692298  0.86908353  1
  V  V7  1  0.12477386  0.75354319  0.36617916  1
  V  V8  1  0.62577383  0.75019970  0.37400715  1
  V  V9  1  0.37438272  0.62417793  0.24975243  1
  V  V10  1  -0.00012768  0.50035685  -0.00152929  1
  V  V11  1  0.25094026  0.37583105  0.62839500  1
  V  V12  1  0.24402150  0.75208640  -0.00674495  1
  V  V13  1  0.24911931  0.12628757  0.87598929  1
  V  V14  1  0.12393404  0.62752764  -0.00582558  1
  V  V15  1  0.62410960  0.25086331  0.87632517  1
  V  V16  1  0.24076104  0.00102716  0.74734418  1
  V  V17  1  0.13227225  0.37486092  0.24611102  1
  V  V18  1  0.49927851  0.62664539  0.12383875  1
  V  V19  1  0.87445863  0.62545351  0.74935799  1
  V  V20  1  0.49914167  0.50165660  -0.00090924  1
  V  V21  1  0.37558739  0.12483380  0.24906148  1
  V  V22  1  0.87443832  0.25123549  0.12408894  1
  V  V23  1  0.00101654  0.62498885  0.62409003  1
  V  V24  1  0.24383401  0.87750125  0.62600392  1
  V  V25  1  0.37299770  0.87629094  0.00052955  1
  V  V26  1  0.62620180  0.37581151  0.75004158  1
  V  V27  1  0.74924076  0.00042903  0.25072650  1
  V  V28  1  0.37431203  0.12510834  0.75180585  1
  V  V29  1  0.49662090  0.74847667  0.75100483  1
  V  V30  1  0.37402368  0.50518515  0.86776846  1
  V  V31  1  0.50109879  -0.00060563  0.50282344  1
  V  V32  1  0.86949575  -0.00034211  0.87082604  1
  V  V33  1  0.74846135  0.75051206  -0.00126613  1
  V  V34  1  0.37006990  0.37722938  0.00689141  1
  V  V35  1  0.75146850  0.24884974  0.50035735  1
  V  V36  1  0.37422685  0.74790366  0.62656865  1
  V  V37  1  0.75120051  0.50042617  0.24914527  1
  V  V38  1  0.74950902  0.87988967  0.62785773  1
  V  V39  1  0.62347364  0.87533842  0.25064763  1
  V  V40  1  0.62528161  0.37471827  0.25116040  1
  V  V41  1  0.74830310  0.12390041  0.87195054  1
  V  V42  1  0.75204180  0.74964284  0.49999194  1
  V  V43  1  0.62464665  0.62687444  -0.00095544  1
  V  V44  1  0.75142443  0.37525186  0.62603251  1
  V  V45  1  0.50006756  0.87372781  0.37600127  1
  V  V46  1  0.12593020  0.24863968  0.37584644  1
  V  V47  1  0.88058430  0.62729461  0.24794396  1
  V  V48  1  0.62720198  0.88128017  0.74975823  1
  V  V49  1  0.24408528  0.87537209  0.13103174  1
  V  V50  1  0.00228044  0.37286532  0.37456588  1
  V  V51  1  0.62589597  0.62495536  0.49962665  1
  V  V52  1  0.37393104  -0.00143867  0.37574982  1
  V  V53  1  0.12376200  0.25143637  0.87612290  1
  V  V54  1  0.87547445  -0.00300877  0.37620973  1
  V  V55  1  0.00028768  0.25024512  0.74832484  1
  V  V56  1  0.37599227  0.87402709  0.50146850  1
  V  V57  1  0.37425635  0.49920978  0.37533539  1
  V  V58  1  0.13224547  0.49599395  0.12254069  1
  V  V59  1  0.87677600  0.37285903  0.49921604  1
  V  V60  1  0.87673883  0.49878690  0.37341880  1
  V  V61  1  0.87467344  0.74923520  0.62314551  1
  V  V62  1  0.12283131  -0.00365458  0.13289972  1
  V  V63  1  0.49790386  0.62500463  0.62892530  1
  V  V64  1  0.00209998  0.49880817  0.50002226  1
  V  V65  1  0.00655490  -0.00151000  0.50596185  1
  V  V66  1  0.62536307  0.50082165  0.12487909  1
  V  V67  1  0.62561518  0.12420025  0.50192609  1
  V  V68  1  0.25004804  0.25536195  0.00750244  1
  V  V69  1  0.87265703  0.87528500  -0.00125717  1
  V  V70  1  0.25088046  0.24897979  0.50083028  1
  V  V71  1  0.37542412  0.24988293  0.62530643  1
  V  V72  1  0.62312051  0.00181866  0.12520776  1
  V  V73  1  0.87478747  0.74976579  0.12476195  1
  V  V74  1  0.75006248  0.62622223  0.87412163  1
  V  V75  1  0.12461199  0.12648419  0.00171869  1
  V  V76  1  0.00602009  0.75109040  0.75258977  1
  V  V77  1  0.00574041  0.87274392  0.87429997  1
  V  V78  1  0.24939727  0.12414034  0.37650780  1
  V  V79  1  0.37349619  0.75051659  0.12470990  1
  V  V80  1  -0.00158638  0.00047462  -0.00011880  1
  V  V81  1  0.75084646  0.37560923  0.12443058  1
  V  V82  1  -0.00150355  0.12494079  0.12509884  1
  V  V83  1  0.37297259  0.00083755  0.87633995  1
  V  V84  1  0.49874538  0.87490248  0.87505666  1
  V  V85  1  0.87335212  0.12359768  0.74859633  1
  V  V86  1  0.87397300  0.12379769  0.24920691  1
  V  V87  1  0.74852437  0.87596474  0.12393046  1
  V  V88  1  0.62298476  0.12579766  0.00013490  1
  V  V89  1  0.62398305  0.24952914  0.37486658  1
  V  V90  1  0.49967852  0.24993452  0.75098761  1
  V  V91  1  0.75139274  0.62491504  0.37454973  1
  V  V92  1  0.87497335  0.50069494  0.87408326  1
  Zn  Zn93  1  0.12848891  0.12043342  0.50758470  1
  Zn  Zn94  1  0.62452481  0.75105131  0.87411597  1
  Zn  Zn95  1  0.24536056  -0.00409326  0.25431697  1
  Zn  Zn96  1  0.49850717  0.12917947  0.12570720  1
  Zn  Zn97  1  0.37362175  0.25505059  0.12985910  1
  Zn  Zn98  1  0.00532351  0.87829952  0.36797784  1
  Zn  Zn99  1  0.50046278  0.37383643  0.37474653  1
  Zn  Zn100  1  0.00224457  0.62607313  0.12276633  1
  Zn  Zn101  1  0.25003630  0.62382689  0.37403187  1
  Zn  Zn102  1  0.74755235  0.25279162  0.00016163  1
  Zn  Zn103  1  0.87839163  0.24602844  0.62241249  1
  Zn  Zn104  1  0.12754460  0.49980902  0.62659756  1
  Zn  Zn105  1  0.01008766  0.11724667  0.63043908  1
  Zn  Zn106  1  0.62643136  0.50155599  0.62642023  1
  Zn  Zn107  1  0.25505123  0.49452200  0.24313362  1
  Zn  Zn108  1  0.87294553  0.37624251  -0.00063466  1
  Zn  Zn109  1  0.75035709  0.12342431  0.37702823  1
  Zn  Zn110  1  0.24972076  0.74985664  0.49841239  1
  Zn  Zn111  1  0.49953756  0.75066943  0.25018605  1
  Zn  Zn112  1  0.87657425  0.87401455  0.49966925  1
  Zn  Zn113  1  0.12564224  0.37934096  0.75076929  1
  Zn  Zn114  1  0.63004059  0.00272233  0.62858410  1
  Zn  Zn115  1  0.49921824  0.25165270  0.24757546  1
  Zn  Zn116  1  0.37690091  0.37337690  0.49961085  1
  Zn  Zn117  1  0.00115519  0.24992034  0.25051231  1
  Zn  Zn118  1  0.00868463  0.76047331  0.24179140  1
  Zn  Zn119  1  0.24970441  0.50576098  0.74783305  1
  Zn  Zn120  1  0.74896526  0.50238200  0.74933996  1
  Zn  Zn121  1  0.12280519  0.87683922  0.74730254  1
  Zn  Zn122  1  0.18754036  0.18558431  0.19041731  1
  Zn  Zn123  1  0.18504947  0.18780739  0.68576487  1
  Zn  Zn124  1  0.19048939  0.68271440  0.18205748  1
  Zn  Zn125  1  0.18556752  0.68966507  0.68514106  1
  Zn  Zn126  1  0.68838506  0.18721330  0.18821747  1
  Zn  Zn127  1  0.68826087  0.18932904  0.68781490  1
  Zn  Zn128  1  0.68893065  0.68815564  0.18745124  1
  Zn  Zn129  1  0.68522877  0.69182178  0.68804178  1
  Zn  Zn130  1  0.31326554  0.31173315  0.31485849  1
  Zn  Zn131  1  0.31287516  0.31419715  0.81588906  1
  Zn  Zn132  1  0.31075430  0.80903693  0.31375571  1
  Zn  Zn133  1  0.31217914  0.81433176  0.81072076  1
  Zn  Zn134  1  0.81164269  0.31110911  0.31185610  1
  Zn  Zn135  1  0.81295484  0.31112559  0.81283407  1
  Zn  Zn136  1  0.81326085  0.81364567  0.31076676  1
  Zn  Zn137  1  0.81375580  0.81059165  0.81022143  1
  Zn  Zn138  1  0.19001393  0.43509781  0.43800485  1
  Zn  Zn139  1  0.18713137  0.43907116  0.93517321  1
  Zn  Zn140  1  0.18972941  0.93424619  0.43886507  1
  Zn  Zn141  1  0.18608102  0.94088588  0.94073586  1
  Zn  Zn142  1  0.68874261  0.43676584  0.43805057  1
  Zn  Zn143  1  0.68908018  0.43913417  0.93770929  1
  Zn  Zn144  1  0.68846294  0.93670880  0.44001820  1
  Zn  Zn145  1  0.68470419  0.93858980  0.93639229  1
  Zn  Zn146  1  0.30953483  0.06369040  0.06512126  1
  Zn  Zn147  1  0.31244300  0.06168671  0.56380686  1
  Zn  Zn148  1  0.31204229  0.56430226  0.05791548  1
  Zn  Zn149  1  0.31375589  0.56211172  0.56217831  1
  Zn  Zn150  1  0.80964144  0.06374781  0.06010813  1
  Zn  Zn151  1  0.81593534  0.06160278  0.56145539  1
  Zn  Zn152  1  0.81266707  0.56310068  0.06104688  1
  Zn  Zn153  1  0.81473112  0.56063100  0.56171086  1
  Zn  Zn154  1  0.44182812  0.43784427  0.18857434  1
  Zn  Zn155  1  0.43725324  0.43679740  0.68731254  1
  Zn  Zn156  1  0.43562238  0.93880925  0.18859902  1
  Zn  Zn157  1  0.43465652  0.93746720  0.68905247  1
  Zn  Zn158  1  0.94375583  0.43784567  0.18605194  1
  Zn  Zn159  1  0.93749297  0.43829829  0.68700028  1
  Zn  Zn160  1  0.93757369  0.93515421  0.18964917  1
  Zn  Zn161  1  0.93392087  0.93475129  0.68808016  1
  Zn  Zn162  1  0.05912897  0.06471542  0.31555536  1
  Zn  Zn163  1  0.05984439  0.06373303  0.81593643  1
  Zn  Zn164  1  0.06481395  0.56062160  0.31142964  1
  Zn  Zn165  1  0.06428341  0.56184543  0.81039886  1
  Zn  Zn166  1  0.56064153  0.06299879  0.31484990  1
  Zn  Zn167  1  0.56087867  0.06167961  0.81431462  1
  Zn  Zn168  1  0.56162382  0.56262672  0.31226308  1
  Zn  Zn169  1  0.56454712  0.56214660  0.81224037  1
  Zn  Zn170  1  0.43752877  0.18566003  0.43780634  1
  Zn  Zn171  1  0.43601826  0.18962540  0.94000545  1
  Zn  Zn172  1  0.43882824  0.68699900  0.43892598  1
  Zn  Zn173  1  0.43392463  0.68905253  0.93773058  1
  Zn  Zn174  1  0.93983237  0.18296176  0.43735149  1
  Zn  Zn175  1  0.93623187  0.18835428  0.93824724  1
  Zn  Zn176  1  0.94141770  0.68759045  0.43567784  1
  Zn  Zn177  1  0.93665952  0.68829272  0.93607100  1
  Zn  Zn178  1  0.06044165  0.31428355  0.06230385  1
  Zn  Zn179  1  0.06633682  0.30987464  0.56382477  1
  Zn  Zn180  1  0.06026731  0.81292635  0.06170642  1
  Zn  Zn181  1  0.06040519  0.81108801  0.55608383  1
  Zn  Zn182  1  0.55915570  0.31241936  0.06430443  1
  Zn  Zn183  1  0.56467465  0.31148102  0.56363492  1
  Zn  Zn184  1  0.56141530  0.81287525  0.06314218  1
  Zn  Zn185  1  0.56533586  0.81232648  0.56308897  1
  O  O186  1  0.11890214  0.11770675  0.12025068  1
  O  O187  1  0.12256428  0.12456548  0.62088701  1
  O  O188  1  0.12445130  0.61645143  0.11181796  1
  O  O189  1  0.11957823  0.62575031  0.61389486  1
  O  O190  1  0.62412530  0.11870512  0.11877079  1
  O  O191  1  0.61918204  0.12351198  0.62162706  1
  O  O192  1  0.62029055  0.62038979  0.11990874  1
  O  O193  1  0.61476210  0.62597662  0.61845191  1
  O  O194  1  0.37978060  0.38571277  0.37735339  1
  O  O195  1  0.38023744  0.38453395  0.88401294  1
  O  O196  1  0.37933927  0.87761351  0.38104115  1
  O  O197  1  0.37874250  0.88134218  0.88100452  1
  O  O198  1  0.88073535  0.37920834  0.37888350  1
  O  O199  1  0.87992344  0.38164232  0.87609460  1
  O  O200  1  0.87308821  0.88737807  0.37656020  1
  O  O201  1  0.87910154  0.88395738  0.87784622  1
  O  O202  1  0.25591242  0.00396498  0.37453864  1
  O  O203  1  0.25376914  0.00578598  0.86906423  1
  O  O204  1  0.26453066  0.50168905  0.37432267  1
  O  O205  1  0.25824048  0.50945139  0.87504750  1
  O  O206  1  0.75776671  0.00079744  0.37029017  1
  O  O207  1  0.75956079  0.00988630  0.88008802  1
  O  O208  1  0.75683183  0.50497893  0.36962640  1
  O  O209  1  0.75652971  0.50818795  0.87303733  1
  O  O210  1  0.23662639  0.50299547  0.12107659  1
  O  O211  1  0.25400363  0.48992919  0.62782642  1
  O  O212  1  0.23930698  0.99141665  0.12428929  1
  O  O213  1  0.25969193  0.98895474  0.63683626  1
  O  O214  1  0.74456852  0.49618413  0.12958790  1
  O  O215  1  0.74918065  0.48776916  0.62504665  1
  O  O216  1  0.74366842  0.99494746  0.12927917  1
  O  O217  1  0.75076609  0.98420800  0.62010616  1
  O  O218  1  0.01129696  0.37402088  0.25717890  1
  O  O219  1  -0.00138562  0.36466456  0.75553069  1
  O  O220  1  -0.00147980  0.87139887  0.25488962  1
  O  O221  1  0.00046493  0.86913561  0.75657561  1
  O  O222  1  0.51022639  0.37341829  0.25391175  1
  O  O223  1  0.50518128  0.36950914  0.75551122  1
  O  O224  1  0.50536340  0.87401889  0.25739865  1
  O  O225  1  0.50545445  0.86796519  0.75458715  1
  O  O226  1  0.48751126  0.12608137  0.25140391  1
  O  O227  1  0.49428892  0.13016951  0.74706955  1
  O  O228  1  0.48979697  0.62545280  0.24308065  1
  O  O229  1  0.50759061  0.63572814  0.73973172  1
  O  O230  1  0.99161653  0.12653266  0.24229668  1
  O  O231  1  0.99068438  0.13284281  0.75324545  1
  O  O232  1  0.98721661  0.62518164  0.24881604  1
  O  O233  1  0.99515145  0.63324436  0.74560858  1
  O  O234  1  0.36633166  0.26036247  -0.00054602  1
  O  O235  1  0.37028423  0.25043723  0.50708372  1
  O  O236  1  0.36492611  0.75622954  0.00600060  1
  O  O237  1  0.37528499  0.75520149  0.51042340  1
  O  O238  1  0.87236717  0.25094576  0.01294347  1
  O  O239  1  0.87039487  0.25461460  0.50013617  1
  O  O240  1  0.86809933  0.75561373  0.00472076  1
  O  O241  1  0.87033773  0.74947102  0.50470211  1
  O  O242  1  0.13340640  0.24915410  0.49163415  1
  O  O243  1  0.13107951  0.24652773  0.99644255  1
  O  O244  1  0.12531291  0.73859669  0.48906252  1
  O  O245  1  0.13454383  0.74145931  1.00481552  1
  O  O246  1  0.63085651  0.24486090  0.49357423  1
  O  O247  1  0.62362475  0.24432991  0.99290138  1
  O  O248  1  0.63114294  0.74384061  0.49353562  1
  O  O249  1  0.63023793  0.74502846  0.99861164  1
  O  O250  1  0.49299814  0.24662001  0.12881741  1
  O  O251  1  0.49583276  0.24400001  0.63137957  1
  O  O252  1  0.49158914  0.74470068  0.12591453  1
  O  O253  1  0.49372403  0.74466793  0.63068547  1
  O  O254  1  0.99034614  0.24394657  0.12585065  1
  O  O255  1  0.99803255  0.24913524  0.63782747  1
  O  O256  1  0.99146563  0.74568213  0.12469400  1
  O  O257  1  0.99419482  0.74561704  0.63092638  1
  O  O258  1  0.00701841  0.25491769  0.37397068  1
  O  O259  1  0.00324950  0.25431208  0.86864837  1
  O  O260  1  0.01553001  0.74921714  0.37233543  1
  O  O261  1  -0.01084396  0.76240056  0.86448983  1
  O  O262  1  0.51382271  0.25162229  0.37691776  1
  O  O263  1  0.50381192  0.25649926  0.87006823  1
  O  O264  1  0.50743764  0.75561923  0.37449549  1
  O  O265  1  0.49703045  0.75554136  0.86632876  1
  O  O266  1  0.25133074  0.13008094  0.49361062  1
  O  O267  1  0.24515757  0.13320892  0.99465937  1
  O  O268  1  0.24001088  0.62649898  0.50008923  1
  O  O269  1  0.24355467  0.63462875  0.99261329  1
  O  O270  1  0.74433180  0.13113391  0.50124510  1
  O  O271  1  0.74251009  0.12745177  0.98847914  1
  O  O272  1  0.74618871  0.62851123  0.49403077  1
  O  O273  1  0.74411391  0.63107333  0.99485672  1
  O  O274  1  0.25835587  0.36620751  -0.00815587  1
  O  O275  1  0.25438849  0.36880454  0.51031330  1
  O  O276  1  0.25284484  0.86885442  0.00552189  1
  O  O277  1  0.25811810  0.87326198  0.51052912  1
  O  O278  1  0.75246690  0.37372462  0.00862883  1
  O  O279  1  0.75612658  0.36987906  0.50704083  1
  O  O280  1  0.75323218  0.87121634  0.00405604  1
  O  O281  1  0.75029466  0.86621294  0.50966925  1
  O  O282  1  0.12831063  0.49390232  0.24065448  1
  O  O283  1  0.13054692  0.49718854  0.74483773  1
  O  O284  1  0.12463144  1.00623742  0.23590812  1
  O  O285  1  0.13749598  1.00049285  0.75572569  1
  O  O286  1  0.63137864  0.49661119  0.24477039  1
  O  O287  1  0.62763315  0.49184527  0.74666178  1
  O  O288  1  0.62905217  0.99510903  0.24622087  1
  O  O289  1  0.61889872  0.98584567  0.74889691  1
  O  O290  1  0.37192448  0.00736708  0.25793316  1
  O  O291  1  0.36601859  0.00554715  0.75786624  1
  O  O292  1  0.37714431  0.50630600  0.25742273  1
  O  O293  1  0.37429586  0.49645602  0.76458502  1
  O  O294  1  0.86845909  0.00443801  0.25652684  1
  O  O295  1  0.88179925  0.00978650  0.76220388  1
  O  O296  1  0.87124742  0.50725842  0.25332461  1
  O  O297  1  0.87412495  0.50846849  0.75577703  1
  O  O298  1  0.12137303  0.37003476  0.36748170  1
  O  O299  1  0.11700749  0.36870842  0.87378641  1
  O  O300  1  0.12968396  0.85600445  0.37758216  1
  O  O301  1  0.10832567  0.88293623  0.87594927  1
  O  O302  1  0.62632328  0.36589485  0.37050532  1
  O  O303  1  0.61917079  0.37125146  0.87090846  1
  O  O304  1  0.62043862  0.86979774  0.37028505  1
  O  O305  1  0.61796157  0.87349077  0.86762588  1
  O  O306  1  0.37410537  0.12455146  0.13789175  1
  O  O307  1  0.38016710  0.13050849  0.63258663  1
  O  O308  1  0.37933820  0.62896208  0.13003932  1
  O  O309  1  0.38699885  0.63575452  0.61890522  1
  O  O310  1  0.87789368  0.13132413  0.12829137  1
  O  O311  1  0.87722251  0.12396229  0.63885909  1
  O  O312  1  0.87436730  0.63032517  0.13325408  1
  O  O313  1  0.88119490  0.62946380  0.62887833  1
  O  O314  1  0.25071311  0.24485756  0.11051655  1
  O  O315  1  0.25697852  0.25671343  0.62111589  1
  O  O316  1  0.25316053  0.75725639  0.11466161  1
  O  O317  1  0.26121053  0.75675115  0.62712857  1
  O  O318  1  0.75844782  0.25623378  0.12454079  1
  O  O319  1  0.75294210  0.25987614  0.61969788  1
  O  O320  1  0.75432033  0.75673845  0.11828148  1
  O  O321  1  0.75492155  0.75575810  0.61868157  1
  O  O322  1  0.24590472  0.24424628  0.38217372  1
  O  O323  1  0.24408164  0.24473335  0.88347340  1
  O  O324  1  0.23979211  0.74388502  0.37767201  1
  O  O325  1  0.25815588  0.74432558  0.88645969  1
  O  O326  1  0.74039772  0.24819887  0.38137212  1
  O  O327  1  0.74338913  0.24124112  0.87736725  1
  O  O328  1  0.74595937  0.74428951  0.37968664  1
  O  O329  1  0.74940934  0.74445583  0.88146283  1
  O  O330  1  0.00440588  0.12016561  0.00485140  1
  O  O331  1  -0.00004239  0.10911158  0.50297305  1
  O  O332  1  0.00938618  0.62065458  -0.00378599  1
  O  O333  1  0.00801863  0.61882264  0.50404133  1
  O  O334  1  0.50484807  0.11792153  -0.00044583  1
  O  O335  1  0.50524910  0.11937143  0.50729038  1
  O  O336  1  0.50420025  0.62145530  0.00438087  1
  O  O337  1  0.50594368  0.61761006  0.50829161  1
  O  O338  1  0.50038122  0.38770550  0.50151392  1
  O  O339  1  0.49203092  0.38245778  0.99388542  1
  O  O340  1  0.49598106  0.87904439  0.49600372  1
  O  O341  1  0.49296649  0.88024428  0.99508650  1
  O  O342  1  0.99637962  0.37862027  0.49505904  1
  O  O343  1  0.99700823  0.38205630  0.99231520  1
  O  O344  1  0.99673903  0.88525007  0.49272994  1
  O  O345  1  0.99166734  0.87926924  0.99208708  1
  O  O346  1  0.49319601  0.50119011  0.38494897  1
  O  O347  1  0.49278244  0.49779680  0.87980562  1
  O  O348  1  0.49426086  0.99309230  0.38304874  1
  O  O349  1  0.49250612  0.99445303  0.88158966  1
  O  O350  1  0.99550066  0.49328369  0.37999971  1
  O  O351  1  0.99440103  0.49533207  0.87861179  1
  O  O352  1  0.99049749  0.99983511  0.38289697  1
  O  O353  1  0.98925905  0.99377283  0.88054769  1
  O  O354  1  0.00438681  0.00417427  0.11859569  1
  O  O355  1  -0.00686515  -0.00485210  0.60934034  1
  O  O356  1  0.01054359  0.50427536  0.11675508  1
  O  O357  1  0.00160794  0.50655940  0.61729975  1
  O  O358  1  0.50559885  0.00127749  0.11859139  1
  O  O359  1  0.49888017  0.00621822  0.62017370  1
  O  O360  1  0.50623242  0.50705881  0.11846653  1
  O  O361  1  0.49896019  0.50899313  0.61796163  1
  O  O362  1  0.23681138  0.37609648  0.25412746  1
  O  O363  1  0.24988812  0.37348436  0.73946907  1
  O  O364  1  0.25411305  0.87440797  0.23437679  1
  O  O365  1  0.24665988  0.88305462  0.74481580  1
  O  O366  1  0.74531364  0.38222612  0.24482936  1
  O  O367  1  0.74606964  0.37426694  0.74099046  1
  O  O368  1  0.74328459  0.88074252  0.24326766  1
  O  O369  1  0.73851229  0.86458199  0.74030651  1
  O  O370  1  0.25899700  0.12221201  0.25785388  1
  O  O371  1  0.25502911  0.11913482  0.75603227  1
  O  O372  1  0.26525945  0.61942649  0.24802488  1
  O  O373  1  0.24299945  0.62998067  0.76568749  1
  O  O374  1  0.75601690  0.11692501  0.25176922  1
  O  O375  1  0.75934987  0.13195607  0.76186518  1
  O  O376  1  0.75900981  0.61949029  0.25460251  1
  O  O377  1  0.75573674  0.62711612  0.75486108  1
  O  O378  1  0.36993171  0.11862334  0.36904778  1
  O  O379  1  0.36898773  0.12068164  0.87113749  1
  O  O380  1  0.37695435  0.61769080  0.36663829  1
  O  O381  1  0.36467159  0.61553190  0.88329836  1
  O  O382  1  0.87328859  0.11448035  0.36819768  1
  O  O383  1  0.86776909  0.11870233  0.87026170  1
  O  O384  1  0.87118061  0.61954515  0.36706826  1
  O  O385  1  0.86946269  0.62075446  0.86879751  1
  O  O386  1  0.11797772  0.38416465  0.13407346  1
  O  O387  1  0.13853150  0.37592772  0.62624682  1
  O  O388  1  0.13254295  0.88503879  0.11577465  1
  O  O389  1  0.14101864  0.86520099  0.62369909  1
  O  O390  1  0.63025756  0.38170962  0.13024778  1
  O  O391  1  0.63570360  0.37481272  0.63041184  1
  O  O392  1  0.62908033  0.88147823  0.13002211  1
  O  O393  1  0.63211425  0.87566042  0.63272793  1
  O  O394  1  0.12408790  0.25797289  0.25539288  1
  O  O395  1  0.11385165  0.24990984  0.75831056  1
  O  O396  1  0.12691494  0.73568601  0.26289017  1
  O  O397  1  0.10884240  0.75228145  0.74645625  1
  O  O398  1  0.62664484  0.25472514  0.26051348  1
  O  O399  1  0.61863558  0.25561359  0.75689892  1
  O  O400  1  0.62434121  0.75656675  0.25583304  1
  O  O401  1  0.61183165  0.76072522  0.75095567  1
  O  O402  1  0.37559253  0.24011950  0.25065240  1
  O  O403  1  0.38073244  0.24436460  0.74730659  1
  O  O404  1  0.37573111  0.74001059  0.24387766  1
  O  O405  1  0.38690198  0.75708132  0.73972926  1
  O  O406  1  0.87523714  0.24392719  0.23944812  1
  O  O407  1  0.88416599  0.23984742  0.75184833  1
  O  O408  1  0.87177580  0.73952796  0.24361305  1
  O  O409  1  0.88406113  0.74449740  0.74263255  1
  O  O410  1  0.38586712  0.50182982  0.49174127  1
  O  O411  1  0.37934633  0.49475821  0.99168020  1
  O  O412  1  0.38110216  0.99378597  0.49526931  1
  O  O413  1  0.37729458  0.99590479  0.99558451  1
  O  O414  1  0.88172379  0.49365375  0.49221250  1
  O  O415  1  0.88222236  0.50119925  0.99260150  1
  O  O416  1  0.88287665  0.99872177  0.49021708  1
  O  O417  1  0.87871574  0.99583818  0.99126307  1
  O  O418  1  0.11785458  0.00750442  0.00868198  1
  O  O419  1  0.10894310  -0.00209282  0.49143640  1
  O  O420  1  0.12042384  0.50635644  0.00467212  1
  O  O421  1  0.12060868  0.50856615  0.49933335  1
  O  O422  1  0.61828375  0.00555894  0.00484114  1
  O  O423  1  0.61849382  0.00627731  0.50235549  1
  O  O424  1  0.61893587  0.50683124  0.00505960  1
  O  O425  1  0.61666203  0.50602745  0.50064535  1
  O  O426  1  0.37805354  0.37935238  0.11031445  1
  O  O427  1  0.36870548  0.36766893  0.62429033  1
  O  O428  1  0.36546771  0.87182530  0.11883482  1
  O  O429  1  0.36855262  0.86594266  0.62132241  1
  O  O430  1  0.87083719  0.36695314  0.12627888  1
  O  O431  1  0.86682867  0.37315883  0.61856180  1
  O  O432  1  0.86733835  0.87109476  0.11769730  1
  O  O433  1  0.86489805  0.86692148  0.62521705  1
  O  O434  1  0.13229388  0.13123317  0.37656277  1
  O  O435  1  0.12889778  0.13087223  0.88294289  1
  O  O436  1  0.12688135  0.62930023  0.38319819  1
  O  O437  1  0.13505885  0.61802186  0.88836339  1
  O  O438  1  0.62683239  0.13342511  0.38214015  1
  O  O439  1  0.63127703  0.12904068  0.87813855  1
  O  O440  1  0.63163111  0.62965772  0.37881808  1
  O  O441  1  0.63077810  0.62804076  0.88153189  1
