# generated using pymatgen
data_V93Zn93O256
_symmetry_space_group_name_H-M   'P 1'
_cell_length_a   17.04863767
_cell_length_b   17.04930742
_cell_length_c   17.04891540
_cell_angle_alpha   89.98624294
_cell_angle_beta   90.03907180
_cell_angle_gamma   89.93672833
_symmetry_Int_Tables_number   1
_chemical_formula_structural   V93Zn93O256
_chemical_formula_sum   'V93 Zn93 O256'
_cell_volume   4955.56070097
_cell_formula_units_Z   1
loop_
 _symmetry_equiv_pos_site_id
 _symmetry_equiv_pos_as_xyz
  1  'x, y, z'
loop_
 _atom_site_type_symbol
 _atom_site_label
 _atom_site_symmetry_multiplicity
 _atom_site_fract_x
 _atom_site_fract_y
 _atom_site_fract_z
 _atom_site_occupancy
  V  V0  1  0.50495274  0.36792323  0.87676007  1
  V  V1  1  0.74946653  0.75002915  -0.00120903  1
  V  V2  1  -0.00137636  0.25023277  0.25032229  1
  V  V3  1  0.74953323  0.75067087  0.49897001  1
  V  V4  1  0.24819076  0.00610563  0.25689330  1
  V  V5  1  0.62313317  0.00637140  0.12248666  1
  V  V6  1  0.49801726  0.50072695  -0.00123415  1
  V  V7  1  0.62370553  0.50261040  0.12591456  1
  V  V8  1  0.00215791  0.12497622  0.62468677  1
  V  V9  1  0.75019230  0.62446993  0.87569795  1
  V  V10  1  0.12573413  0.62498453  -0.00070953  1
  V  V11  1  0.37604945  0.12258892  0.75084120  1
  V  V12  1  0.50138662  0.74114656  0.74664067  1
  V  V13  1  0.12905641  0.49927690  0.62639852  1
  V  V14  1  0.25121014  0.24344643  0.49735111  1
  V  V15  1  0.12352476  0.00135735  0.12553045  1
  V  V16  1  0.25142524  0.87257471  0.62568607  1
  V  V17  1  0.38169457  0.37419473  0.49679770  1
  V  V18  1  0.62511867  0.36914706  0.75300718  1
  V  V19  1  0.49938609  -0.00017975  0.00008465  1
  V  V20  1  0.50040026  0.00069674  0.50042362  1
  V  V21  1  0.49994041  0.50433269  0.50098692  1
  V  V22  1  0.61813106  0.37749275  0.25705932  1
  V  V23  1  0.12559843  -0.00069452  0.62491033  1
  V  V24  1  0.87386239  0.00137250  0.37414732  1
  V  V25  1  0.00071555  0.50070118  0.00004249  1
  V  V26  1  0.25598682  0.86883873  0.12423550  1
  V  V27  1  0.25127408  -0.00188743  0.75070102  1
  V  V28  1  0.12881931  0.37532868  0.75083817  1
  V  V29  1  0.49839646  0.25389675  0.25564201  1
  V  V30  1  0.00033222  0.24897980  0.74907207  1
  V  V31  1  0.37149384  0.12682410  0.25675160  1
  V  V32  1  -0.00121336  0.75053568  0.24990079  1
  V  V33  1  0.37427499  0.37611459  0.00138794  1
  V  V34  1  0.25328054  0.37812661  0.63032475  1
  V  V35  1  0.00132073  0.62374288  0.62496126  1
  V  V36  1  0.74850674  0.50153474  0.25030740  1
  V  V37  1  0.25117733  0.61636510  0.87116454  1
  V  V38  1  0.74354070  0.13116841  0.87511262  1
  V  V39  1  0.00075699  0.62525199  0.12404217  1
  V  V40  1  0.75056757  0.87568583  0.62540041  1
  V  V41  1  0.37912029  0.49682191  0.37344040  1
  V  V42  1  0.37522530  0.63188129  0.24678598  1
  V  V43  1  0.62268738  0.62562156  0.50130405  1
  V  V44  1  0.62291728  0.87695952  0.25008639  1
  V  V45  1  0.00108916  0.87398370  0.87540804  1
  V  V46  1  0.12882250  0.24402593  0.37640786  1
  V  V47  1  0.87651865  0.74846102  0.62403357  1
  V  V48  1  0.87601655  0.62409062  0.74893479  1
  V  V49  1  0.37566755  0.87336991  0.50027251  1
  V  V50  1  0.00025704  0.37371339  0.87429093  1
  V  V51  1  0.87495753  0.87506571  0.49991319  1
  V  V52  1  0.12744667  0.37709435  0.24902231  1
  V  V53  1  0.49727227  0.87386410  0.87275557  1
  V  V54  1  0.37894188  0.24876857  0.62730819  1
  V  V55  1  0.62229029  0.50505604  0.62568035  1
  V  V56  1  0.12486093  0.74851361  0.37580698  1
  V  V57  1  0.87565325  0.49935750  0.87425596  1
  V  V58  1  0.87393481  0.75090809  0.12458779  1
  V  V59  1  0.12757143  0.74823501  0.87535535  1
  V  V60  1  0.12606902  0.87276963  0.75103358  1
  V  V61  1  0.00109400  0.00088945  0.50017105  1
  V  V62  1  0.62404169  0.12692072  0.50046936  1
  V  V63  1  -0.00062096  -0.00006375  -0.00020038  1
  V  V64  1  0.74859103  0.87695098  0.12297006  1
  V  V65  1  0.87463704  0.37482041  0.50009233  1
  V  V66  1  0.24946240  0.12272879  0.87635125  1
  V  V67  1  0.74934617  0.12657856  0.37513824  1
  V  V68  1  0.12399932  0.12464037  0.00074564  1
  V  V69  1  0.74923781  0.37706917  0.12544259  1
  V  V70  1  0.87736579  0.24996058  0.62383082  1
  V  V71  1  0.87519676  0.50084052  0.37544925  1
  V  V72  1  0.00109155  0.49943834  0.50047190  1
  V  V73  1  0.62614979  0.87573840  0.74735686  1
  V  V74  1  -0.00082814  0.87522325  0.37453392  1
  V  V75  1  0.87520445  0.87608159  -0.00169297  1
  V  V76  1  0.49404298  0.63387558  0.12341630  1
  V  V77  1  0.74967457  0.49909371  0.74946741  1
  V  V78  1  0.49865868  0.87524102  0.37523036  1
  V  V79  1  0.75070472  0.25103681  0.49963883  1
  V  V80  1  0.12357634  0.87617435  0.24980899  1
  V  V81  1  0.62328195  0.75148056  0.37357819  1
  V  V82  1  0.25004192  0.62426057  0.37584063  1
  V  V83  1  0.87474411  0.37518009  0.00035243  1
  V  V84  1  0.74856680  0.00286160  0.24956546  1
  V  V85  1  0.74892009  0.62675720  0.37432232  1
  V  V86  1  0.62417703  0.62521630  -0.00086019  1
  V  V87  1  0.37898077  0.74285359  0.62372894  1
  V  V88  1  0.24975622  0.24981650  0.00177956  1
  V  V89  1  0.37340205  0.61704566  0.74853143  1
  V  V90  1  0.87431770  0.62580108  0.24961604  1
  V  V91  1  0.87259815  0.24994966  0.12455563  1
  V  V92  1  0.00064355  0.37538445  0.37575579  1
  Zn  Zn93  1  0.50739471  0.24392025  0.75670366  1
  Zn  Zn94  1  0.12699401  0.62515164  0.50121486  1
  Zn  Zn95  1  0.12671027  0.50078282  0.12552492  1
  Zn  Zn96  1  0.37465879  0.24925163  0.12778287  1
  Zn  Zn97  1  0.12330736  0.24846133  0.87553816  1
  Zn  Zn98  1  0.36789474  0.00352193  0.37924546  1
  Zn  Zn99  1  0.87521675  0.12189087  0.75172880  1
  Zn  Zn100  1  0.87348185  0.12652828  0.24896092  1
  Zn  Zn101  1  0.75353099  0.00104083  0.75032608  1
  Zn  Zn102  1  0.49575746  0.75533415  0.24583967  1
  Zn  Zn103  1  0.74998767  0.37462921  0.62529572  1
  Zn  Zn104  1  0.24966166  0.74951358  0.50068817  1
  Zn  Zn105  1  0.61475886  0.14041093  -0.01075168  1
  Zn  Zn106  1  0.00119034  0.74942200  0.74919824  1
  Zn  Zn107  1  0.25904253  0.74329835  0.00394293  1
  Zn  Zn108  1  0.62841743  0.00155610  0.62463379  1
  Zn  Zn109  1  -0.00324780  0.12510037  0.12463432  1
  Zn  Zn110  1  0.37279718  0.49498487  0.86731293  1
  Zn  Zn111  1  0.62540937  0.74889423  0.87361595  1
  Zn  Zn112  1  0.38221362  0.86679879  0.01038613  1
  Zn  Zn113  1  0.87324934  0.00059844  0.87256632  1
  Zn  Zn114  1  0.25162367  0.49926819  0.24694533  1
  Zn  Zn115  1  0.13036944  0.12111046  0.49707924  1
  Zn  Zn116  1  0.73978377  0.25554738  -0.00554201  1
  Zn  Zn117  1  0.50241722  0.12365319  0.62729869  1
  Zn  Zn118  1  0.62099617  0.25749905  0.37864157  1
  Zn  Zn119  1  0.37337504  -0.00269707  0.88068516  1
  Zn  Zn120  1  0.49631956  0.12814533  0.12481762  1
  Zn  Zn121  1  0.24949424  0.37767674  0.12500902  1
  Zn  Zn122  1  0.18648767  0.18810424  0.18648911  1
  Zn  Zn123  1  0.18867740  0.18730899  0.68642833  1
  Zn  Zn124  1  0.18647821  0.68623963  0.19004040  1
  Zn  Zn125  1  0.19106324  0.68673474  0.68952895  1
  Zn  Zn126  1  0.68530831  0.19161931  0.18751407  1
  Zn  Zn127  1  0.69254848  0.18649255  0.68640128  1
  Zn  Zn128  1  0.68422765  0.68965915  0.18630203  1
  Zn  Zn129  1  0.68947217  0.68748235  0.68704661  1
  Zn  Zn130  1  0.31145905  0.31155920  0.31374910  1
  Zn  Zn131  1  0.31440123  0.30919046  0.81613732  1
  Zn  Zn132  1  0.31057342  0.81463017  0.31288991  1
  Zn  Zn133  1  0.31336427  0.80556786  0.81326090  1
  Zn  Zn134  1  0.80971449  0.31335224  0.31229483  1
  Zn  Zn135  1  0.81320338  0.31077097  0.81053131  1
  Zn  Zn136  1  0.81043766  0.81522815  0.31132840  1
  Zn  Zn137  1  0.81383229  0.81115188  0.81239010  1
  Zn  Zn138  1  0.19175166  0.43385562  0.43890455  1
  Zn  Zn139  1  0.18687996  0.43868250  0.93749358  1
  Zn  Zn140  1  0.18676328  0.93379209  0.43917937  1
  Zn  Zn141  1  0.18643037  0.93758565  0.93889809  1
  Zn  Zn142  1  0.68904562  0.43909145  0.43820856  1
  Zn  Zn143  1  0.68652175  0.43767393  0.93798109  1
  Zn  Zn144  1  0.68664489  0.93902491  0.43736567  1
  Zn  Zn145  1  0.68644660  0.94203319  0.93410028  1
  Zn  Zn146  1  0.31380921  0.05957076  0.06891042  1
  Zn  Zn147  1  0.31407551  0.06041286  0.56491487  1
  Zn  Zn148  1  0.31015718  0.55987473  0.06220063  1
  Zn  Zn149  1  0.31315165  0.56224127  0.56172794  1
  Zn  Zn150  1  0.81009420  0.06538124  0.05659859  1
  Zn  Zn151  1  0.81365640  0.06266441  0.56417009  1
  Zn  Zn152  1  0.81312280  0.56249530  0.06197145  1
  Zn  Zn153  1  0.81043361  0.56198998  0.56298546  1
  Zn  Zn154  1  0.43798206  0.44129343  0.18533466  1
  Zn  Zn155  1  0.44430667  0.43521921  0.68565218  1
  Zn  Zn156  1  0.43561956  0.94313106  0.19104854  1
  Zn  Zn157  1  0.43876914  0.93477010  0.68531986  1
  Zn  Zn158  1  0.93895700  0.43747382  0.18740522  1
  Zn  Zn159  1  0.93958392  0.43596981  0.68686166  1
  Zn  Zn160  1  0.93561498  0.93912646  0.18621916  1
  Zn  Zn161  1  0.93842671  0.93777575  0.68912946  1
  Zn  Zn162  1  0.05968793  0.06461725  0.31057109  1
  Zn  Zn163  1  0.06243431  0.06118411  0.81326773  1
  Zn  Zn164  1  0.06234595  0.56252609  0.31229209  1
  Zn  Zn165  1  0.06355431  0.56106845  0.81109056  1
  Zn  Zn166  1  0.55933441  0.06608338  0.31363740  1
  Zn  Zn167  1  0.56329272  0.05957778  0.81267314  1
  Zn  Zn168  1  0.55870985  0.56419121  0.31289795  1
  Zn  Zn169  1  0.56170611  0.55757598  0.81521315  1
  Zn  Zn170  1  0.43792935  0.18762156  0.43493091  1
  Zn  Zn171  1  0.43469879  0.18732405  0.93826619  1
  Zn  Zn172  1  0.43813512  0.68652445  0.43553323  1
  Zn  Zn173  1  0.43422510  0.68970479  0.93483412  1
  Zn  Zn174  1  0.93910129  0.18670262  0.43774571  1
  Zn  Zn175  1  0.93328476  0.18613849  0.93630866  1
  Zn  Zn176  1  0.93904436  0.68627231  0.43870281  1
  Zn  Zn177  1  0.93836814  0.68892375  0.93617976  1
  Zn  Zn178  1  0.06111516  0.31140160  0.06333867  1
  Zn  Zn179  1  0.06399278  0.31215932  0.56174678  1
  Zn  Zn180  1  0.06605128  0.81193013  0.06154690  1
  Zn  Zn181  1  0.06349588  0.81140736  0.56163525  1
  Zn  Zn182  1  0.56013054  0.31331405  0.06984545  1
  Zn  Zn183  1  0.56418325  0.31562382  0.56569430  1
  Zn  Zn184  1  0.56532092  0.81371785  0.06062291  1
  Zn  Zn185  1  0.56189641  0.81169354  0.56296460  1
  O  O186  1  0.12230965  0.11909374  0.11835773  1
  O  O187  1  0.12105061  0.11711839  0.62319161  1
  O  O188  1  0.11741419  0.62546242  0.11915130  1
  O  O189  1  0.12357876  0.61390885  0.62574931  1
  O  O190  1  0.62299117  0.11183619  0.12627167  1
  O  O191  1  0.62334850  0.12491089  0.61256785  1
  O  O192  1  0.61633603  0.62090532  0.11967132  1
  O  O193  1  0.63144740  0.61310537  0.61834828  1
  O  O194  1  0.36616482  0.38550985  0.38702327  1
  O  O195  1  0.38227771  0.37598189  0.88333987  1
  O  O196  1  0.38088617  0.87640312  0.38228844  1
  O  O197  1  0.38970139  0.87705107  0.86772020  1
  O  O198  1  0.88029792  0.38169887  0.37946036  1
  O  O199  1  0.88043953  0.38053052  0.87943031  1
  O  O200  1  0.87947383  0.88062831  0.38009459  1
  O  O201  1  0.88255915  0.87338241  0.88216241  1
  O  O202  1  0.24771373  -0.00690925  0.36104827  1
  O  O203  1  0.25295210  0.00383459  0.86901845  1
  O  O204  1  0.26034421  0.50794489  0.37600443  1
  O  O205  1  0.25166959  0.51171852  0.87565636  1
  O  O206  1  0.75445909  0.00549589  0.36996255  1
  O  O207  1  0.75197415  0.01122411  0.87195352  1
  O  O208  1  0.75582183  0.50779862  0.37013431  1
  O  O209  1  0.75652652  0.50527818  0.86980813  1
  O  O210  1  0.24400650  0.49552638  0.12929805  1
  O  O211  1  0.24299328  0.48729427  0.61761192  1
  O  O212  1  0.24245914  0.99108053  0.13623213  1
  O  O213  1  0.24567067  0.99256747  0.63077596  1
  O  O214  1  0.74454507  0.49786479  0.13150204  1
  O  O215  1  0.74102088  0.49745658  0.63062101  1
  O  O216  1  0.74164248  0.99634895  0.12775735  1
  O  O217  1  0.74822026  0.99067140  0.62675823  1
  O  O218  1  0.00752425  0.37046021  0.25681597  1
  O  O219  1  0.00951865  0.36927087  0.75403141  1
  O  O220  1  0.00323374  0.87026262  0.25500449  1
  O  O221  1  0.00883422  0.87244234  0.75654291  1
  O  O222  1  0.50887422  0.36984515  0.24369465  1
  O  O223  1  0.50769775  0.37296025  0.75939762  1
  O  O224  1  0.50458759  0.87602423  0.25631428  1
  O  O225  1  0.50738354  0.86610122  0.75368579  1
  O  O226  1  0.49126755  0.13330176  0.24881075  1
  O  O227  1  0.49111399  0.12587784  0.74856162  1
  O  O228  1  0.49216576  0.62699896  0.24103854  1
  O  O229  1  0.49357695  0.63581590  0.75824436  1
  O  O230  1  0.99465492  0.13462320  0.24624502  1
  O  O231  1  1.00208963  0.13195070  0.74294090  1
  O  O232  1  0.99357886  0.63086337  0.24541841  1
  O  O233  1  0.99362882  0.62434699  0.74249498  1
  O  O234  1  0.36655124  0.25819361  0.00140625  1
  O  O235  1  0.37129861  0.25606556  0.50569074  1
  O  O236  1  0.37062433  0.75668694  -0.00410948  1
  O  O237  1  0.37697236  0.75333969  0.50915404  1
  O  O238  1  0.87272441  0.25815076  0.01040864  1
  O  O239  1  0.87133782  0.25607599  0.50382745  1
  O  O240  1  0.86932173  0.75496415  0.00600062  1
  O  O241  1  0.86942300  0.75501208  0.50349529  1
  O  O242  1  0.13483753  0.25129150  0.49347107  1
  O  O243  1  0.13351932  0.24511490  0.99890197  1
  O  O244  1  0.12818267  0.74633432  0.49190061  1
  O  O245  1  0.12929489  0.74208182  0.99270102  1
  O  O246  1  0.62865287  0.24437856  0.49960343  1
  O  O247  1  0.62841477  0.24963356  1.01137568  1
  O  O248  1  0.62976414  0.74550994  0.49459503  1
  O  O249  1  0.63230027  0.74332589  0.99746698  1
  O  O250  1  0.49523319  0.24778932  0.14035877  1
  O  O251  1  0.48649361  0.25010308  0.62652615  1
  O  O252  1  0.50482198  0.73763269  0.12516130  1
  O  O253  1  0.48981546  0.75382078  0.63449302  1
  O  O254  1  0.98793117  0.25133072  0.13097897  1
  O  O255  1  0.99750677  0.24519670  0.62849476  1
  O  O256  1  0.99382109  0.74584295  0.13034568  1
  O  O257  1  0.99429154  0.74194999  0.62458338  1
  O  O258  1  0.00772950  0.25713640  0.37152916  1
  O  O259  1  0.00106029  0.25699072  0.86876703  1
  O  O260  1  0.00339705  0.75521588  0.36928201  1
  O  O261  1  0.00904720  0.75537463  0.87317426  1
  O  O262  1  0.50194028  0.24960444  0.36141291  1
  O  O263  1  0.49615190  0.26318627  0.87520472  1
  O  O264  1  0.50683802  0.75715534  0.37392651  1
  O  O265  1  0.50305620  0.75809395  0.86393105  1
  O  O266  1  0.25104045  0.13923486  0.50698946  1
  O  O267  1  0.24686165  0.13038268  0.99698945  1
  O  O268  1  0.25034343  0.62635853  0.48713831  1
  O  O269  1  0.24383478  0.62423834  0.99071532  1
  O  O270  1  0.74188390  0.13004983  0.49597930  1
  O  O271  1  0.74445057  0.12726262  0.98575197  1
  O  O272  1  0.74411164  0.63079643  0.49333583  1
  O  O273  1  0.74514329  0.62949006  0.99552071  1
  O  O274  1  0.25741707  0.36672280  -0.00339878  1
  O  O275  1  0.26118204  0.36600837  0.51070738  1
  O  O276  1  0.24906252  0.87870343  0.01803669  1
  O  O277  1  0.25801490  0.87242507  0.50706412  1
  O  O278  1  0.75728212  0.37774986  0.00715379  1
  O  O279  1  0.75684534  0.36953816  0.50022997  1
  O  O280  1  0.75358684  0.87039594  0.00390201  1
  O  O281  1  0.75517582  0.86959175  0.50388202  1
  O  O282  1  0.12539173  0.48782187  0.25187912  1
  O  O283  1  0.12010675  0.48668634  0.73763730  1
  O  O284  1  0.12933145  0.99640978  0.24630537  1
  O  O285  1  0.13193315  0.99283539  0.74456166  1
  O  O286  1  0.62812113  0.49690003  0.24655583  1
  O  O287  1  0.62844792  0.49424407  0.74200125  1
  O  O288  1  0.62803776  0.99629826  0.24276915  1
  O  O289  1  0.62347971  0.98534569  0.74481131  1
  O  O290  1  0.36548279  0.00911769  0.25433605  1
  O  O291  1  0.37063342  0.00949119  0.74676511  1
  O  O292  1  0.37565022  0.50732515  0.26015471  1
  O  O293  1  0.38567214  0.51329337  0.74627007  1
  O  O294  1  0.86672480  0.00133036  0.25578092  1
  O  O295  1  0.87264398  0.00247557  0.75297793  1
  O  O296  1  0.86948061  0.50605149  0.25554438  1
  O  O297  1  0.87050977  0.50364348  0.75443441  1
  O  O298  1  0.12071205  0.36726973  0.36905689  1
  O  O299  1  0.12077083  0.37506066  0.86464060  1
  O  O300  1  0.11803866  0.86886587  0.36928076  1
  O  O301  1  0.12211738  0.86816200  0.87082359  1
  O  O302  1  0.62900030  0.37830272  0.36108142  1
  O  O303  1  0.61672818  0.38214880  0.86455677  1
  O  O304  1  0.61966170  0.87112978  0.37000476  1
  O  O305  1  0.61525218  0.87332449  0.86448901  1
  O  O306  1  0.37635573  0.12689886  0.13949054  1
  O  O307  1  0.37550882  0.13313741  0.63379421  1
  O  O308  1  0.38337392  0.61715412  0.13499398  1
  O  O309  1  0.36802259  0.63487319  0.63229248  1
  O  O310  1  0.87285060  0.13795465  0.12526315  1
  O  O311  1  0.88401651  0.13261512  0.62473339  1
  O  O312  1  0.87968137  0.63140230  0.13029775  1
  O  O313  1  0.88032728  0.62835280  0.62894123  1
  O  O314  1  0.25113632  0.25354695  0.11199140  1
  O  O315  1  0.26028061  0.25811041  0.61840016  1
  O  O316  1  0.24244011  0.76622819  0.12767057  1
  O  O317  1  0.26112206  0.75504240  0.62436884  1
  O  O318  1  0.76000393  0.25915888  0.12814952  1
  O  O319  1  0.75884419  0.25250171  0.61663148  1
  O  O320  1  0.75427099  0.75629631  0.11935604  1
  O  O321  1  0.75667679  0.75433130  0.61754549  1
  O  O322  1  0.24049336  0.25761464  0.38699078  1
  O  O323  1  0.24859756  0.24248286  0.88645151  1
  O  O324  1  0.24423401  0.74026641  0.37488329  1
  O  O325  1  0.24304519  0.73784455  0.87562695  1
  O  O326  1  0.74714413  0.24451627  0.38195862  1
  O  O327  1  0.75509540  0.23643513  0.87536630  1
  O  O328  1  0.74415489  0.74622305  0.37967193  1
  O  O329  1  0.74908059  0.74209387  0.88115022  1
  O  O330  1  0.00600052  0.11883879  0.00093186  1
  O  O331  1  0.00403598  0.11784088  0.50602612  1
  O  O332  1  0.00468656  0.62037492  0.00423780  1
  O  O333  1  0.00319053  0.61675688  0.50630434  1
  O  O334  1  0.49864016  0.11363031  0.00117980  1
  O  O335  1  0.50690233  0.11820903  0.49993151  1
  O  O336  1  0.50325138  0.62104508  0.00490376  1
  O  O337  1  0.50634993  0.61327970  0.49596374  1
  O  O338  1  0.48797645  0.38346665  0.50418159  1
  O  O339  1  0.49262151  0.37954424  0.99532325  1
  O  O340  1  0.49623659  0.88243234  0.49596091  1
  O  O341  1  0.50277579  0.88138100  0.98976683  1
  O  O342  1  0.99510112  0.38031766  0.49501145  1
  O  O343  1  0.99528707  0.38033854  0.99393473  1
  O  O344  1  0.99452265  0.88052169  0.49405501  1
  O  O345  1  0.99561362  0.87919650  0.99556661  1
  O  O346  1  0.48804985  0.50326078  0.38504936  1
  O  O347  1  0.49693793  0.48799365  0.88222383  1
  O  O348  1  0.49937031  0.99434740  0.38707478  1
  O  O349  1  0.49955400  0.99142100  0.88358904  1
  O  O350  1  0.99432806  0.49587029  0.38050369  1
  O  O351  1  0.99456641  0.49404804  0.87940002  1
  O  O352  1  0.99475457  0.99440897  0.37941537  1
  O  O353  1  1.00099054  0.99113512  0.88297558  1
  O  O354  1  0.00585373  0.00075983  0.11885507  1
  O  O355  1  0.00669102  0.00382104  0.61886902  1
  O  O356  1  0.00013813  0.50782030  0.11828490  1
  O  O357  1  0.00946980  0.50329604  0.61965346  1
  O  O358  1  0.50792417  -0.00195038  0.11685651  1
  O  O359  1  0.50229651  0.00035996  0.61121323  1
  O  O360  1  0.50511650  0.51121250  0.11837039  1
  O  O361  1  0.51077847  0.49679541  0.61303828  1
  O  O362  1  0.23927962  0.37511062  0.24952627  1
  O  O363  1  0.24360456  0.36662048  0.73992855  1
  O  O364  1  0.24335644  0.88258154  0.24242119  1
  O  O365  1  0.24656607  0.87837278  0.74571509  1
  O  O366  1  0.74175050  0.38343235  0.24523508  1
  O  O367  1  0.74149240  0.38177594  0.75052384  1
  O  O368  1  0.74331722  0.88272138  0.24338648  1
  O  O369  1  0.73957134  0.87117508  0.74490968  1
  O  O370  1  0.25599086  0.11570516  0.24461840  1
  O  O371  1  0.25714013  0.11929632  0.75476034  1
  O  O372  1  0.25729554  0.62279144  0.25919473  1
  O  O373  1  0.26184078  0.62798358  0.75893864  1
  O  O374  1  0.74879500  0.11993186  0.25697245  1
  O  O375  1  0.75165074  0.12338766  0.76035798  1
  O  O376  1  0.75426328  0.62158940  0.25439268  1
  O  O377  1  0.75617308  0.61897036  0.75528933  1
  O  O378  1  0.37581154  0.12314409  0.36235525  1
  O  O379  1  0.36937071  0.12224031  0.86494067  1
  O  O380  1  0.36874649  0.61700363  0.36828485  1
  O  O381  1  0.36775942  0.62163471  0.86549140  1
  O  O382  1  0.86760963  0.11861976  0.37480095  1
  O  O383  1  0.86304648  0.12135949  0.87318909  1
  O  O384  1  0.86928581  0.62107870  0.36931170  1
  O  O385  1  0.87065295  0.61881768  0.86951274  1
  O  O386  1  0.12326123  0.37487748  0.13809450  1
  O  O387  1  0.13374583  0.37937279  0.63114281  1
  O  O388  1  0.13143975  0.88156749  0.13194489  1
  O  O389  1  0.13088574  0.87900495  0.63046120  1
  O  O390  1  0.62980858  0.38528564  0.13590439  1
  O  O391  1  0.62664316  0.38780694  0.63295947  1
  O  O392  1  0.62950122  0.88509044  0.12935074  1
  O  O393  1  0.63162238  0.87296581  0.63251268  1
  O  O394  1  0.12087301  0.25734930  0.25776610  1
  O  O395  1  0.12085657  0.26065796  0.74975837  1
  O  O396  1  0.11712691  0.75539021  0.25617127  1
  O  O397  1  0.12443335  0.75534277  0.75621022  1
  O  O398  1  0.61694879  0.26082434  0.25148895  1
  O  O399  1  0.62372511  0.26582244  0.73771261  1
  O  O400  1  0.62306179  0.75887085  0.25588354  1
  O  O401  1  0.61723612  0.75625372  0.74851712  1
  O  O402  1  0.37958442  0.24531404  0.25105747  1
  O  O403  1  0.37420627  0.23938439  0.74242479  1
  O  O404  1  0.37663944  0.73566370  0.25672543  1
  O  O405  1  0.38328978  0.74060116  0.74224455  1
  O  O406  1  0.87978831  0.25275813  0.24120961  1
  O  O407  1  0.88418871  0.25045706  0.74083553  1
  O  O408  1  0.87847470  0.74589426  0.24469550  1
  O  O409  1  0.87683509  0.74219456  0.74170794  1
  O  O410  1  0.38203150  0.49403413  0.49571789  1
  O  O411  1  0.37989483  0.49003814  0.99714292  1
  O  O412  1  0.38298809  0.99442845  0.49950021  1
  O  O413  1  0.38691116  0.99202775  1.00224342  1
  O  O414  1  0.88000649  0.49562779  0.49443605  1
  O  O415  1  0.88101689  0.49538716  0.99406298  1
  O  O416  1  0.88086878  0.99399648  0.49423754  1
  O  O417  1  0.88178241  0.99184439  1.00066326  1
  O  O418  1  0.11938355  0.00530396  0.00612476  1
  O  O419  1  0.11996973  -0.00006145  0.50599640  1
  O  O420  1  0.11681081  0.50639917  0.00054705  1
  O  O421  1  0.12075418  0.49698575  0.51076151  1
  O  O422  1  0.61451685  0.00020449  0.00840944  1
  O  O423  1  0.61746412  0.00887334  0.50079480  1
  O  O424  1  0.61886978  0.50586784  0.00636416  1
  O  O425  1  0.61864318  0.50380228  0.50519799  1
  O  O426  1  0.37399239  0.37484377  0.11167100  1
  O  O427  1  0.37048956  0.36853753  0.62001243  1
  O  O428  1  0.35869477  0.87909289  0.13148750  1
  O  O429  1  0.37090638  0.86406759  0.62106368  1
  O  O430  1  0.86991354  0.37018889  0.12089472  1
  O  O431  1  0.87503683  0.36936337  0.61736078  1
  O  O432  1  0.86808965  0.86965932  0.11951371  1
  O  O433  1  0.87130883  0.86821260  0.61840817  1
  O  O434  1  0.11970348  0.14059463  0.37682061  1
  O  O435  1  0.13242248  0.12588394  0.88210328  1
  O  O436  1  0.13457734  0.62856109  0.37447759  1
  O  O437  1  0.13188630  0.62741151  0.87740121  1
  O  O438  1  0.62991464  0.12693093  0.38707544  1
  O  O439  1  0.63778703  0.12221419  0.87241948  1
  O  O440  1  0.62996974  0.63068317  0.37989382  1
  O  O441  1  0.63209494  0.62384166  0.88145282  1
