# generated using pymatgen
data_V93Zn93O256
_symmetry_space_group_name_H-M   'P 1'
_cell_length_a   17.05369965
_cell_length_b   17.05714609
_cell_length_c   17.05120130
_cell_angle_alpha   90.01394895
_cell_angle_beta   90.01188585
_cell_angle_gamma   89.95447687
_symmetry_Int_Tables_number   1
_chemical_formula_structural   V93Zn93O256
_chemical_formula_sum   'V93 Zn93 O256'
_cell_volume   4959.97858204
_cell_formula_units_Z   1
loop_
 _symmetry_equiv_pos_site_id
 _symmetry_equiv_pos_as_xyz
  1  'x, y, z'
loop_
 _atom_site_type_symbol
 _atom_site_label
 _atom_site_symmetry_multiplicity
 _atom_site_fract_x
 _atom_site_fract_y
 _atom_site_fract_z
 _atom_site_occupancy
  V  V0  1  0.12820708  0.74882901  0.37534380  1
  V  V1  1  0.00020246  0.74880059  0.74977052  1
  V  V2  1  0.12015023  0.62652082  0.00422327  1
  V  V3  1  0.62792081  0.37820803  0.25115620  1
  V  V4  1  0.87478457  0.37529158  0.00059091  1
  V  V5  1  0.24992054  0.25040751  0.00014818  1
  V  V6  1  0.87616713  0.74859019  0.62431940  1
  V  V7  1  0.37593804  0.37626697  0.49961312  1
  V  V8  1  -0.00168788  0.24787501  0.74315687  1
  V  V9  1  0.50029794  0.12505852  0.62634036  1
  V  V10  1  -0.00109859  0.37353198  0.87470470  1
  V  V11  1  0.62659922  -0.00121295  0.62636352  1
  V  V12  1  0.62244456  0.75110241  0.37360956  1
  V  V13  1  0.75022882  0.37779766  0.12788237  1
  V  V14  1  0.87361598  0.62251357  0.24703228  1
  V  V15  1  0.87840438  0.11683109  0.74631745  1
  V  V16  1  0.49987025  0.87553365  0.87571029  1
  V  V17  1  0.25025451  0.00103636  0.24999372  1
  V  V18  1  0.62490342  0.74923583  0.87583676  1
  V  V19  1  0.24914552  0.49933722  0.75074236  1
  V  V20  1  0.12075411  0.12547783  0.50322210  1
  V  V21  1  0.87529730  0.88100753  -0.00326138  1
  V  V22  1  -0.00348817  0.88051258  0.87488848  1
  V  V23  1  0.12385968  0.24903706  0.87334198  1
  V  V24  1  0.37320995  0.87414801  0.50282099  1
  V  V25  1  0.75152084  0.87588493  0.12429985  1
  V  V26  1  0.87381051  0.50077402  0.37135287  1
  V  V27  1  0.87461041  0.00005002  0.37503369  1
  V  V28  1  0.87523830  0.87511191  0.50007115  1
  V  V29  1  0.62627237  0.12461973  0.50149363  1
  V  V30  1  -0.00153468  0.50304503  0.00067311  1
  V  V31  1  0.62497497  0.00099033  0.12569802  1
  V  V32  1  0.37528436  0.24890277  0.62573797  1
  V  V33  1  -0.00092420  0.62479067  0.62479150  1
  V  V34  1  0.37425523  0.00299413  0.37493871  1
  V  V35  1  0.62608953  0.37450073  0.75027699  1
  V  V36  1  0.62606627  0.87431415  0.24964993  1
  V  V37  1  0.75512126  0.11845316  0.87520609  1
  V  V38  1  0.24864590  0.62399579  0.87566995  1
  V  V39  1  0.75066908  0.37382462  0.62456006  1
  V  V40  1  0.49845187  0.50042634  0.00377070  1
  V  V41  1  0.49992590  0.37445880  0.87608110  1
  V  V42  1  -0.00062112  0.87576284  0.37428645  1
  V  V43  1  0.75029538  0.74999049  0.49954189  1
  V  V44  1  -0.00022164  0.12559824  0.12438701  1
  V  V45  1  0.25574727  0.87309543  0.12322357  1
  V  V46  1  0.62486279  0.50043482  0.62455681  1
  V  V47  1  0.87551201  0.25085896  0.12546885  1
  V  V48  1  0.25634327  0.74913424  0.00380772  1
  V  V49  1  0.25021026  0.12429260  0.87580189  1
  V  V50  1  0.49922777  0.37749971  0.37625694  1
  V  V51  1  0.24946809  0.24970105  0.50020040  1
  V  V52  1  -0.00062629  0.37554063  0.37442866  1
  V  V53  1  0.62175290  0.62496000  0.00439343  1
  V  V54  1  -0.00035057  0.50000370  0.49981037  1
  V  V55  1  0.50008310  0.00003359  0.50011767  1
  V  V56  1  0.74969385  0.87401991  0.62593057  1
  V  V57  1  0.62788514  0.24777117  0.87623287  1
  V  V58  1  0.24893382  -0.00150417  0.74973589  1
  V  V59  1  0.62557351  0.25069556  0.37509116  1
  V  V60  1  0.62533175  0.87417525  0.75007765  1
  V  V61  1  0.62215472  0.62406694  0.50091582  1
  V  V62  1  0.12224056  0.00110516  0.62531469  1
  V  V63  1  0.12561642  0.62605494  0.49798514  1
  V  V64  1  0.49442969  0.74541058  0.23628590  1
  V  V65  1  0.12319080  0.00101926  0.12406205  1
  V  V66  1  0.12314894  0.75037012  0.87508465  1
  V  V67  1  0.87412255  0.37483785  0.49940640  1
  V  V68  1  0.00015774  0.74641423  0.24541738  1
  V  V69  1  0.37521390  0.62437261  0.74979018  1
  V  V70  1  0.75064593  0.12442221  0.37542442  1
  V  V71  1  0.12492400  0.50004425  0.62527249  1
  V  V72  1  0.75066794  0.49881011  0.75075846  1
  V  V73  1  -0.00032313  0.25011662  0.24964752  1
  V  V74  1  0.74942840  0.61988183  0.36985754  1
  V  V75  1  0.75076727  0.25024889  0.50101655  1
  V  V76  1  0.25081851  0.37426233  0.12397257  1
  V  V77  1  0.75054668  0.00050464  0.25083955  1
  V  V78  1  -0.00002027  0.00228369  0.50214111  1
  V  V79  1  0.62531111  0.50200983  0.12854990  1
  V  V80  1  0.25067728  0.37530319  0.62638857  1
  V  V81  1  0.49840700  0.74828323  0.75088985  1
  V  V82  1  0.12404191  0.12417117  -0.00026894  1
  V  V83  1  0.87685225  0.74728964  0.12368451  1
  V  V84  1  0.37545574  0.12436692  0.75000696  1
  V  V85  1  0.75096506  0.62311650  0.87473949  1
  V  V86  1  0.50014803  0.00014293  0.00050484  1
  V  V87  1  0.12414286  0.87546066  0.24859416  1
  V  V88  1  0.12466942  0.37651820  0.24964893  1
  V  V89  1  0.12251644  0.50205048  0.12513469  1
  V  V90  1  0.49916354  0.12678295  0.12659769  1
  V  V91  1  0.37546874  -0.00099185  0.87607090  1
  V  V92  1  0.12526886  0.25079290  0.37601745  1
  Zn  Zn93  1  0.37349503  0.62423962  0.24107561  1
  Zn  Zn94  1  0.12545331  0.87409708  0.74947804  1
  Zn  Zn95  1  0.25178444  0.74863128  0.50298039  1
  Zn  Zn96  1  0.75058503  0.74963851  -0.00006185  1
  Zn  Zn97  1  0.87878301  0.24622520  0.62224177  1
  Zn  Zn98  1  0.49983586  0.24937078  0.75099551  1
  Zn  Zn99  1  0.24969544  0.12728615  0.37325147  1
  Zn  Zn100  1  0.49865111  0.62455209  0.62596835  1
  Zn  Zn101  1  0.62814559  0.12460108  0.00037661  1
  Zn  Zn102  1  0.25537156  0.62165666  0.37376696  1
  Zn  Zn103  1  0.37457900  0.37408389  0.00025350  1
  Zn  Zn104  1  0.49943212  0.87621245  0.37353676  1
  Zn  Zn105  1  0.87533331  0.12486264  0.24963777  1
  Zn  Zn106  1  0.37769548  0.87116015  0.00269509  1
  Zn  Zn107  1  0.87505563  0.62286067  0.74947779  1
  Zn  Zn108  1  -0.00298199  0.00309983  -0.00427582  1
  Zn  Zn109  1  0.75510958  -0.00498307  0.75491672  1
  Zn  Zn110  1  0.24923853  0.87155314  0.62762958  1
  Zn  Zn111  1  0.37338900  0.12910928  0.25033033  1
  Zn  Zn112  1  0.37251448  0.49752964  0.87713734  1
  Zn  Zn113  1  0.12381513  0.37409602  0.74965972  1
  Zn  Zn114  1  0.75190046  0.24811638  0.00069784  1
  Zn  Zn115  1  0.37295562  0.50460837  0.37309295  1
  Zn  Zn116  1  0.37388049  0.74964582  0.62435944  1
  Zn  Zn117  1  0.49665688  0.50127954  0.50219962  1
  Zn  Zn118  1  0.49734504  0.25078622  0.24930837  1
  Zn  Zn119  1  0.25497849  0.50308147  0.25091381  1
  Zn  Zn120  1  0.37616919  0.25054290  0.12612633  1
  Zn  Zn121  1  0.87513442  0.49900669  0.87376146  1
  Zn  Zn122  1  0.18721804  0.18763711  0.18844480  1
  Zn  Zn123  1  0.18714499  0.18580887  0.68721498  1
  Zn  Zn124  1  0.19433018  0.68606098  0.18631729  1
  Zn  Zn125  1  0.18851038  0.68855180  0.68589617  1
  Zn  Zn126  1  0.68653810  0.18933633  0.18903326  1
  Zn  Zn127  1  0.69084147  0.18689847  0.69012962  1
  Zn  Zn128  1  0.68831783  0.68925350  0.18710043  1
  Zn  Zn129  1  0.68750573  0.68776506  0.68834752  1
  Zn  Zn130  1  0.31331569  0.31361352  0.31005895  1
  Zn  Zn131  1  0.31297691  0.31162742  0.81234994  1
  Zn  Zn132  1  0.31378580  0.81649974  0.31252960  1
  Zn  Zn133  1  0.31126953  0.81221265  0.81470562  1
  Zn  Zn134  1  0.81177320  0.31226507  0.31151811  1
  Zn  Zn135  1  0.81470573  0.30872508  0.81228298  1
  Zn  Zn136  1  0.81156698  0.81138825  0.31216028  1
  Zn  Zn137  1  0.81357456  0.80908294  0.81237068  1
  Zn  Zn138  1  0.18943066  0.43844981  0.43741224  1
  Zn  Zn139  1  0.18482136  0.43639846  0.93654874  1
  Zn  Zn140  1  0.18921277  0.93675409  0.43740151  1
  Zn  Zn141  1  0.18532383  0.93623822  0.93756041  1
  Zn  Zn142  1  0.68761947  0.43899018  0.43789981  1
  Zn  Zn143  1  0.68759028  0.43681907  0.94001654  1
  Zn  Zn144  1  0.68814567  0.93723680  0.43829891  1
  Zn  Zn145  1  0.68732356  0.93766002  0.93935660  1
  Zn  Zn146  1  0.31370668  0.06113368  0.06273594  1
  Zn  Zn147  1  0.30890783  0.06214282  0.56276112  1
  Zn  Zn148  1  0.31433726  0.56365189  0.06691496  1
  Zn  Zn149  1  0.31055710  0.56240446  0.55992839  1
  Zn  Zn150  1  0.81237855  0.06430646  0.06257665  1
  Zn  Zn151  1  0.81268022  0.06164414  0.56547909  1
  Zn  Zn152  1  0.80948774  0.56172347  0.06293632  1
  Zn  Zn153  1  0.81135425  0.56156316  0.56078921  1
  Zn  Zn154  1  0.43806884  0.44014753  0.18894176  1
  Zn  Zn155  1  0.43830597  0.43901122  0.68775394  1
  Zn  Zn156  1  0.43958479  0.93631943  0.19053281  1
  Zn  Zn157  1  0.43822392  0.93772728  0.68811219  1
  Zn  Zn158  1  0.93906114  0.43868893  0.18631902  1
  Zn  Zn159  1  0.93592443  0.43618185  0.68817107  1
  Zn  Zn160  1  0.93708658  0.93745283  0.18598151  1
  Zn  Zn161  1  0.94065482  0.93580950  0.68656548  1
  Zn  Zn162  1  0.06311055  0.06425180  0.31338028  1
  Zn  Zn163  1  0.06186298  0.06312520  0.81103952  1
  Zn  Zn164  1  0.06137424  0.56404748  0.31123256  1
  Zn  Zn165  1  0.06272610  0.56282496  0.81305413  1
  Zn  Zn166  1  0.56213405  0.06307250  0.31221705  1
  Zn  Zn167  1  0.56421693  0.06164325  0.81210102  1
  Zn  Zn168  1  0.55804424  0.56338152  0.31056852  1
  Zn  Zn169  1  0.56333346  0.56085252  0.81462589  1
  Zn  Zn170  1  0.43889646  0.18937637  0.43855696  1
  Zn  Zn171  1  0.43698114  0.18756268  0.94136464  1
  Zn  Zn172  1  0.43557869  0.68823000  0.43127324  1
  Zn  Zn173  1  0.43732895  0.68461051  0.93711273  1
  Zn  Zn174  1  0.93779713  0.18724913  0.43694150  1
  Zn  Zn175  1  0.93604038  0.18792611  0.93504610  1
  Zn  Zn176  1  0.93917238  0.68766022  0.43552241  1
  Zn  Zn177  1  0.93707016  0.69019289  0.93678886  1
  Zn  Zn178  1  0.06268977  0.31278903  0.06107562  1
  Zn  Zn179  1  0.06356110  0.31472992  0.56282147  1
  Zn  Zn180  1  0.06285533  0.81424681  0.06161346  1
  Zn  Zn181  1  0.06301214  0.81466517  0.56265020  1
  Zn  Zn182  1  0.56408483  0.31181804  0.06137828  1
  Zn  Zn183  1  0.56236814  0.31172036  0.56277336  1
  Zn  Zn184  1  0.56402537  0.81437724  0.06109677  1
  Zn  Zn185  1  0.55815639  0.81147026  0.56387540  1
  O  O186  1  0.11925392  0.12099686  0.11907839  1
  O  O187  1  0.12990585  0.11486848  0.61346247  1
  O  O188  1  0.12981501  0.61557061  0.11302916  1
  O  O189  1  0.11824500  0.61974530  0.61817618  1
  O  O190  1  0.61763049  0.11932936  0.12447688  1
  O  O191  1  0.62156891  0.11966394  0.62086198  1
  O  O192  1  0.63599266  0.61456445  0.11516472  1
  O  O193  1  0.62750087  0.62060255  0.61457622  1
  O  O194  1  0.38671895  0.37239802  0.38123130  1
  O  O195  1  0.38759482  0.37543049  0.87643533  1
  O  O196  1  0.37648617  0.88725841  0.38433348  1
  O  O197  1  0.38263119  0.88182542  0.87627334  1
  O  O198  1  0.87914631  0.38090478  0.37865517  1
  O  O199  1  0.88017652  0.37608981  0.88288228  1
  O  O200  1  0.87860820  0.87950289  0.38062286  1
  O  O201  1  0.88350871  0.86476798  0.88610623  1
  O  O202  1  0.25843712  0.00072473  0.36897734  1
  O  O203  1  0.25423327  0.00551543  0.87076093  1
  O  O204  1  0.25176013  0.50051956  0.37002808  1
  O  O205  1  0.24927835  0.50554996  0.86987806  1
  O  O206  1  0.75505194  0.00472226  0.37100659  1
  O  O207  1  0.74257761  0.01306903  0.87234934  1
  O  O208  1  0.75602635  0.51294500  0.37912051  1
  O  O209  1  0.74873056  0.50781911  0.87061333  1
  O  O210  1  0.23593828  0.48953721  0.12124082  1
  O  O211  1  0.24413588  0.49480384  0.63053871  1
  O  O212  1  0.24236862  0.99315683  0.12911979  1
  O  O213  1  0.24006156  0.99839105  0.63153018  1
  O  O214  1  0.73916933  0.48746906  0.12019520  1
  O  O215  1  0.74441666  0.49392103  0.62970236  1
  O  O216  1  0.74536549  0.99572240  0.13130355  1
  O  O217  1  0.74381565  0.99082782  0.62703654  1
  O  O218  1  0.00468790  0.37002015  0.25511461  1
  O  O219  1  0.00014897  0.36610147  0.75652669  1
  O  O220  1  0.00368661  0.86650200  0.25450535  1
  O  O221  1  0.00027185  0.86718508  0.75865973  1
  O  O222  1  0.51145792  0.37333523  0.25847304  1
  O  O223  1  0.50689348  0.37470659  0.76065313  1
  O  O224  1  0.50947000  0.86673369  0.25323146  1
  O  O225  1  0.50556038  0.86895124  0.75619236  1
  O  O226  1  0.49982364  0.12653543  0.23900479  1
  O  O227  1  0.49338744  0.12525001  0.74395853  1
  O  O228  1  0.50404838  0.64343445  0.25175513  1
  O  O229  1  0.49116060  0.62879758  0.75392341  1
  O  O230  1  0.99949405  0.13265993  0.24354763  1
  O  O231  1  0.98564075  0.13276935  0.75811896  1
  O  O232  1  0.98822205  0.63842113  0.25568010  1
  O  O233  1  0.99798526  0.63017075  0.74324595  1
  O  O234  1  0.36541266  0.25301276  0.00422886  1
  O  O235  1  0.36925464  0.25489885  0.50647995  1
  O  O236  1  0.35968319  0.75009296  -0.00676165  1
  O  O237  1  0.37652624  0.76253496  0.49842524  1
  O  O238  1  0.87559633  0.25833411  0.00808513  1
  O  O239  1  0.86961149  0.25618239  0.50077444  1
  O  O240  1  0.87497351  0.75621197  0.01072971  1
  O  O241  1  0.87066574  0.75543848  0.50333414  1
  O  O242  1  0.12819193  0.24349292  0.49681886  1
  O  O243  1  0.12936841  0.24360969  0.99319313  1
  O  O244  1  0.12142356  0.74578127  0.48896232  1
  O  O245  1  0.12899453  0.74167684  0.99636526  1
  O  O246  1  0.63156322  0.24413151  0.49505882  1
  O  O247  1  0.62851988  0.24879241  0.98711232  1
  O  O248  1  0.62985556  0.74349910  0.49280466  1
  O  O249  1  0.62602487  0.74009189  0.99565069  1
  O  O250  1  0.50102192  0.23948073  0.12419145  1
  O  O251  1  0.49392591  0.24296076  0.62697124  1
  O  O252  1  0.50488027  0.75589652  0.13748722  1
  O  O253  1  0.49629948  0.74496300  0.63511757  1
  O  O254  1  0.99585444  0.24620729  0.13032420  1
  O  O255  1  1.00041959  0.25482785  0.63846199  1
  O  O256  1  0.98998738  0.75634152  0.13538511  1
  O  O257  1  0.99566022  0.74483596  0.62897258  1
  O  O258  1  0.00491417  0.25675923  0.37006877  1
  O  O259  1  0.00477735  0.25471416  0.86625550  1
  O  O260  1  0.00623620  0.75658061  0.36582547  1
  O  O261  1  0.00434766  0.75652032  0.86963083  1
  O  O262  1  0.50845641  0.26042537  0.37618459  1
  O  O263  1  0.50875262  0.25812767  0.87579379  1
  O  O264  1  0.51562860  0.75328361  0.37106632  1
  O  O265  1  0.50591477  0.75521961  0.87133709  1
  O  O266  1  0.23926662  0.13164587  0.49755223  1
  O  O267  1  0.24407623  0.12992586  0.99511097  1
  O  O268  1  0.24022700  0.62882089  0.49547966  1
  O  O269  1  0.23936413  0.63153474  0.99509597  1
  O  O270  1  0.74533782  0.12948999  0.49551718  1
  O  O271  1  0.74924558  0.12801200  0.99057787  1
  O  O272  1  0.74205362  0.63070877  0.49061108  1
  O  O273  1  0.73972960  0.62419902  0.99124938  1
  O  O274  1  0.24776595  0.36932899  0.00778403  1
  O  O275  1  0.25530636  0.36861586  0.50736138  1
  O  O276  1  0.24920708  0.86630804  0.00650571  1
  O  O277  1  0.26176065  0.87406881  0.50128731  1
  O  O278  1  0.75554241  0.37313963  0.01040403  1
  O  O279  1  0.75471163  0.36999077  0.50363738  1
  O  O280  1  0.75853369  0.87201516  0.00464786  1
  O  O281  1  0.75561326  0.86908825  0.50542586  1
  O  O282  1  0.11834538  0.49503568  0.23763221  1
  O  O283  1  0.13106831  0.49954363  0.74310163  1
  O  O284  1  0.12959892  0.99430755  0.24560726  1
  O  O285  1  0.12936370  1.00197640  0.74007313  1
  O  O286  1  0.61819887  0.49128208  0.23940361  1
  O  O287  1  0.63112767  0.49423818  0.74497619  1
  O  O288  1  0.63126062  0.99389898  0.24624179  1
  O  O289  1  0.62619547  0.99110774  0.74303784  1
  O  O290  1  0.37002843  -0.00080605  0.26120951  1
  O  O291  1  0.36984938  0.00550773  0.75607203  1
  O  O292  1  0.37416939  0.50298119  0.25384829  1
  O  O293  1  0.36882935  0.50816216  0.75299112  1
  O  O294  1  0.86846690  0.00000616  0.25699287  1
  O  O295  1  0.87694465  0.01292702  0.74667361  1
  O  O296  1  0.88435896  0.51442730  0.25441347  1
  O  O297  1  0.86680717  0.50294103  0.75320790  1
  O  O298  1  0.11766315  0.37025654  0.37060306  1
  O  O299  1  0.11737709  0.36675532  0.87272668  1
  O  O300  1  0.11864389  0.86862878  0.36919634  1
  O  O301  1  0.11439529  0.86731221  0.87523178  1
  O  O302  1  0.62130066  0.37203669  0.36898789  1
  O  O303  1  0.61979926  0.36749296  0.87124265  1
  O  O304  1  0.62856008  0.86490737  0.36993748  1
  O  O305  1  0.62018857  0.86895338  0.87051682  1
  O  O306  1  0.38737583  0.12388112  0.12648076  1
  O  O307  1  0.37994692  0.12887411  0.62955303  1
  O  O308  1  0.36697495  0.63449520  0.12932086  1
  O  O309  1  0.37559563  0.62441458  0.63860636  1
  O  O310  1  0.88128393  0.13257336  0.12678887  1
  O  O311  1  0.86876804  0.12857453  0.64102573  1
  O  O312  1  0.86470804  0.63584680  0.13433853  1
  O  O313  1  0.88081615  0.63110089  0.62297468  1
  O  O314  1  0.24583695  0.26034943  0.11849510  1
  O  O315  1  0.25533350  0.25475295  0.62049961  1
  O  O316  1  0.23916355  0.76292641  0.11418286  1
  O  O317  1  0.25503780  0.75401057  0.62152128  1
  O  O318  1  0.75495335  0.26106507  0.12463349  1
  O  O319  1  0.75006145  0.25701101  0.61781311  1
  O  O320  1  0.76017537  0.75775649  0.12460699  1
  O  O321  1  0.75534028  0.75454111  0.61907375  1
  O  O322  1  0.24250439  0.25187787  0.38236354  1
  O  O323  1  0.24439290  0.24373927  0.87936640  1
  O  O324  1  0.23406986  0.75432254  0.37399330  1
  O  O325  1  0.24199853  0.74475689  0.88399451  1
  O  O326  1  0.74529821  0.24481308  0.38106284  1
  O  O327  1  0.74154451  0.24184382  0.87520762  1
  O  O328  1  0.74160628  0.74172053  0.37906059  1
  O  O329  1  0.74319881  0.73947839  0.87630223  1
  O  O330  1  0.00530574  0.12404425  0.00470831  1
  O  O331  1  0.01215505  0.11914746  0.49452705  1
  O  O332  1  0.00956339  0.61644037  -0.00672353  1
  O  O333  1  0.00430093  0.61902305  0.50442543  1
  O  O334  1  0.50347116  0.11828927  0.00904748  1
  O  O335  1  0.50706354  0.12016054  0.50644031  1
  O  O336  1  0.51312438  0.61407463  -0.00889971  1
  O  O337  1  0.51390895  0.62567237  0.49898874  1
  O  O338  1  0.49583940  0.37495929  0.49185339  1
  O  O339  1  0.50158771  0.38263297  0.99179599  1
  O  O340  1  0.49217390  0.88228384  0.49789024  1
  O  O341  1  0.49830757  0.88093435  0.99392332  1
  O  O342  1  0.99433357  0.38028889  0.49385011  1
  O  O343  1  0.99538207  0.38311460  0.99464583  1
  O  O344  1  0.99369778  0.88117174  0.49366827  1
  O  O345  1  0.99221593  0.87473341  0.99193152  1
  O  O346  1  0.50363615  0.48604974  0.37864287  1
  O  O347  1  0.50373578  0.48858074  0.88517873  1
  O  O348  1  0.49212976  0.99960150  0.38134643  1
  O  O349  1  0.49610464  0.99513355  0.88019468  1
  O  O350  1  0.99437343  0.49475121  0.38023401  1
  O  O351  1  0.99973926  0.49418311  0.88547464  1
  O  O352  1  0.99461043  0.99448588  0.38012944  1
  O  O353  1  1.00439072  0.98459542  0.87485466  1
  O  O354  1  0.00624411  0.00687567  0.12428728  1
  O  O355  1  0.01194310  -0.00505303  0.61708055  1
  O  O356  1  0.01086211  0.49310189  0.11143381  1
  O  O357  1  0.00423577  0.50428733  0.61920857  1
  O  O358  1  0.50555088  0.00613031  0.12148047  1
  O  O359  1  0.50673009  0.00580446  0.61983854  1
  O  O360  1  0.51319361  0.49049407  0.11312656  1
  O  O361  1  0.50967977  0.50390796  0.62291903  1
  O  O362  1  0.24111059  0.37615238  0.23897909  1
  O  O363  1  0.24877312  0.38080820  0.74417704  1
  O  O364  1  0.24372711  0.87962951  0.24152903  1
  O  O365  1  0.24641284  0.88383743  0.75108968  1
  O  O366  1  0.73916028  0.37269288  0.24174919  1
  O  O367  1  0.74538539  0.37885336  0.74528951  1
  O  O368  1  0.74614713  0.88025116  0.24456108  1
  O  O369  1  0.74461242  0.87419179  0.74470701  1
  O  O370  1  0.25156880  0.11652940  0.25223005  1
  O  O371  1  0.25572310  0.11894465  0.75638948  1
  O  O372  1  0.24989672  0.62153222  0.25591491  1
  O  O373  1  0.25656370  0.61979284  0.75580072  1
  O  O374  1  0.75072607  0.11877438  0.25763745  1
  O  O375  1  0.76164585  0.12277316  0.75703688  1
  O  O376  1  0.76005653  0.63290334  0.26113483  1
  O  O377  1  0.74832870  0.61862719  0.76001873  1
  O  O378  1  0.37379526  0.11356996  0.37675612  1
  O  O379  1  0.36999195  0.11950974  0.87046370  1
  O  O380  1  0.37404992  0.62331930  0.36589212  1
  O  O381  1  0.36805153  0.62149582  0.86587992  1
  O  O382  1  0.86850460  0.11780918  0.37421606  1
  O  O383  1  0.86438636  0.13152577  0.86309417  1
  O  O384  1  0.86749938  0.62247517  0.36794566  1
  O  O385  1  0.86164278  0.62405643  0.87611449  1
  O  O386  1  0.13069439  0.38200376  0.12848926  1
  O  O387  1  0.13266533  0.38237744  0.62635227  1
  O  O388  1  0.13127302  0.88158726  0.12969177  1
  O  O389  1  0.12740027  0.88715533  0.62610167  1
  O  O390  1  0.63166692  0.38035394  0.13176593  1
  O  O391  1  0.63068944  0.37971150  0.63000502  1
  O  O392  1  0.63266057  0.88122194  0.12958822  1
  O  O393  1  0.63012886  0.87793388  0.62980438  1
  O  O394  1  0.11914432  0.25655695  0.25600821  1
  O  O395  1  0.11584001  0.24742488  0.75550385  1
  O  O396  1  0.11609339  0.75446575  0.25473615  1
  O  O397  1  0.11805787  0.74969879  0.75708179  1
  O  O398  1  0.62349489  0.26153040  0.25704335  1
  O  O399  1  0.62369648  0.25555243  0.76012397  1
  O  O400  1  0.62008987  0.75442639  0.25657256  1
  O  O401  1  0.61909928  0.75442283  0.75614784  1
  O  O402  1  0.37911128  0.24679203  0.24483926  1
  O  O403  1  0.37634782  0.24203821  0.74368327  1
  O  O404  1  0.39438948  0.75757580  0.25760224  1
  O  O405  1  0.37986384  0.73920708  0.75331686  1
  O  O406  1  0.88203611  0.24963874  0.24386268  1
  O  O407  1  0.88334371  0.24177165  0.74690428  1
  O  O408  1  0.88122079  0.74450497  0.24359343  1
  O  O409  1  0.88140741  0.74598989  0.74159070  1
  O  O410  1  0.37777875  0.49117488  0.49787310  1
  O  O411  1  0.38684453  0.49839253  0.99793104  1
  O  O412  1  0.37919078  0.99512907  0.49387369  1
  O  O413  1  0.38181428  0.99784129  0.99240723  1
  O  O414  1  0.87996948  0.49484674  0.49207240  1
  O  O415  1  0.88443031  0.49599278  1.00144556  1
  O  O416  1  0.87951346  0.99481565  0.49557347  1
  O  O417  1  0.87749647  0.98457348  1.00716825  1
  O  O418  1  0.12283712  0.00721551  0.00608737  1
  O  O419  1  0.12116798  0.00670455  0.50476971  1
  O  O420  1  0.11734125  0.50704122  0.00507914  1
  O  O421  1  0.11802287  0.50504782  0.50547268  1
  O  O422  1  0.61793082  0.00074616  0.00826832  1
  O  O423  1  0.62078030  0.00487229  0.50564112  1
  O  O424  1  0.61870873  0.50579371  0.00779247  1
  O  O425  1  0.62608755  0.51042169  0.50528941  1
  O  O426  1  0.36085918  0.37605619  0.12307334  1
  O  O427  1  0.37088795  0.36907349  0.62067054  1
  O  O428  1  0.35921072  0.88312006  0.12317210  1
  O  O429  1  0.37454994  0.87633615  0.61407672  1
  O  O430  1  0.86741285  0.37235523  0.12255838  1
  O  O431  1  0.86795886  0.37393162  0.61623339  1
  O  O432  1  0.87114161  0.86605504  0.11826955  1
  O  O433  1  0.87037098  0.86880527  0.61893338  1
  O  O434  1  0.12676210  0.13205825  0.38480345  1
  O  O435  1  0.13057661  0.12907007  0.87994486  1
  O  O436  1  0.11999994  0.63637001  0.38018517  1
  O  O437  1  0.12902236  0.62994208  0.88458644  1
  O  O438  1  0.63058961  0.12975144  0.38179425  1
  O  O439  1  0.63281221  0.13382777  0.87349521  1
  O  O440  1  0.63203783  0.63078954  0.38021392  1
  O  O441  1  0.63314103  0.62831905  0.88322232  1
