# generated using pymatgen
data_V93Zn93O256
_symmetry_space_group_name_H-M   'P 1'
_cell_length_a   17.05200057
_cell_length_b   17.05088257
_cell_length_c   17.05015038
_cell_angle_alpha   90.01021155
_cell_angle_beta   90.05155620
_cell_angle_gamma   89.99879882
_symmetry_Int_Tables_number   1
_chemical_formula_structural   V93Zn93O256
_chemical_formula_sum   'V93 Zn93 O256'
_cell_volume   4957.35742708
_cell_formula_units_Z   1
loop_
 _symmetry_equiv_pos_site_id
 _symmetry_equiv_pos_as_xyz
  1  'x, y, z'
loop_
 _atom_site_type_symbol
 _atom_site_label
 _atom_site_symmetry_multiplicity
 _atom_site_fract_x
 _atom_site_fract_y
 _atom_site_fract_z
 _atom_site_occupancy
  V  V0  1  0.12261492  0.11860628  -0.00278654  1
  V  V1  1  0.25096562  0.37508014  0.62604780  1
  V  V2  1  0.50199962  0.62407314  0.62665733  1
  V  V3  1  0.75019119  0.75004065  0.50040781  1
  V  V4  1  0.87561248  0.50016603  0.37436680  1
  V  V5  1  0.50123077  0.49908383  0.50136255  1
  V  V6  1  0.36839554  0.37509228  0.00430812  1
  V  V7  1  0.87868791  0.87683915  0.00019855  1
  V  V8  1  0.62544218  0.37603526  0.25148050  1
  V  V9  1  0.87461806  0.62396733  0.75028920  1
  V  V10  1  0.37628343  0.25035787  0.62572769  1
  V  V11  1  0.50130544  0.37490761  0.37527435  1
  V  V12  1  0.25209412  0.00161150  0.75043983  1
  V  V13  1  0.87493457  0.87465627  0.49932196  1
  V  V14  1  0.62528248  0.12443283  0.49969127  1
  V  V15  1  0.62621831  0.62477965  0.50104219  1
  V  V16  1  0.37599291  0.62420634  0.75195830  1
  V  V17  1  0.00109562  0.74962390  0.74956175  1
  V  V18  1  0.87938094  -0.00004383  0.87843355  1
  V  V19  1  0.24606556  -0.00088898  0.24640727  1
  V  V20  1  0.24989302  0.74992351  0.00086018  1
  V  V21  1  0.49972272  0.87589439  0.87594410  1
  V  V22  1  0.12634148  0.87480510  0.75016551  1
  V  V23  1  0.12424997  0.24980918  0.37286670  1
  V  V24  1  -0.00684740  0.11876147  0.12393591  1
  V  V25  1  0.12532286  0.74933757  0.87545230  1
  V  V26  1  0.50994798  0.25348068  0.75770989  1
  V  V27  1  0.25082015  0.87439703  0.62544032  1
  V  V28  1  0.87546533  0.75051799  0.62405537  1
  V  V29  1  0.50209849  0.12556871  0.62465371  1
  V  V30  1  0.24970825  0.12506477  0.37438974  1
  V  V31  1  0.37592270  0.87502807  0.49968863  1
  V  V32  1  0.37634737  0.74979115  0.62533910  1
  V  V33  1  -0.00079023  0.74904639  0.24955604  1
  V  V34  1  0.37443790  0.12545524  0.24930057  1
  V  V35  1  0.12453898  0.87425363  0.24896884  1
  V  V36  1  0.00148335  0.37371880  0.37284128  1
  V  V37  1  0.74994239  0.00375251  0.24915093  1
  V  V38  1  -0.00108885  0.87600693  0.37430258  1
  V  V39  1  0.12450343  0.00020877  0.62338049  1
  V  V40  1  0.25148684  0.62355277  0.87454334  1
  V  V41  1  0.00070038  0.49914238  0.49946957  1
  V  V42  1  0.37501685  0.87729064  0.00066211  1
  V  V43  1  0.12496786  0.12315103  0.49998616  1
  V  V44  1  0.25047041  0.49465077  0.24709224  1
  V  V45  1  0.62237730  0.74904353  0.37246240  1
  V  V46  1  0.37593847  0.37481453  0.50014880  1
  V  V47  1  0.12555821  0.62488674  0.49925308  1
  V  V48  1  0.24985485  0.74877308  0.49996017  1
  V  V49  1  0.87567378  0.37517376  0.49978437  1
  V  V50  1  0.75095952  0.75162545  0.00127633  1
  V  V51  1  0.12890681  0.49208008  0.12402435  1
  V  V52  1  0.62600191  0.00023999  0.62445418  1
  V  V53  1  0.49954220  0.12347787  0.12436889  1
  V  V54  1  0.74783982  0.13111904  0.87947350  1
  V  V55  1  0.75082295  0.62516946  0.87144042  1
  V  V56  1  0.87092257  0.36770248  -0.00010066  1
  V  V57  1  0.62362986  0.87278172  0.24848601  1
  V  V58  1  0.00001292  0.62407160  0.62479843  1
  V  V59  1  0.74811857  0.36942873  0.12253762  1
  V  V60  1  0.25050738  0.24979955  0.49926276  1
  V  V61  1  0.37509159  -0.00045733  0.37521000  1
  V  V62  1  0.87517619  0.62574658  0.24806937  1
  V  V63  1  -0.00815829  0.24758486  0.24721367  1
  V  V64  1  0.00045396  0.87596831  0.87691961  1
  V  V65  1  0.75114147  0.12560379  0.37190329  1
  V  V66  1  0.36513961  0.25333456  0.12546660  1
  V  V67  1  0.12527237  0.74914642  0.37502766  1
  V  V68  1  0.50089140  0.75038367  0.75074657  1
  V  V69  1  0.12463805  0.62426101  0.00081404  1
  V  V70  1  0.87258067  0.50061344  0.87096038  1
  V  V71  1  0.75012405  0.25045291  0.49885684  1
  V  V72  1  0.62587150  0.75114473  0.87517848  1
  V  V73  1  0.49928584  0.62915075  0.13306323  1
  V  V74  1  0.87457800  0.00440362  0.37112225  1
  V  V75  1  0.37534154  0.12573935  0.75326796  1
  V  V76  1  0.62438488  0.25038222  0.37491179  1
  V  V77  1  0.25192197  0.49898906  0.74969882  1
  V  V78  1  0.37740163  0.75007250  0.13276655  1
  V  V79  1  0.62529480  0.87636695  0.74957272  1
  V  V80  1  0.49963065  0.87239900  0.37110094  1
  V  V81  1  0.49842558  0.50201960  0.00235614  1
  V  V82  1  0.87814209  0.12472722  0.74834200  1
  V  V83  1  0.75011334  0.37854791  0.63091019  1
  V  V84  1  0.74966087  -0.00020849  0.74958892  1
  V  V85  1  0.37443948  0.50085424  0.37459322  1
  V  V86  1  0.87636103  0.24857674  0.62330708  1
  V  V87  1  0.00188882  0.37165450  0.87352501  1
  V  V88  1  -0.00006988  0.50041467  0.00110195  1
  V  V89  1  0.75099487  0.49942422  0.24965717  1
  V  V90  1  0.62910732  0.49778542  0.63479602  1
  V  V91  1  0.12605505  0.49823198  0.62554493  1
  V  V92  1  0.62675700  0.13023208  -0.00177010  1
  Zn  Zn93  1  0.75059632  0.87509968  0.62532444  1
  Zn  Zn94  1  0.50205475  0.00051307  -0.00214429  1
  Zn  Zn95  1  0.62337912  0.62822010  0.00363964  1
  Zn  Zn96  1  0.62516416  -0.00084845  0.12319719  1
  Zn  Zn97  1  0.00109287  0.12481097  0.62221096  1
  Zn  Zn98  1  0.68732849  0.29536331  -0.06190354  1
  Zn  Zn99  1  0.50099340  0.00027793  0.49971302  1
  Zn  Zn100  1  0.11733462  -0.00532144  0.11841608  1
  Zn  Zn101  1  0.37496896  0.00069182  0.87642035  1
  Zn  Zn102  1  0.24730649  0.87313609  0.12420518  1
  Zn  Zn103  1  0.00492705  0.25020227  0.74651856  1
  Zn  Zn104  1  0.24499767  0.25422649  0.00012910  1
  Zn  Zn105  1  0.74904728  0.62457618  0.37428160  1
  Zn  Zn106  1  0.49807493  0.25069017  0.25105913  1
  Zn  Zn107  1  -0.00125986  0.00112603  0.50012031  1
  Zn  Zn108  1  0.25111209  0.12755715  0.87792340  1
  Zn  Zn109  1  0.12986832  0.25041239  0.87401347  1
  Zn  Zn110  1  0.87536052  0.75141874  0.12562796  1
  Zn  Zn111  1  0.62442018  0.50343041  0.12772702  1
  Zn  Zn112  1  0.50864401  0.37263923  0.88386184  1
  Zn  Zn113  1  0.12752546  0.37040261  0.24257367  1
  Zn  Zn114  1  0.86953947  0.24386094  0.12533416  1
  Zn  Zn115  1  0.74946783  0.87612369  0.12492375  1
  Zn  Zn116  1  0.63520902  0.37477393  0.76312014  1
  Zn  Zn117  1  0.37781697  0.49480340  0.87466566  1
  Zn  Zn118  1  0.12775217  0.37111321  0.75111366  1
  Zn  Zn119  1  0.25142636  0.62429921  0.37406198  1
  Zn  Zn120  1  0.37515682  0.62823258  0.25398005  1
  Zn  Zn121  1  0.00088117  0.62506764  0.12485707  1
  Zn  Zn122  1  0.18086596  0.18449752  0.18518233  1
  Zn  Zn123  1  0.18700713  0.18855772  0.68822770  1
  Zn  Zn124  1  0.18997449  0.68226202  0.18716269  1
  Zn  Zn125  1  0.18822721  0.68587739  0.68712257  1
  Zn  Zn126  1  0.68383145  0.18800057  0.18771610  1
  Zn  Zn127  1  0.69125862  0.18680754  0.68699821  1
  Zn  Zn128  1  0.68765514  0.68774859  0.18720292  1
  Zn  Zn129  1  0.68862333  0.68840236  0.68771064  1
  Zn  Zn130  1  0.31260134  0.31391357  0.31137688  1
  Zn  Zn131  1  0.31618889  0.31224811  0.81886128  1
  Zn  Zn132  1  0.30965271  0.81373425  0.31353431  1
  Zn  Zn133  1  0.31289346  0.81153178  0.81380766  1
  Zn  Zn134  1  0.81222077  0.31353564  0.31162974  1
  Zn  Zn135  1  0.82099435  0.31133686  0.80898993  1
  Zn  Zn136  1  0.80978365  0.81373084  0.31392775  1
  Zn  Zn137  1  0.81268053  0.81237002  0.81174536  1
  Zn  Zn138  1  0.18820555  0.43685487  0.43535772  1
  Zn  Zn139  1  0.18830489  0.43919152  0.93695756  1
  Zn  Zn140  1  0.18763124  0.93664958  0.43655896  1
  Zn  Zn141  1  0.19031451  0.94001263  0.93561714  1
  Zn  Zn142  1  0.68863989  0.43862426  0.43978905  1
  Zn  Zn143  1  0.68539030  0.45414713  0.94103872  1
  Zn  Zn144  1  0.68893253  0.93713518  0.43774182  1
  Zn  Zn145  1  0.68814125  0.94228062  0.93713566  1
  Zn  Zn146  1  0.30971867  0.06451642  0.06288006  1
  Zn  Zn147  1  0.31301766  0.06225513  0.56377864  1
  Zn  Zn148  1  0.31288061  0.56323079  0.06478887  1
  Zn  Zn149  1  0.31332642  0.56267323  0.56276554  1
  Zn  Zn150  1  0.80928008  0.06079008  0.06156545  1
  Zn  Zn151  1  0.81140503  0.06119666  0.56022386  1
  Zn  Zn152  1  0.81254368  0.55930653  0.06208940  1
  Zn  Zn153  1  0.81144738  0.56259770  0.56209079  1
  Zn  Zn154  1  0.43697420  0.43883165  0.18751315  1
  Zn  Zn155  1  0.43990515  0.43606828  0.68903949  1
  Zn  Zn156  1  0.43625426  0.93821811  0.18725145  1
  Zn  Zn157  1  0.43943887  0.93905813  0.68721990  1
  Zn  Zn158  1  0.93920102  0.43646603  0.18547790  1
  Zn  Zn159  1  0.93778142  0.43689873  0.68830814  1
  Zn  Zn160  1  0.93471037  0.93596801  0.18801386  1
  Zn  Zn161  1  0.93908806  0.93801501  0.68724029  1
  Zn  Zn162  1  0.06039691  0.06434233  0.30931733  1
  Zn  Zn163  1  0.06274398  0.05994575  0.81185407  1
  Zn  Zn164  1  0.06430497  0.56170708  0.31046395  1
  Zn  Zn165  1  0.06306981  0.55956983  0.81249145  1
  Zn  Zn166  1  0.56223105  0.06080890  0.31190958  1
  Zn  Zn167  1  0.56235639  0.06286629  0.81473478  1
  Zn  Zn168  1  0.56197514  0.56151923  0.31236115  1
  Zn  Zn169  1  0.56253077  0.56309514  0.81644575  1
  Zn  Zn170  1  0.43826472  0.18723044  0.43724119  1
  Zn  Zn171  1  0.43839086  0.19022010  0.94040364  1
  Zn  Zn172  1  0.43912655  0.68657702  0.43806576  1
  Zn  Zn173  1  0.43636011  0.68825935  0.94100081  1
  Zn  Zn174  1  0.93877565  0.18618795  0.43681302  1
  Zn  Zn175  1  0.93993179  0.18571436  0.93862367  1
  Zn  Zn176  1  0.93804273  0.68724494  0.43558462  1
  Zn  Zn177  1  0.93841537  0.68869020  0.93795840  1
  Zn  Zn178  1  0.05956182  0.30696196  0.05891028  1
  Zn  Zn179  1  0.06346454  0.31076452  0.56217391  1
  Zn  Zn180  1  0.06065944  0.81067135  0.06451897  1
  Zn  Zn181  1  0.06172418  0.81381334  0.56096940  1
  Zn  Zn182  1  0.55560994  0.31297949  0.06994181  1
  Zn  Zn183  1  0.56387523  0.31215899  0.56501229  1
  Zn  Zn184  1  0.56085693  0.81127275  0.06313902  1
  Zn  Zn185  1  0.56284117  0.81380717  0.56105327  1
  O  O186  1  0.11409470  0.12080819  0.11421599  1
  O  O187  1  0.12629228  0.11781972  0.61798451  1
  O  O188  1  0.12284571  0.61491437  0.11726729  1
  O  O189  1  0.11915297  0.61922311  0.61949261  1
  O  O190  1  0.61572717  0.12412898  0.11838346  1
  O  O191  1  0.62231385  0.12008944  0.61928491  1
  O  O192  1  0.61419934  0.62660941  0.12412067  1
  O  O193  1  0.62214519  0.61690401  0.62251255  1
  O  O194  1  0.38141858  0.38001012  0.38177414  1
  O  O195  1  0.38530663  0.37555837  0.88905950  1
  O  O196  1  0.38260033  0.87779738  0.37868470  1
  O  O197  1  0.38065849  0.87276913  0.88520390  1
  O  O198  1  0.88094904  0.38037358  0.38079255  1
  O  O199  1  0.87837968  0.38328472  0.88045844  1
  O  O200  1  0.87920798  0.88260047  0.37986536  1
  O  O201  1  0.87919942  0.88151231  0.87986324  1
  O  O202  1  0.25500574  0.00432262  0.36612387  1
  O  O203  1  0.25462812  0.00555873  0.86505161  1
  O  O204  1  0.25635383  0.50172542  0.36871251  1
  O  O205  1  0.25328382  0.50684004  0.86763175  1
  O  O206  1  0.75571701  0.00455741  0.36840141  1
  O  O207  1  0.76022715  0.00910864  0.86849230  1
  O  O208  1  0.75774805  0.50060838  0.36919424  1
  O  O209  1  0.76136061  0.51389988  0.88117359  1
  O  O210  1  0.24046711  0.50523338  0.13396487  1
  O  O211  1  0.24600517  0.49471711  0.62940693  1
  O  O212  1  0.24866562  0.99888969  0.13896851  1
  O  O213  1  0.24541293  0.99274740  0.63041325  1
  O  O214  1  0.74819121  0.48877570  0.13010774  1
  O  O215  1  0.74137295  0.49042279  0.61943301  1
  O  O216  1  0.74813834  0.99761950  0.13632536  1
  O  O217  1  0.74397665  0.99878904  0.63188388  1
  O  O218  1  0.00269917  0.36641245  0.25500423  1
  O  O219  1  0.00047698  0.37488988  0.76148873  1
  O  O220  1  0.00426789  0.86903202  0.25511729  1
  O  O221  1  0.00665899  0.86873882  0.75584484  1
  O  O222  1  0.50715569  0.37535209  0.25772281  1
  O  O223  1  0.50271265  0.36089361  0.75177375  1
  O  O224  1  0.50937849  0.88159764  0.26158014  1
  O  O225  1  0.50488009  0.86880861  0.75520227  1
  O  O226  1  0.49332936  0.12477733  0.24229919  1
  O  O227  1  0.49504391  0.13418547  0.74517319  1
  O  O228  1  0.49574353  0.61878083  0.23753281  1
  O  O229  1  0.49647855  0.63095128  0.74591316  1
  O  O230  1  1.00585421  0.13485883  0.23455604  1
  O  O231  1  0.98631573  0.12382009  0.74951006  1
  O  O232  1  0.98997390  0.63019683  0.25119848  1
  O  O233  1  0.99545928  0.62998200  0.74460009  1
  O  O234  1  0.37491969  0.25776662  0.00937631  1
  O  O235  1  0.36998032  0.25475515  0.50490449  1
  O  O236  1  0.36927548  0.75955231  0.00769503  1
  O  O237  1  0.37084410  0.75490700  0.50625026  1
  O  O238  1  0.87864714  0.26539509  0.00033863  1
  O  O239  1  0.86939902  0.25542698  0.50306652  1
  O  O240  1  0.86625981  0.75889484  -0.00228404  1
  O  O241  1  0.87084661  0.75400987  0.50411994  1
  O  O242  1  0.13180606  0.24354326  0.49379556  1
  O  O243  1  0.12657051  0.23766211  0.99767934  1
  O  O244  1  0.12993043  0.74510219  0.49546088  1
  O  O245  1  0.12960913  0.74508527  0.99435283  1
  O  O246  1  0.63094944  0.24488922  0.49492984  1
  O  O247  1  0.61854168  0.23658275  1.00552528  1
  O  O248  1  0.62959151  0.74491497  0.49334765  1
  O  O249  1  0.63512321  0.75123815  0.99352438  1
  O  O250  1  0.48918215  0.23729639  0.12946308  1
  O  O251  1  0.49530316  0.24525395  0.63350874  1
  O  O252  1  0.48895576  0.74069181  0.11861826  1
  O  O253  1  0.49642393  0.74437134  0.63040229  1
  O  O254  1  0.99616604  0.24157498  0.13214613  1
  O  O255  1  0.99143091  0.24655806  0.62508134  1
  O  O256  1  0.99538813  0.74534982  0.13388748  1
  O  O257  1  0.99577328  0.74386911  0.62991731  1
  O  O258  1  0.00407571  0.25290058  0.36678138  1
  O  O259  1  -0.00269303  0.26336287  0.87352595  1
  O  O260  1  0.00547465  0.75631675  0.36946518  1
  O  O261  1  0.00631015  0.75489094  0.86850436  1
  O  O262  1  0.50620746  0.25703535  0.37458975  1
  O  O263  1  0.50041152  0.24824597  0.86002213  1
  O  O264  1  0.51110413  0.76004507  0.38080353  1
  O  O265  1  0.50617151  0.75467317  0.87038403  1
  O  O266  1  0.24629394  0.13039996  0.49392907  1
  O  O267  1  0.23517494  0.12626007  1.00048046  1
  O  O268  1  0.24348162  0.63156741  0.50044435  1
  O  O269  1  0.24497649  0.63006783  0.99376010  1
  O  O270  1  0.74457025  0.13144999  0.49303512  1
  O  O271  1  0.74136040  0.12213378  0.99099511  1
  O  O272  1  0.74370265  0.63116345  0.49741098  1
  O  O273  1  0.75253375  0.63529588  0.99063120  1
  O  O274  1  0.26450237  0.37680153  -0.00236140  1
  O  O275  1  0.25663611  0.36931217  0.50517531  1
  O  O276  1  0.25828099  0.86929307  0.00076662  1
  O  O277  1  0.25580085  0.86853568  0.50559885  1
  O  O278  1  0.75332634  0.37556959  0.00537710  1
  O  O279  1  0.75644488  0.36974035  0.50803961  1
  O  O280  1  0.75838297  0.86645342  -0.00300894  1
  O  O281  1  0.75665330  0.86765926  0.50174746  1
  O  O282  1  0.13115612  0.49784208  0.24109087  1
  O  O283  1  0.13302250  0.49808603  0.74248235  1
  O  O284  1  0.13342109  0.99417866  0.25083523  1
  O  O285  1  0.13140947  0.99392719  0.74458770  1
  O  O286  1  0.63292665  0.49358490  0.25027419  1
  O  O287  1  0.61869069  0.49582363  0.73813500  1
  O  O288  1  0.63352545  0.98947252  0.25150418  1
  O  O289  1  0.63000570  0.99611318  0.74485666  1
  O  O290  1  0.36552756  0.00429466  0.25555823  1
  O  O291  1  0.37122336  0.01068129  0.74781439  1
  O  O292  1  0.36645410  0.49943826  0.25616476  1
  O  O293  1  0.37140804  0.50685922  0.75082656  1
  O  O294  1  0.86212306  -0.00882376  0.26150090  1
  O  O295  1  0.86986718  0.00636159  0.75704529  1
  O  O296  1  0.87186106  0.50677895  0.25485327  1
  O  O297  1  0.88071754  0.50671163  0.76347912  1
  O  O298  1  0.11723033  0.36665121  0.37598638  1
  O  O299  1  0.11239602  0.37665254  0.87589558  1
  O  O300  1  0.11919228  0.86900995  0.36942715  1
  O  O301  1  0.12091267  0.86969986  0.86993431  1
  O  O302  1  0.62103295  0.37018133  0.37232021  1
  O  O303  1  0.62837243  0.37565718  0.87864750  1
  O  O304  1  0.61820825  0.86871445  0.36990675  1
  O  O305  1  0.62033259  0.87094208  0.86950318  1
  O  O306  1  0.38116463  0.13142652  0.12888930  1
  O  O307  1  0.38101241  0.13024716  0.63322376  1
  O  O308  1  0.38160073  0.63493536  0.12601337  1
  O  O309  1  0.38245048  0.63027749  0.63078470  1
  O  O310  1  0.88890118  0.12743161  0.11191342  1
  O  O311  1  0.87306770  0.12848319  0.63354622  1
  O  O312  1  0.87571996  0.62461370  0.13745966  1
  O  O313  1  0.88070859  0.62926137  0.62996452  1
  O  O314  1  0.26212577  0.24274784  0.12449608  1
  O  O315  1  0.25671697  0.25531364  0.61872787  1
  O  O316  1  0.25828618  0.74999690  0.11791395  1
  O  O317  1  0.25629323  0.75507434  0.62065968  1
  O  O318  1  0.75328952  0.26433498  0.13319836  1
  O  O319  1  0.75588428  0.25733308  0.61764396  1
  O  O320  1  0.75210701  0.75241084  0.11276312  1
  O  O321  1  0.75774838  0.75086465  0.61890767  1
  O  O322  1  0.24545568  0.24458715  0.37959555  1
  O  O323  1  0.24838448  0.24461291  0.88022878  1
  O  O324  1  0.24347689  0.74882172  0.38257672  1
  O  O325  1  0.24374935  0.74410375  0.87973363  1
  O  O326  1  0.74511258  0.24603986  0.37942014  1
  O  O327  1  0.75755273  0.23666495  0.87094634  1
  O  O328  1  0.73814165  0.74924918  0.38201424  1
  O  O329  1  0.74677715  0.74423129  0.88259938  1
  O  O330  1  0.01071262  0.12969783  0.01218745  1
  O  O331  1  0.00928915  0.12147001  0.50046649  1
  O  O332  1  0.00613636  0.61847543  -0.00092044  1
  O  O333  1  0.00476279  0.61922965  0.50560080  1
  O  O334  1  0.50635850  0.12298664  0.00730200  1
  O  O335  1  0.50680622  0.12422927  0.50647496  1
  O  O336  1  0.49830285  0.61797070  0.00966410  1
  O  O337  1  0.50669111  0.61950753  0.50810613  1
  O  O338  1  0.49558539  0.37953128  0.49615177  1
  O  O339  1  0.49351583  0.38578952  1.00431446  1
  O  O340  1  0.49446856  0.87706437  0.48959583  1
  O  O341  1  0.49090677  0.87557302  0.99496125  1
  O  O342  1  0.99447857  0.37974877  0.49447272  1
  O  O343  1  0.99028399  0.38107622  0.99212406  1
  O  O344  1  0.99358278  0.87700322  0.49166682  1
  O  O345  1  0.98721845  0.86680940  0.99241956  1
  O  O346  1  0.49575060  0.49414644  0.38240380  1
  O  O347  1  0.49916702  0.50030159  0.88910080  1
  O  O348  1  0.49352575  0.99057170  0.37714941  1
  O  O349  1  0.49558709  0.99114916  0.87622268  1
  O  O350  1  0.99583274  0.49402865  0.38038245  1
  O  O351  1  0.99174966  0.49304049  0.88075695  1
  O  O352  1  0.98955177  0.99519832  0.37158907  1
  O  O353  1  0.98608167  0.99269564  0.86860719  1
  O  O354  1  -0.00153506  0.01503800  0.13320710  1
  O  O355  1  0.00886347  0.00222001  0.62225814  1
  O  O356  1  0.00823043  0.50279599  0.11845128  1
  O  O357  1  0.00483628  0.50454227  0.61926626  1
  O  O358  1  0.49925375  0.01307808  0.12398333  1
  O  O359  1  0.50774389  0.00737276  0.62334862  1
  O  O360  1  0.49894787  0.51013579  0.11770140  1
  O  O361  1  0.50897267  0.50390108  0.62055316  1
  O  O362  1  0.24566350  0.38875143  0.25530447  1
  O  O363  1  0.25324819  0.38120509  0.74357759  1
  O  O364  1  0.24330765  0.88443623  0.24995128  1
  O  O365  1  0.24582124  0.87915153  0.74482023  1
  O  O366  1  0.74605126  0.38107857  0.24328131  1
  O  O367  1  0.75146231  0.36772457  0.73495823  1
  O  O368  1  0.73968242  0.88374348  0.25065675  1
  O  O369  1  0.74331406  0.88125180  0.74989085  1
  O  O370  1  0.25293411  0.11700109  0.25508429  1
  O  O371  1  0.26204538  0.12050124  0.74807095  1
  O  O372  1  0.25300626  0.61181266  0.25460935  1
  O  O373  1  0.25642895  0.61983231  0.75406084  1
  O  O374  1  0.74110090  0.11254178  0.25600938  1
  O  O375  1  0.75957944  0.12042229  0.75779713  1
  O  O376  1  0.75870072  0.61930586  0.25145262  1
  O  O377  1  0.75798267  0.63408972  0.76392647  1
  O  O378  1  0.36949145  0.12005932  0.36990651  1
  O  O379  1  0.37780067  0.12420520  0.86265639  1
  O  O380  1  0.37537180  0.61723747  0.37413715  1
  O  O381  1  0.36888383  0.62552671  0.86875729  1
  O  O382  1  0.86775281  0.11277295  0.37993206  1
  O  O383  1  0.87039700  0.11773104  0.87047690  1
  O  O384  1  0.87384183  0.61921480  0.36481261  1
  O  O385  1  0.87043932  0.61932031  0.87102374  1
  O  O386  1  0.11918045  0.38828878  0.12079974  1
  O  O387  1  0.13298719  0.38110921  0.62464407  1
  O  O388  1  0.12606696  0.87804678  0.13172309  1
  O  O389  1  0.13127947  0.87850169  0.63064618  1
  O  O390  1  0.63260060  0.37591773  0.13212920  1
  O  O391  1  0.63466436  0.38263326  0.62473769  1
  O  O392  1  0.62389530  0.87565722  0.13669423  1
  O  O393  1  0.62578194  0.88119989  0.63180446  1
  O  O394  1  0.11598899  0.25151523  0.25484794  1
  O  O395  1  0.12123027  0.25265062  0.75492262  1
  O  O396  1  0.12052231  0.75378270  0.25511036  1
  O  O397  1  0.12086225  0.75474818  0.75506765  1
  O  O398  1  0.62253579  0.25762969  0.25844747  1
  O  O399  1  0.61260696  0.25021079  0.74439344  1
  O  O400  1  0.63273827  0.76059958  0.26174921  1
  O  O401  1  0.61999687  0.75575777  0.75516154  1
  O  O402  1  0.37522844  0.24378282  0.24341168  1
  O  O403  1  0.38509523  0.24260791  0.74454459  1
  O  O404  1  0.36806114  0.75111525  0.23667732  1
  O  O405  1  0.38119350  0.74495998  0.74433788  1
  O  O406  1  0.88744356  0.25314824  0.24867222  1
  O  O407  1  0.87830373  0.23857249  0.74187789  1
  O  O408  1  0.87815588  0.74187131  0.25140652  1
  O  O409  1  0.88204666  0.74488380  0.74490600  1
  O  O410  1  0.38160884  0.49433211  0.49648735  1
  O  O411  1  0.38242019  0.49274743  1.00231151  1
  O  O412  1  0.37470766  0.99276758  0.49338889  1
  O  O413  1  0.37373470  0.98757927  1.00057440  1
  O  O414  1  0.88140480  0.49547884  0.49507290  1
  O  O415  1  0.87912403  0.49221397  0.98980042  1
  O  O416  1  0.87410140  0.99329939  0.48853130  1
  O  O417  1  0.86648874  0.98875154  0.98787907  1
  O  O418  1  0.12694163  0.01220280  0.00071148  1
  O  O419  1  0.12594543  0.00510937  0.50515761  1
  O  O420  1  0.12103360  0.50524792  0.00589843  1
  O  O421  1  0.11987581  0.50461446  0.50530222  1
  O  O422  1  0.62318885  0.01144930  0.00387866  1
  O  O423  1  0.62539994  0.00674379  0.50555886  1
  O  O424  1  0.61290635  0.50818245  0.00773448  1
  O  O425  1  0.61997069  0.50538840  0.50874967  1
  O  O426  1  0.38295156  0.36302243  0.11790561  1
  O  O427  1  0.37118090  0.37027149  0.61893274  1
  O  O428  1  0.37494577  0.86770043  0.11706435  1
  O  O429  1  0.37122182  0.86926029  0.62051556  1
  O  O430  1  0.86566519  0.37749894  0.11453155  1
  O  O431  1  0.86849060  0.37154130  0.61942945  1
  O  O432  1  0.87205533  0.87424831  0.11292110  1
  O  O433  1  0.87510524  0.86802440  0.61881176  1
  O  O434  1  0.13081246  0.13004501  0.37888809  1
  O  O435  1  0.11922067  0.12469082  0.88856698  1
  O  O436  1  0.12449456  0.63153462  0.38270993  1
  O  O437  1  0.13067079  0.62971438  0.87978162  1
  O  O438  1  0.62983388  0.13042941  0.37995465  1
  O  O439  1  0.63643741  0.12039915  0.88355833  1
  O  O440  1  0.62336137  0.63426521  0.38054377  1
  O  O441  1  0.63557889  0.63167400  0.87659053  1
