# generated using pymatgen
data_V93Zn93O256
_symmetry_space_group_name_H-M   'P 1'
_cell_length_a   17.05110603
_cell_length_b   17.05537854
_cell_length_c   17.05131387
_cell_angle_alpha   90.04455397
_cell_angle_beta   89.99322900
_cell_angle_gamma   90.05701853
_symmetry_Int_Tables_number   1
_chemical_formula_structural   V93Zn93O256
_chemical_formula_sum   'V93 Zn93 O256'
_cell_volume   4958.74091164
_cell_formula_units_Z   1
loop_
 _symmetry_equiv_pos_site_id
 _symmetry_equiv_pos_as_xyz
  1  'x, y, z'
loop_
 _atom_site_type_symbol
 _atom_site_label
 _atom_site_symmetry_multiplicity
 _atom_site_fract_x
 _atom_site_fract_y
 _atom_site_fract_z
 _atom_site_occupancy
  V  V0  1  0.62495228  0.49926127  0.62513760  1
  V  V1  1  0.37464467  0.24911378  0.12595258  1
  V  V2  1  0.87409309  0.50045839  0.87532452  1
  V  V3  1  0.87533415  0.25152244  0.62334697  1
  V  V4  1  0.74981557  0.50031376  0.75001971  1
  V  V5  1  0.37351300  -0.00036055  0.87556443  1
  V  V6  1  0.37460502  0.74930398  0.62566553  1
  V  V7  1  0.24578490  0.12512869  0.38138578  1
  V  V8  1  0.87938564  0.87797093  0.49747210  1
  V  V9  1  -0.00116219  0.62587967  0.12581313  1
  V  V10  1  0.50097818  0.49815322  0.49944736  1
  V  V11  1  -0.00059040  0.49994500  -0.00012263  1
  V  V12  1  0.87589914  0.62741988  0.24874768  1
  V  V13  1  0.87556466  0.12548247  0.24866892  1
  V  V14  1  0.36928076  0.49915381  0.87387648  1
  V  V15  1  0.00102179  0.49509294  0.49879733  1
  V  V16  1  0.50035806  0.87402776  0.87459550  1
  V  V17  1  0.62388009  -0.00094824  0.12492539  1
  V  V18  1  0.49813495  0.37451198  0.87535077  1
  V  V19  1  0.24946459  0.38200576  0.62990678  1
  V  V20  1  -0.00070971  0.75142384  0.74954812  1
  V  V21  1  0.12137115  0.37619872  0.25758830  1
  V  V22  1  -0.00079376  0.87606229  0.87389042  1
  V  V23  1  0.62418791  0.87380984  0.24985111  1
  V  V24  1  0.37503947  0.12467264  0.25045763  1
  V  V25  1  0.00489381  0.12555216  0.61802118  1
  V  V26  1  0.75161225  0.37432100  0.62275520  1
  V  V27  1  0.50025412  0.37208391  0.37520162  1
  V  V28  1  0.36988688  0.61954087  0.75017664  1
  V  V29  1  0.49940929  0.12019001  0.61993814  1
  V  V30  1  0.87559196  0.37535427  -0.00099179  1
  V  V31  1  0.62437915  0.37411858  0.25049828  1
  V  V32  1  0.24979140  0.75293405  0.00334647  1
  V  V33  1  0.75060517  0.50004023  0.24974242  1
  V  V34  1  0.62442208  0.12112604  0.49812345  1
  V  V35  1  0.87575158  0.12610191  0.74877441  1
  V  V36  1  0.12861192  -0.00733925  0.12410588  1
  V  V37  1  0.25015537  0.12441885  0.87408944  1
  V  V38  1  0.74975106  0.12560369  0.37454468  1
  V  V39  1  0.62440341  0.37503140  0.74921084  1
  V  V40  1  0.49845456  -0.00114861  0.00036505  1
  V  V41  1  0.75023538  0.74974345  0.49903917  1
  V  V42  1  0.37105113  0.87449968  0.00297823  1
  V  V43  1  0.00009752  0.25358463  0.25402641  1
  V  V44  1  0.00062275  0.62574790  0.62335472  1
  V  V45  1  0.62633962  0.62480858  0.50039316  1
  V  V46  1  0.25007529  0.87437033  0.62468983  1
  V  V47  1  0.12445123  0.62587423  0.00104459  1
  V  V48  1  0.75027315  0.87417789  0.12405052  1
  V  V49  1  0.49396927  0.62403226  0.12925920  1
  V  V50  1  0.12444889  0.75158192  0.37500169  1
  V  V51  1  0.62305101  -0.00044187  0.62184697  1
  V  V52  1  0.24872090  0.62368880  0.87426930  1
  V  V53  1  0.49907826  0.62355683  0.62568608  1
  V  V54  1  0.49494122  0.74651074  0.25176378  1
  V  V55  1  0.37077158  0.75256463  0.12650420  1
  V  V56  1  0.62446323  0.12424282  -0.00019342  1
  V  V57  1  0.74856472  0.37494353  0.12420063  1
  V  V58  1  0.24958500  0.25053191  0.00168012  1
  V  V59  1  0.75011169  0.00044976  0.74841637  1
  V  V60  1  0.49893534  0.12413217  0.12607084  1
  V  V61  1  0.25283523  0.50201982  0.25118954  1
  V  V62  1  0.74994775  0.87584103  0.62397517  1
  V  V63  1  0.12323874  0.12497327  0.00250455  1
  V  V64  1  0.12554542  0.50004529  0.12691079  1
  V  V65  1  0.74993845  0.12529634  0.87348413  1
  V  V66  1  0.25256909  0.62542329  0.37564947  1
  V  V67  1  0.24937563  -0.00698780  0.24624636  1
  V  V68  1  0.87354252  0.87478418  -0.00010745  1
  V  V69  1  0.87557296  0.24965540  0.12493303  1
  V  V70  1  0.49838941  0.24726955  0.74658551  1
  V  V71  1  0.75021200  0.25011564  -0.00093941  1
  V  V72  1  0.12589410  0.00422827  0.61880210  1
  V  V73  1  0.87599921  0.75153421  0.62434640  1
  V  V74  1  0.87561050  0.00034799  0.87393772  1
  V  V75  1  0.88043468  0.49409557  0.37530261  1
  V  V76  1  0.62464689  0.24995365  0.87452820  1
  V  V77  1  0.75088478  -0.00023268  0.24869097  1
  V  V78  1  0.12421074  0.25074920  0.87505843  1
  V  V79  1  0.37407245  0.37436144  0.00130617  1
  V  V80  1  0.37733367  -0.00058752  0.38144708  1
  V  V81  1  0.87725308  -0.00017130  0.37383079  1
  V  V82  1  0.74757358  0.62462245  0.87521812  1
  V  V83  1  0.62342428  0.62628558  -0.00017066  1
  V  V84  1  0.62409702  0.87420821  0.75010228  1
  V  V85  1  0.74919064  0.62516087  0.37504094  1
  V  V86  1  0.12425341  0.75144423  0.87606891  1
  V  V87  1  0.00408325  0.25594200  0.74986284  1
  V  V88  1  0.12493735  0.24683485  0.38021527  1
  V  V89  1  0.37621514  0.50341555  0.37246260  1
  V  V90  1  0.25008160  0.00125457  0.75016068  1
  V  V91  1  0.49945612  0.87814980  0.38075378  1
  V  V92  1  0.62353646  0.50017314  0.12546015  1
  Zn  Zn93  1  0.38071471  0.87646804  0.50374873  1
  Zn  Zn94  1  0.87466683  0.75126395  0.12473984  1
  Zn  Zn95  1  0.12520092  0.87229205  0.24578276  1
  Zn  Zn96  1  0.12421719  0.87615355  0.75039977  1
  Zn  Zn97  1  0.00164701  0.75326477  0.24852734  1
  Zn  Zn98  1  0.24913057  0.24968223  0.50266469  1
  Zn  Zn99  1  0.25032536  0.37406217  0.12769117  1
  Zn  Zn100  1  0.49752588  0.49925254  0.00167204  1
  Zn  Zn101  1  0.62288649  0.75007025  0.37563569  1
  Zn  Zn102  1  0.37246595  0.37093958  0.50052577  1
  Zn  Zn103  1  0.00028824  0.12432266  0.12477350  1
  Zn  Zn104  1  0.12628561  0.62442771  0.50076518  1
  Zn  Zn105  1  0.62446707  0.74998592  0.87366046  1
  Zn  Zn106  1  0.37035818  0.24825634  0.62115455  1
  Zn  Zn107  1  0.12853090  0.50444647  0.63087503  1
  Zn  Zn108  1  0.00043724  0.00090942  0.00087522  1
  Zn  Zn109  1  0.87743844  0.37262493  0.49573658  1
  Zn  Zn110  1  0.00245769  0.37801852  0.87428058  1
  Zn  Zn111  1  0.50082186  0.24834336  0.25073253  1
  Zn  Zn112  1  0.13883566  0.39234387  0.76030046  1
  Zn  Zn113  1  0.75186385  0.25127361  0.49741426  1
  Zn  Zn114  1  0.00686682  0.00498471  0.49454461  1
  Zn  Zn115  1  0.50126230  0.74854896  0.75252243  1
  Zn  Zn116  1  0.00422449  0.87753471  0.37083329  1
  Zn  Zn117  1  0.62640684  0.24905488  0.37475816  1
  Zn  Zn118  1  0.37502522  0.12391026  0.74805226  1
  Zn  Zn119  1  0.87287306  0.62618151  0.75029706  1
  Zn  Zn120  1  0.25012970  0.74908845  0.50032167  1
  Zn  Zn121  1  0.74877279  0.74981001  -0.00039636  1
  Zn  Zn122  1  0.18933078  0.18437569  0.19063116  1
  Zn  Zn123  1  0.18789198  0.19042979  0.68672391  1
  Zn  Zn124  1  0.18801292  0.68546574  0.19038132  1
  Zn  Zn125  1  0.18582189  0.68739143  0.69081976  1
  Zn  Zn126  1  0.68659823  0.18833454  0.18831798  1
  Zn  Zn127  1  0.68705129  0.18817012  0.68459941  1
  Zn  Zn128  1  0.68622592  0.68976864  0.18650585  1
  Zn  Zn129  1  0.68792679  0.68845314  0.68766079  1
  Zn  Zn130  1  0.31154808  0.31284533  0.31258390  1
  Zn  Zn131  1  0.31269581  0.31043087  0.81218480  1
  Zn  Zn132  1  0.31351889  0.81280768  0.31240147  1
  Zn  Zn133  1  0.31255569  0.81133502  0.81272957  1
  Zn  Zn134  1  0.81110984  0.31167001  0.31157582  1
  Zn  Zn135  1  0.81449985  0.31389368  0.81036040  1
  Zn  Zn136  1  0.81141443  0.81257571  0.31374468  1
  Zn  Zn137  1  0.81044603  0.81040322  0.81312370  1
  Zn  Zn138  1  0.18620797  0.43584312  0.44386144  1
  Zn  Zn139  1  0.18756481  0.43674875  0.94005206  1
  Zn  Zn140  1  0.19227663  0.93600657  0.43740686  1
  Zn  Zn141  1  0.18793140  0.93629853  0.93869992  1
  Zn  Zn142  1  0.68952878  0.43770932  0.43755117  1
  Zn  Zn143  1  0.68599879  0.43894699  0.93778732  1
  Zn  Zn144  1  0.68798733  0.93820489  0.43573094  1
  Zn  Zn145  1  0.68722666  0.93760872  0.93635120  1
  Zn  Zn146  1  0.31085485  0.06297923  0.06275132  1
  Zn  Zn147  1  0.31353150  0.06309269  0.56243343  1
  Zn  Zn148  1  0.31166223  0.56368637  0.06167109  1
  Zn  Zn149  1  0.31447957  0.55940330  0.55854827  1
  Zn  Zn150  1  0.81211574  0.06181409  0.06223578  1
  Zn  Zn151  1  0.81282468  0.06414727  0.56113083  1
  Zn  Zn152  1  0.81106812  0.56214774  0.06196255  1
  Zn  Zn153  1  0.81502470  0.56200908  0.56173093  1
  Zn  Zn154  1  0.43663759  0.43596681  0.18919889  1
  Zn  Zn155  1  0.43416829  0.43553951  0.68734131  1
  Zn  Zn156  1  0.43613085  0.93526757  0.19088702  1
  Zn  Zn157  1  0.43769550  0.93816551  0.68992345  1
  Zn  Zn158  1  0.93802881  0.43742846  0.18689849  1
  Zn  Zn159  1  0.93717360  0.43955060  0.68604724  1
  Zn  Zn160  1  0.94323974  0.93815529  0.18620874  1
  Zn  Zn161  1  0.93914460  0.93898276  0.68651025  1
  Zn  Zn162  1  0.06255652  0.06400470  0.30952605  1
  Zn  Zn163  1  0.06291066  0.06329114  0.80843627  1
  Zn  Zn164  1  0.06330196  0.56554439  0.31473030  1
  Zn  Zn165  1  0.06019638  0.56496838  0.81151013  1
  Zn  Zn166  1  0.56189910  0.06062386  0.31265698  1
  Zn  Zn167  1  0.56204775  0.06029008  0.81076309  1
  Zn  Zn168  1  0.56344425  0.56190083  0.31252238  1
  Zn  Zn169  1  0.55790363  0.56105769  0.81298518  1
  Zn  Zn170  1  0.43508591  0.18764632  0.43930704  1
  Zn  Zn171  1  0.43647355  0.18678895  0.93767748  1
  Zn  Zn172  1  0.43726935  0.68698514  0.43927434  1
  Zn  Zn173  1  0.43847707  0.68818974  0.93911036  1
  Zn  Zn174  1  0.93713728  0.18905843  0.43595676  1
  Zn  Zn175  1  0.93855253  0.18885643  0.93567379  1
  Zn  Zn176  1  0.93903125  0.68626753  0.43628556  1
  Zn  Zn177  1  0.93615563  0.68774185  0.93680600  1
  Zn  Zn178  1  0.06254592  0.31458109  0.06682848  1
  Zn  Zn179  1  0.06586656  0.31640378  0.56584706  1
  Zn  Zn180  1  0.05828260  0.81194026  0.06179958  1
  Zn  Zn181  1  0.06612021  0.81257522  0.56034042  1
  Zn  Zn182  1  0.56037579  0.31136343  0.06256464  1
  Zn  Zn183  1  0.56497331  0.30846242  0.55985916  1
  Zn  Zn184  1  0.55944716  0.81129098  0.06275118  1
  Zn  Zn185  1  0.56305431  0.80964505  0.56414650  1
  O  O186  1  0.12607812  0.11922529  0.11450421  1
  O  O187  1  0.11593329  0.11598027  0.63068934  1
  O  O188  1  0.11930790  0.61937680  0.12070164  1
  O  O189  1  0.11277803  0.62808525  0.62287038  1
  O  O190  1  0.62023928  0.11897644  0.11913940  1
  O  O191  1  0.61973360  0.11938225  0.61766276  1
  O  O192  1  0.61653719  0.62017918  0.11859877  1
  O  O193  1  0.61954506  0.61869719  0.62055648  1
  O  O194  1  0.38471025  0.38402993  0.37467682  1
  O  O195  1  0.37776142  0.38147372  0.87976394  1
  O  O196  1  0.38217765  0.88207100  0.37659145  1
  O  O197  1  0.38007055  0.88037734  0.88136196  1
  O  O198  1  0.87087100  0.39055706  0.37240161  1
  O  O199  1  0.87612448  0.38162267  0.88205540  1
  O  O200  1  0.87480872  0.88086833  0.38344617  1
  O  O201  1  0.87771268  0.88076182  0.88149459  1
  O  O202  1  0.25628270  0.00641865  0.36752063  1
  O  O203  1  0.25400950  0.00442925  0.87005298  1
  O  O204  1  0.25673832  0.50457942  0.37081002  1
  O  O205  1  0.26189098  0.50648630  0.88210792  1
  O  O206  1  0.75664825  0.00510432  0.36691107  1
  O  O207  1  0.75497021  0.00651803  0.86805236  1
  O  O208  1  0.75827006  0.50633103  0.36905844  1
  O  O209  1  0.75368310  0.50464117  0.86962288  1
  O  O210  1  0.24489257  0.50264210  0.13582903  1
  O  O211  1  0.25108966  0.48683929  0.62076617  1
  O  O212  1  0.24148546  1.00767255  0.13559689  1
  O  O213  1  0.24534161  0.99471959  0.62928208  1
  O  O214  1  0.74403998  0.49395172  0.13022825  1
  O  O215  1  0.74458111  0.49548651  0.63005677  1
  O  O216  1  0.74330417  0.99471894  0.12974357  1
  O  O217  1  0.74487185  0.99522472  0.62999721  1
  O  O218  1  0.00905008  0.36581250  0.24545828  1
  O  O219  1  -0.00015352  0.36233115  0.74934076  1
  O  O220  1  0.00513578  0.87072642  0.25341971  1
  O  O221  1  0.00002280  0.86913736  0.75601116  1
  O  O222  1  0.50594849  0.37531213  0.26002890  1
  O  O223  1  0.50484430  0.36624973  0.75436339  1
  O  O224  1  0.50455284  0.86571697  0.25817880  1
  O  O225  1  0.50681575  0.87494815  0.75689250  1
  O  O226  1  0.49359500  0.12445356  0.24358378  1
  O  O227  1  0.50289575  0.13300840  0.74105963  1
  O  O228  1  0.50633129  0.63457438  0.24055605  1
  O  O229  1  0.48854483  0.62561637  0.74398516  1
  O  O230  1  0.99341283  0.13583874  0.24631854  1
  O  O231  1  0.99479962  0.13444408  0.74124012  1
  O  O232  1  0.99003405  0.62403242  0.24423308  1
  O  O233  1  0.99515248  0.63389164  0.73981944  1
  O  O234  1  0.36908890  0.25413707  0.00494485  1
  O  O235  1  0.37060424  0.25379016  0.50280528  1
  O  O236  1  0.37011651  0.75438611  0.00775070  1
  O  O237  1  0.37242385  0.74874087  0.51507069  1
  O  O238  1  0.86935175  0.25464948  0.00416405  1
  O  O239  1  0.87450656  0.25386327  0.50700372  1
  O  O240  1  0.87238207  0.76360235  0.00007133  1
  O  O241  1  0.87016653  0.75898144  0.50312928  1
  O  O242  1  0.12203151  0.25789749  0.48223553  1
  O  O243  1  0.12878191  0.24317594  0.99698133  1
  O  O244  1  0.13042480  0.74706337  0.48946871  1
  O  O245  1  0.12947009  0.74493547  0.99650121  1
  O  O246  1  0.62971553  0.23535432  0.49716178  1
  O  O247  1  0.63038959  0.24429365  0.99438107  1
  O  O248  1  0.63228045  0.74231963  0.49951878  1
  O  O249  1  0.62469100  0.73699179  1.00012893  1
  O  O250  1  0.49299666  0.24147265  0.12582730  1
  O  O251  1  0.50284905  0.24058510  0.63417790  1
  O  O252  1  0.49249729  0.74264496  0.13250701  1
  O  O253  1  0.49018503  0.74275061  0.62651561  1
  O  O254  1  0.99383818  0.24843744  0.13525830  1
  O  O255  1  0.99809525  0.24399420  0.63166667  1
  O  O256  1  0.99536780  0.74086578  0.12719261  1
  O  O257  1  0.99581553  0.74519440  0.62810621  1
  O  O258  1  0.00812100  0.24342141  0.36135403  1
  O  O259  1  0.00475446  0.25158840  0.86529276  1
  O  O260  1  0.01250461  0.74917877  0.37302461  1
  O  O261  1  0.00423495  0.75539619  0.87016065  1
  O  O262  1  0.50147304  0.26195964  0.37373012  1
  O  O263  1  0.50541068  0.25307589  0.86717318  1
  O  O264  1  0.49801583  0.75580119  0.36635828  1
  O  O265  1  0.50181062  0.75830684  0.87350197  1
  O  O266  1  0.25311180  0.12501840  0.48423254  1
  O  O267  1  0.24122497  0.13050788  0.99433095  1
  O  O268  1  0.24884450  0.62416867  0.48747262  1
  O  O269  1  0.24342436  0.63193227  0.99441519  1
  O  O270  1  0.74256799  0.12624561  0.49312662  1
  O  O271  1  0.74424480  0.13030149  0.99380691  1
  O  O272  1  0.74602760  0.62997360  0.49561660  1
  O  O273  1  0.73864624  0.62398742  0.99549473  1
  O  O274  1  0.25603385  0.36792550  0.00432924  1
  O  O275  1  0.25117839  0.37159412  0.51242501  1
  O  O276  1  0.25845968  0.86561202  -0.00454815  1
  O  O277  1  0.25625193  0.87354447  0.51495660  1
  O  O278  1  0.75406078  0.36935705  0.00471674  1
  O  O279  1  0.75266079  0.37315002  0.50814782  1
  O  O280  1  0.75805876  0.87614237  0.00460621  1
  O  O281  1  0.75816102  0.87067179  0.50413132  1
  O  O282  1  0.13035274  0.49339969  0.24855085  1
  O  O283  1  0.11984833  0.50145972  0.74459893  1
  O  O284  1  0.13322006  1.00105702  0.24070830  1
  O  O285  1  0.13202435  0.99753911  0.73943566  1
  O  O286  1  0.63125920  0.49475329  0.24453640  1
  O  O287  1  0.62840102  0.49404491  0.74478916  1
  O  O288  1  0.63067869  0.99399927  0.24356437  1
  O  O289  1  0.63168957  0.99460702  0.74314640  1
  O  O290  1  0.36725694  0.00407610  0.25664924  1
  O  O291  1  0.36807832  0.00179626  0.75800482  1
  O  O292  1  0.36428545  0.49373849  0.26051037  1
  O  O293  1  0.37959291  0.50932054  0.76112176  1
  O  O294  1  0.87019407  0.00562666  0.25338445  1
  O  O295  1  0.86934957  0.00608660  0.75382324  1
  O  O296  1  0.87142051  0.50813857  0.25533659  1
  O  O297  1  0.86748300  0.50156484  0.75703945  1
  O  O298  1  0.13115027  0.36684027  0.36250767  1
  O  O299  1  0.12299071  0.36704331  0.87494888  1
  O  O300  1  0.12697618  0.86363248  0.37556461  1
  O  O301  1  0.11764385  0.86907515  0.87493564  1
  O  O302  1  0.61602866  0.37714198  0.36918765  1
  O  O303  1  0.61908366  0.36964950  0.86974368  1
  O  O304  1  0.61664684  0.87465669  0.36847684  1
  O  O305  1  0.61845141  0.87570076  0.86876302  1
  O  O306  1  0.38026750  0.12884874  0.12973457  1
  O  O307  1  0.38660873  0.12514678  0.62687112  1
  O  O308  1  0.38746752  0.63417363  0.11818261  1
  O  O309  1  0.37748630  0.62878981  0.63212517  1
  O  O310  1  0.87424005  0.13216964  0.13027424  1
  O  O311  1  0.88275892  0.13039745  0.63057697  1
  O  O312  1  0.87887686  0.62346291  0.13399923  1
  O  O313  1  0.88350407  0.63360698  0.62498204  1
  O  O314  1  0.25684030  0.24907913  0.11980228  1
  O  O315  1  0.25053166  0.25836519  0.62152031  1
  O  O316  1  0.26344537  0.73859011  0.12084848  1
  O  O317  1  0.25740745  0.75761280  0.62721439  1
  O  O318  1  0.75480456  0.25534336  0.11866972  1
  O  O319  1  0.75749962  0.25648770  0.62550039  1
  O  O320  1  0.75310751  0.75866424  0.12191433  1
  O  O321  1  0.75580522  0.75624240  0.61870120  1
  O  O322  1  0.24169854  0.24128005  0.37282689  1
  O  O323  1  0.24448133  0.24427518  0.88128542  1
  O  O324  1  0.24741876  0.74038296  0.37442395  1
  O  O325  1  0.24441116  0.74396210  0.88156622  1
  O  O326  1  0.74821831  0.24102826  0.37538188  1
  O  O327  1  0.74468946  0.24507814  0.87871869  1
  O  O328  1  0.74699881  0.74309674  0.38105306  1
  O  O329  1  0.74518982  0.74080483  0.87821559  1
  O  O330  1  0.01221492  0.12500260  -0.00026767  1
  O  O331  1  -0.00517057  0.12456477  0.51466889  1
  O  O332  1  0.00476196  0.61970501  0.00550776  1
  O  O333  1  -0.00074658  0.61869716  0.50989496  1
  O  O334  1  0.50535923  0.11860820  0.00520490  1
  O  O335  1  0.51057958  0.12993002  0.51042724  1
  O  O336  1  0.50768417  0.62330650  0.01011046  1
  O  O337  1  0.50578456  0.61831523  0.50564908  1
  O  O338  1  0.50359793  0.38094416  0.48986833  1
  O  O339  1  0.49267475  0.37481443  0.99280601  1
  O  O340  1  0.50045667  0.86761309  0.48506603  1
  O  O341  1  0.49338821  0.88085347  0.99503941  1
  O  O342  1  0.99690473  0.39101068  0.50904193  1
  O  O343  1  0.99336218  0.38191073  1.00065550  1
  O  O344  1  0.98742679  0.87716172  0.49913350  1
  O  O345  1  0.98907751  0.87770744  0.99285209  1
  O  O346  1  0.49373133  0.49384203  0.37766052  1
  O  O347  1  0.48767655  0.49284105  0.87762309  1
  O  O348  1  0.48879926  0.98855846  0.36580647  1
  O  O349  1  0.49406726  0.99539091  0.88128726  1
  O  O350  1  0.99061547  0.50990398  0.38553504  1
  O  O351  1  0.99228588  0.50023596  0.88301658  1
  O  O352  1  0.99388820  0.99993757  0.37743447  1
  O  O353  1  0.99313201  0.99515729  0.87460595  1
  O  O354  1  0.01223836  0.00620897  0.12121390  1
  O  O355  1  0.00860749  0.00878592  0.62488974  1
  O  O356  1  0.00557703  0.50578205  0.11967336  1
  O  O357  1  -0.00433266  0.51242315  0.61673298  1
  O  O358  1  0.50424741  0.00378303  0.12029913  1
  O  O359  1  0.50707117  0.01182687  0.63179228  1
  O  O360  1  0.50380360  0.50882918  0.12715454  1
  O  O361  1  0.50498218  0.50365004  0.62006154  1
  O  O362  1  0.24141314  0.38601682  0.24955985  1
  O  O363  1  0.25305999  0.36983095  0.73610380  1
  O  O364  1  0.24841793  0.88964969  0.25468852  1
  O  O365  1  0.25067193  0.88096353  0.73944095  1
  O  O366  1  0.74490867  0.38064611  0.24310856  1
  O  O367  1  0.74319172  0.38021855  0.74425660  1
  O  O368  1  0.74498816  0.88023237  0.24471125  1
  O  O369  1  0.74533590  0.88099614  0.74331501  1
  O  O370  1  0.25663958  0.11593425  0.25978242  1
  O  O371  1  0.25158073  0.11957793  0.75695221  1
  O  O372  1  0.24476927  0.61082907  0.26244121  1
  O  O373  1  0.26268953  0.63043617  0.75749060  1
  O  O374  1  0.75517530  0.11897388  0.25365921  1
  O  O375  1  0.75476698  0.12066885  0.75404485  1
  O  O376  1  0.75633425  0.61933988  0.25302380  1
  O  O377  1  0.74959266  0.61746343  0.75593574  1
  O  O378  1  0.36988812  0.11666278  0.36951326  1
  O  O379  1  0.36801166  0.11724174  0.87543289  1
  O  O380  1  0.36815360  0.61298011  0.37880847  1
  O  O381  1  0.37103034  0.61837789  0.86994801  1
  O  O382  1  0.86989846  0.11952878  0.36816277  1
  O  O383  1  0.86900554  0.12107002  0.86924919  1
  O  O384  1  0.86925693  0.61731257  0.36643793  1
  O  O385  1  0.86624651  0.61817933  0.87508513  1
  O  O386  1  0.12819191  0.38215863  0.13697525  1
  O  O387  1  0.13962303  0.37672252  0.63028132  1
  O  O388  1  0.12222845  0.88886122  0.12160961  1
  O  O389  1  0.13464385  0.88179248  0.62780981  1
  O  O390  1  0.62890470  0.38010551  0.12895336  1
  O  O391  1  0.62989556  0.37986181  0.63008632  1
  O  O392  1  0.62855893  0.88026830  0.12929539  1
  O  O393  1  0.63020888  0.88013688  0.62831075  1
  O  O394  1  0.11886846  0.25703513  0.25493775  1
  O  O395  1  0.11493391  0.24818182  0.75791323  1
  O  O396  1  0.12675720  0.75177441  0.26028086  1
  O  O397  1  0.11779844  0.75261631  0.75881501  1
  O  O398  1  0.62179232  0.25804998  0.25260791  1
  O  O399  1  0.61724233  0.25457258  0.75481907  1
  O  O400  1  0.61319131  0.75569204  0.25089684  1
  O  O401  1  0.62213193  0.75859934  0.75062075  1
  O  O402  1  0.37596670  0.24282008  0.24428551  1
  O  O403  1  0.38998760  0.24639660  0.75026535  1
  O  O404  1  0.38583967  0.75519995  0.24096570  1
  O  O405  1  0.37689446  0.74068626  0.74059978  1
  O  O406  1  0.88220126  0.24694082  0.24527256  1
  O  O407  1  0.88381948  0.24516154  0.74462029  1
  O  O408  1  0.87451516  0.73622787  0.25065450  1
  O  O409  1  0.88043719  0.75037191  0.74194556  1
  O  O410  1  0.38366764  0.49585054  0.48835972  1
  O  O411  1  0.37619572  0.49402568  0.99225348  1
  O  O412  1  0.37140448  0.99795991  0.48474745  1
  O  O413  1  0.37885847  0.99479217  0.99615000  1
  O  O414  1  0.88171512  0.49994192  0.49026087  1
  O  O415  1  0.87907547  0.49450874  0.99579858  1
  O  O416  1  0.87477034  0.99113670  0.49373778  1
  O  O417  1  0.87494024  0.99169578  0.99300373  1
  O  O418  1  0.12738564  0.00976108  0.00646591  1
  O  O419  1  0.12538874  -0.00616243  0.51445889  1
  O  O420  1  0.12023178  0.50621347  0.00638192  1
  O  O421  1  0.11380640  0.50415049  0.50380283  1
  O  O422  1  0.61895669  0.00519576  0.00511382  1
  O  O423  1  0.63141728  0.01180040  0.50612782  1
  O  O424  1  0.62162561  0.50886998  0.00695889  1
  O  O425  1  0.62087892  0.50582846  0.50610576  1
  O  O426  1  0.37381105  0.36806241  0.11964874  1
  O  O427  1  0.36434823  0.37228933  0.62331815  1
  O  O428  1  0.38293530  0.86151624  0.11814809  1
  O  O429  1  0.36991085  0.86695160  0.62615871  1
  O  O430  1  0.86800752  0.37001050  0.11956100  1
  O  O431  1  0.86783043  0.36876281  0.62510650  1
  O  O432  1  0.86965439  0.87757868  0.11504663  1
  O  O433  1  0.86983078  0.87251207  0.61614143  1
  O  O434  1  0.13514765  0.13459440  0.36634908  1
  O  O435  1  0.12975479  0.12939888  0.88371308  1
  O  O436  1  0.13511238  0.63352878  0.37641860  1
  O  O437  1  0.12865152  0.63182621  0.88240416  1
  O  O438  1  0.62971663  0.12242840  0.38242107  1
  O  O439  1  0.62997425  0.12949325  0.87991649  1
  O  O440  1  0.63120118  0.62491382  0.38221778  1
  O  O441  1  0.62714325  0.62216285  0.88493462  1
