# generated using pymatgen
data_V93Zn93O256
_symmetry_space_group_name_H-M   'P 1'
_cell_length_a   17.04763688
_cell_length_b   17.04638421
_cell_length_c   17.04905097
_cell_angle_alpha   90.01786657
_cell_angle_beta   89.90481999
_cell_angle_gamma   89.99669280
_symmetry_Int_Tables_number   1
_chemical_formula_structural   V93Zn93O256
_chemical_formula_sum   'V93 Zn93 O256'
_cell_volume   4954.45681360
_cell_formula_units_Z   1
loop_
 _symmetry_equiv_pos_site_id
 _symmetry_equiv_pos_as_xyz
  1  'x, y, z'
loop_
 _atom_site_type_symbol
 _atom_site_label
 _atom_site_symmetry_multiplicity
 _atom_site_fract_x
 _atom_site_fract_y
 _atom_site_fract_z
 _atom_site_occupancy
  V  V0  1  0.12579257  0.75485830  0.37216588  1
  V  V1  1  -0.00157522  0.49824467  0.49807929  1
  V  V2  1  0.12671435  0.49955752  0.62515049  1
  V  V3  1  0.00020823  0.49872266  -0.00008755  1
  V  V4  1  0.62331391  0.87178493  0.74993131  1
  V  V5  1  0.62305121  0.12416221  0.00212173  1
  V  V6  1  0.49946447  0.62970140  0.62715756  1
  V  V7  1  0.00226609  0.24931940  0.74962719  1
  V  V8  1  0.37504740  0.37466913  0.50006364  1
  V  V9  1  0.00017182  0.62511075  0.12543339  1
  V  V10  1  0.00070808  0.62682675  0.62576712  1
  V  V11  1  0.12734963  0.12599447  0.49898187  1
  V  V12  1  0.24284052  0.87372338  0.12923541  1
  V  V13  1  0.12394471  0.74890480  0.87466308  1
  V  V14  1  0.00150256  0.12483006  0.62455891  1
  V  V15  1  0.50122506  0.37468052  0.37081989  1
  V  V16  1  0.74843542  0.74971631  0.00045117  1
  V  V17  1  0.74767293  0.87539163  0.12546725  1
  V  V18  1  0.49832388  0.75063468  0.25189989  1
  V  V19  1  0.87367449  0.87769244  0.49987149  1
  V  V20  1  0.37377534  0.00049353  0.37568921  1
  V  V21  1  0.00654088  0.25729894  0.24814134  1
  V  V22  1  0.24940472  0.12304298  0.87484690  1
  V  V23  1  0.00162123  0.12447964  0.12363103  1
  V  V24  1  0.49860874  0.00287345  0.00307452  1
  V  V25  1  0.50005056  0.50151369  0.50062414  1
  V  V26  1  0.49935008  0.87023023  0.87310963  1
  V  V27  1  0.12536635  0.62261811  0.00000844  1
  V  V28  1  0.24372759  -0.00387710  0.25071264  1
  V  V29  1  0.12579264  0.62713906  0.50080083  1
  V  V30  1  0.12550448  0.12210319  -0.00054872  1
  V  V31  1  0.50122719  0.24496323  0.74248555  1
  V  V32  1  0.75056166  0.12671896  0.37511351  1
  V  V33  1  0.75017886  0.24976309  0.00006580  1
  V  V34  1  0.49924421  0.49939229  -0.00053635  1
  V  V35  1  0.12912884  -0.00661391  0.62459225  1
  V  V36  1  0.38198379  0.24409834  0.12347104  1
  V  V37  1  0.25019758  0.62344191  0.87515314  1
  V  V38  1  0.87600857  0.12510771  0.74936590  1
  V  V39  1  0.37492746  0.37293858  -0.00042940  1
  V  V40  1  0.37164890  0.62216980  0.25191726  1
  V  V41  1  0.37781348  0.62728881  0.75075463  1
  V  V42  1  0.24912205  0.75530157  0.50446993  1
  V  V43  1  0.12875679  0.37420430  0.74973746  1
  V  V44  1  0.62616617  0.50051599  0.62660379  1
  V  V45  1  0.62012214  0.00443497  0.12669825  1
  V  V46  1  0.87472012  0.50055901  0.87279810  1
  V  V47  1  0.74749983  0.75262124  0.50018284  1
  V  V48  1  0.37235595  0.74915303  0.12605278  1
  V  V49  1  0.75019063  0.62590546  0.37506258  1
  V  V50  1  0.12657714  0.24805022  0.87502398  1
  V  V51  1  0.62568762  0.25132975  0.37410852  1
  V  V52  1  0.24791316  0.37192132  0.13124235  1
  V  V53  1  0.87397111  0.25182508  0.12342965  1
  V  V54  1  0.37432884  0.49891804  0.87581976  1
  V  V55  1  0.25103616  0.24979286  0.49899600  1
  V  V56  1  0.87540199  0.25414496  0.62179785  1
  V  V57  1  0.00139385  0.37508170  0.87464926  1
  V  V58  1  0.62137988  0.12631336  0.50611576  1
  V  V59  1  0.37486615  0.50053628  0.37424490  1
  V  V60  1  0.62322318  0.25120522  0.87375534  1
  V  V61  1  0.00016558  -0.00065167  0.00038502  1
  V  V62  1  0.37292057  0.75329400  0.62760466  1
  V  V63  1  0.37454070  -0.00176088  0.87580974  1
  V  V64  1  0.87521036  0.00304981  0.37465256  1
  V  V65  1  0.87528389  0.75035317  0.12533905  1
  V  V66  1  0.49928892  0.62389521  0.12528596  1
  V  V67  1  0.87344150  0.87520325  -0.00004737  1
  V  V68  1  0.62275066  0.87522846  0.25009699  1
  V  V69  1  0.74909994  0.62370731  0.87486088  1
  V  V70  1  0.12478000  0.49351917  0.13230483  1
  V  V71  1  0.38144917  0.12280421  0.24591343  1
  V  V72  1  0.49954622  0.87535931  0.37612344  1
  V  V73  1  0.74925760  -0.00044302  0.74940520  1
  V  V74  1  0.00275368  0.75489618  0.24951824  1
  V  V75  1  0.24940939  0.74939293  0.00111848  1
  V  V76  1  0.87484660  0.00016036  0.87499540  1
  V  V77  1  -0.00037747  0.75041218  0.74983962  1
  V  V78  1  0.24991959  -0.00734694  0.74660567  1
  V  V79  1  0.00106734  0.87669798  0.37243495  1
  V  V80  1  0.00001796  0.87368538  0.87439042  1
  V  V81  1  0.62236312  0.74954787  0.87388588  1
  V  V82  1  0.25266027  0.37389123  0.62442444  1
  V  V83  1  0.00057215  0.00143965  0.49934696  1
  V  V84  1  0.87540179  0.75181371  0.62485025  1
  V  V85  1  0.75052948  0.12549127  0.87460590  1
  V  V86  1  0.37388232  0.87596945  0.50414203  1
  V  V87  1  0.37983264  0.12328960  0.74338704  1
  V  V88  1  0.62293093  0.62410450  0.00087177  1
  V  V89  1  0.49974430  0.00505669  0.50798670  1
  V  V90  1  0.87546904  0.12596860  0.25032372  1
  V  V91  1  0.12626310  0.25699140  0.37025426  1
  V  V92  1  0.74876084  0.50033534  0.24825490  1
  Zn  Zn93  1  0.74870743  0.49944722  0.74900962  1
  Zn  Zn94  1  0.25129303  0.24693425  0.00047808  1
  Zn  Zn95  1  0.12207940  -0.00410776  0.13001892  1
  Zn  Zn96  1  0.50281966  0.24467321  0.24539238  1
  Zn  Zn97  1  0.24943959  0.62468655  0.37592104  1
  Zn  Zn98  1  0.75123143  0.25368369  0.50039823  1
  Zn  Zn99  1  0.87470074  0.62570764  0.25022844  1
  Zn  Zn100  1  0.87380003  0.37401087  -0.00235881  1
  Zn  Zn101  1  0.49826259  0.37402954  0.87292354  1
  Zn  Zn102  1  0.74757119  0.87772340  0.62520384  1
  Zn  Zn103  1  0.25007484  0.12562523  0.37232369  1
  Zn  Zn104  1  0.87276019  0.37649217  0.49585319  1
  Zn  Zn105  1  0.62341394  0.62850092  0.50067516  1
  Zn  Zn106  1  0.24330998  0.49424560  0.25555951  1
  Zn  Zn107  1  0.25205973  0.49824623  0.74955090  1
  Zn  Zn108  1  0.62379051  0.75219022  0.37620389  1
  Zn  Zn109  1  0.75090414  0.37833811  0.62382017  1
  Zn  Zn110  1  0.74752839  0.37700567  0.12360276  1
  Zn  Zn111  1  0.37404799  0.87375505  0.00115972  1
  Zn  Zn112  1  0.74970267  -0.00024490  0.25042586  1
  Zn  Zn113  1  0.87248849  0.62653332  0.74878166  1
  Zn  Zn114  1  0.62660281  0.37458292  0.24686665  1
  Zn  Zn115  1  0.62282541  0.00506583  0.62973548  1
  Zn  Zn116  1  0.87569793  0.49776363  0.37280912  1
  Zn  Zn117  1  0.62429141  0.49659140  0.12460844  1
  Zn  Zn118  1  0.38075400  0.24583967  0.62064116  1
  Zn  Zn119  1  0.00164388  0.37931986  0.36994310  1
  Zn  Zn120  1  0.62485353  0.37519038  0.74832501  1
  Zn  Zn121  1  0.12859438  0.87135394  0.74687105  1
  Zn  Zn122  1  0.19138329  0.18349773  0.18665804  1
  Zn  Zn123  1  0.19129169  0.18454175  0.68627392  1
  Zn  Zn124  1  0.18562548  0.68506489  0.18763948  1
  Zn  Zn125  1  0.18936969  0.68601508  0.68891458  1
  Zn  Zn126  1  0.68822253  0.18626905  0.18902222  1
  Zn  Zn127  1  0.69073394  0.18902449  0.68754813  1
  Zn  Zn128  1  0.68520869  0.68743688  0.18815244  1
  Zn  Zn129  1  0.68832080  0.68758098  0.68946101  1
  Zn  Zn130  1  0.31474913  0.30951833  0.31121733  1
  Zn  Zn131  1  0.31431528  0.30956300  0.81176055  1
  Zn  Zn132  1  0.31198001  0.81415846  0.31456528  1
  Zn  Zn133  1  0.31300865  0.81063615  0.81362017  1
  Zn  Zn134  1  0.81558255  0.31679270  0.31295536  1
  Zn  Zn135  1  0.81051740  0.31666790  0.80730748  1
  Zn  Zn136  1  0.81311335  0.81399649  0.31194441  1
  Zn  Zn137  1  0.81039682  0.81173582  0.81248562  1
  Zn  Zn138  1  0.18791857  0.43788297  0.43807394  1
  Zn  Zn139  1  0.18980889  0.43523745  0.94123608  1
  Zn  Zn140  1  0.18837392  0.93625048  0.43721301  1
  Zn  Zn141  1  0.18730281  0.93513130  0.93848874  1
  Zn  Zn142  1  0.68921798  0.43863634  0.44115657  1
  Zn  Zn143  1  0.68873349  0.43585122  0.93940011  1
  Zn  Zn144  1  0.68612092  0.94061482  0.43659622  1
  Zn  Zn145  1  0.68624386  0.93772847  0.93723304  1
  Zn  Zn146  1  0.31121941  0.06052803  0.06398340  1
  Zn  Zn147  1  0.31062709  0.06256114  0.56246152  1
  Zn  Zn148  1  0.31084552  0.55940307  0.06412249  1
  Zn  Zn149  1  0.31140742  0.56373066  0.56152458  1
  Zn  Zn150  1  0.81017901  0.06333383  0.06360132  1
  Zn  Zn151  1  0.80893861  0.06562586  0.56252784  1
  Zn  Zn152  1  0.81308033  0.56325006  0.06175303  1
  Zn  Zn153  1  0.81341121  0.56647523  0.56152517  1
  Zn  Zn154  1  0.43549801  0.43589840  0.18474651  1
  Zn  Zn155  1  0.44003759  0.43559666  0.68980349  1
  Zn  Zn156  1  0.43336717  0.93575317  0.18714939  1
  Zn  Zn157  1  0.43859466  0.93612045  0.68942502  1
  Zn  Zn158  1  0.93358813  0.43867812  0.18757444  1
  Zn  Zn159  1  0.94098074  0.43793422  0.68788125  1
  Zn  Zn160  1  0.93653078  0.93773043  0.18785802  1
  Zn  Zn161  1  0.93855176  0.93651395  0.68696261  1
  Zn  Zn162  1  0.06255952  0.06951688  0.31322056  1
  Zn  Zn163  1  0.06324617  0.06046710  0.81163104  1
  Zn  Zn164  1  0.06146596  0.56925308  0.31367960  1
  Zn  Zn165  1  0.06241271  0.56238109  0.81022301  1
  Zn  Zn166  1  0.56200828  0.06133258  0.31695157  1
  Zn  Zn167  1  0.56173277  0.06107669  0.81514789  1
  Zn  Zn168  1  0.56540645  0.56395771  0.31329824  1
  Zn  Zn169  1  0.56027579  0.56296603  0.81253252  1
  Zn  Zn170  1  0.43727690  0.18632971  0.43373191  1
  Zn  Zn171  1  0.43668775  0.18516192  0.93461819  1
  Zn  Zn172  1  0.43675776  0.68821361  0.43906497  1
  Zn  Zn173  1  0.43622489  0.68704076  0.93929283  1
  Zn  Zn174  1  0.94132517  0.18904484  0.43599864  1
  Zn  Zn175  1  0.93903035  0.18705127  0.93706184  1
  Zn  Zn176  1  0.93573476  0.68676927  0.43806494  1
  Zn  Zn177  1  0.93684080  0.68594803  0.93840904  1
  Zn  Zn178  1  0.06359709  0.31178653  0.05976288  1
  Zn  Zn179  1  0.06470151  0.31349876  0.56123317  1
  Zn  Zn180  1  0.06279434  0.81188018  0.06071515  1
  Zn  Zn181  1  0.06028904  0.81406886  0.56010572  1
  Zn  Zn182  1  0.56306295  0.31527375  0.06129762  1
  Zn  Zn183  1  0.56299539  0.31476092  0.56047043  1
  Zn  Zn184  1  0.56034996  0.81334413  0.06278960  1
  Zn  Zn185  1  0.55999330  0.81511260  0.56491321  1
  O  O186  1  0.11895040  0.12250868  0.11722517  1
  O  O187  1  0.12038208  0.11629840  0.61940557  1
  O  O188  1  0.11999185  0.61600282  0.11869265  1
  O  O189  1  0.12065610  0.62031501  0.62014569  1
  O  O190  1  0.62941625  0.11232467  0.11967038  1
  O  O191  1  0.62993246  0.12703059  0.60993932  1
  O  O192  1  0.61611464  0.62497929  0.11791356  1
  O  O193  1  0.61377011  0.62122239  0.62621166  1
  O  O194  1  0.38287396  0.37960613  0.37956115  1
  O  O195  1  0.37380400  0.38008426  0.88201773  1
  O  O196  1  0.38025078  0.88061565  0.38348977  1
  O  O197  1  0.38341977  0.87889783  0.87599614  1
  O  O198  1  0.88379321  0.37931514  0.37866280  1
  O  O199  1  0.88235820  0.38356627  0.87384507  1
  O  O200  1  0.88065997  0.88297606  0.38019947  1
  O  O201  1  0.87906402  0.88025790  0.88113011  1
  O  O202  1  0.25609405  -0.00158806  0.36729081  1
  O  O203  1  0.25433961  0.00320826  0.86737133  1
  O  O204  1  0.25674022  0.50313863  0.37251605  1
  O  O205  1  0.25643481  0.50654504  0.87560112  1
  O  O206  1  0.75743840  0.00791148  0.37359327  1
  O  O207  1  0.75574395  0.00579738  0.87087719  1
  O  O208  1  0.74928126  0.51045356  0.36831717  1
  O  O209  1  0.75941062  0.50477249  0.87621738  1
  O  O210  1  0.24116437  0.49073355  0.12659081  1
  O  O211  1  0.24398749  0.49292115  0.62437515  1
  O  O212  1  0.24884347  0.99001077  0.13288924  1
  O  O213  1  0.24005484  1.00494044  0.63434849  1
  O  O214  1  0.74866448  0.50169810  0.13451360  1
  O  O215  1  0.73762970  0.50627221  0.62476413  1
  O  O216  1  0.73868881  0.99361869  0.12525006  1
  O  O217  1  0.74659747  0.99842954  0.63338737  1
  O  O218  1  -0.00209661  0.36033552  0.24634363  1
  O  O219  1  0.00913352  0.36888800  0.75522523  1
  O  O220  1  -0.00451129  0.86311736  0.25532977  1
  O  O221  1  0.00220091  0.86881017  0.75743489  1
  O  O222  1  0.49976274  0.37509447  0.26308411  1
  O  O223  1  0.50274574  0.36196058  0.75487802  1
  O  O224  1  0.50192236  0.87006024  0.25599539  1
  O  O225  1  0.50981158  0.88220543  0.76352009  1
  O  O226  1  0.48580607  0.12286932  0.25486791  1
  O  O227  1  0.48989256  0.13059196  0.75735792  1
  O  O228  1  0.49105564  0.62983325  0.24642694  1
  O  O229  1  0.48769079  0.62279883  0.74072150  1
  O  O230  1  0.99457791  0.13419443  0.24277153  1
  O  O231  1  0.99550900  0.12946672  0.74488186  1
  O  O232  1  0.99676052  0.63743876  0.24391185  1
  O  O233  1  0.99894012  0.63303851  0.74326476  1
  O  O234  1  0.37444302  0.25185782  0.00688361  1
  O  O235  1  0.37075785  0.25542310  0.50006419  1
  O  O236  1  0.36635792  0.74864488  0.00826762  1
  O  O237  1  0.36705185  0.75431269  0.50743767  1
  O  O238  1  0.87029879  0.24772738  0.00823074  1
  O  O239  1  0.87859594  0.24946851  0.51171861  1
  O  O240  1  0.86895652  0.75597632  0.00507961  1
  O  O241  1  0.86721564  0.75740138  0.50424801  1
  O  O242  1  0.13004174  0.24520417  0.49209915  1
  O  O243  1  0.12637175  0.24057859  0.99214246  1
  O  O244  1  0.13125959  0.74736190  0.49494764  1
  O  O245  1  0.12935515  0.74177057  0.99435392  1
  O  O246  1  0.62323508  0.24309828  0.48936010  1
  O  O247  1  0.62849500  0.24332246  0.99275859  1
  O  O248  1  0.63585314  0.75221208  0.50045439  1
  O  O249  1  0.62932489  0.74482128  0.99509605  1
  O  O250  1  0.48605997  0.25586169  0.12698101  1
  O  O251  1  0.50163720  0.25225607  0.63788348  1
  O  O252  1  0.49216360  0.74486596  0.13093863  1
  O  O253  1  0.48804901  0.73819999  0.61780134  1
  O  O254  1  0.99393324  0.24459044  0.12883508  1
  O  O255  1  0.99630136  0.24430762  0.63014251  1
  O  O256  1  0.99707378  0.74662188  0.13173025  1
  O  O257  1  0.99570920  0.74656751  0.62911438  1
  O  O258  1  0.00925175  0.24953240  0.36417281  1
  O  O259  1  0.00602291  0.25438437  0.86871212  1
  O  O260  1  0.00541822  0.75483802  0.36903522  1
  O  O261  1  0.00413171  0.75373221  0.87070271  1
  O  O262  1  0.50821973  0.25909163  0.37386178  1
  O  O263  1  0.51022813  0.24771226  0.86736408  1
  O  O264  1  0.49994998  0.75751101  0.37069503  1
  O  O265  1  0.50524960  0.76234045  0.88404894  1
  O  O266  1  0.24480886  0.13180712  0.49777995  1
  O  O267  1  0.24374493  0.12258878  0.99219948  1
  O  O268  1  0.24494686  0.63727091  0.49788645  1
  O  O269  1  0.24466574  0.62924212  0.99551324  1
  O  O270  1  0.74012478  0.12898798  0.49190233  1
  O  O271  1  0.74359836  0.12990700  0.99363981  1
  O  O272  1  0.74902734  0.63692090  0.49260358  1
  O  O273  1  0.74321852  0.63080681  0.99488078  1
  O  O274  1  0.25736158  0.37086239  0.01088660  1
  O  O275  1  0.25618735  0.36928111  0.50464730  1
  O  O276  1  0.25199734  0.86767568  0.00878286  1
  O  O277  1  0.25685274  0.86322749  0.49735028  1
  O  O278  1  0.75423541  0.36478612  0.00229227  1
  O  O279  1  0.75473666  0.37169864  0.50621388  1
  O  O280  1  0.75379470  0.86951087  0.00469574  1
  O  O281  1  0.75464764  0.86850122  0.49992563  1
  O  O282  1  0.12404805  0.50756266  0.23623652  1
  O  O283  1  0.12704321  0.49252723  0.74326983  1
  O  O284  1  0.13922824  1.00804630  0.25060327  1
  O  O285  1  0.13314579  0.99923718  0.74197233  1
  O  O286  1  0.63581740  0.49969053  0.24823383  1
  O  O287  1  0.62254681  0.50002741  0.73897740  1
  O  O288  1  0.62346383  0.99528145  0.24158236  1
  O  O289  1  0.63035772  0.99223966  0.75173381  1
  O  O290  1  0.36790143  0.00504821  0.25448952  1
  O  O291  1  0.36919784  0.00446003  0.75413055  1
  O  O292  1  0.37590268  0.50942256  0.25518577  1
  O  O293  1  0.37435775  0.50953833  0.75610990  1
  O  O294  1  0.87492380  0.00786700  0.25659802  1
  O  O295  1  0.87091349  0.00518941  0.75565976  1
  O  O296  1  0.86466159  0.50557749  0.25114238  1
  O  O297  1  0.87730990  0.50302352  0.76241136  1
  O  O298  1  0.12270640  0.36126944  0.37884205  1
  O  O299  1  0.12181485  0.36890114  0.87034839  1
  O  O300  1  0.11711064  0.86222791  0.38211141  1
  O  O301  1  0.11747635  0.86636371  0.87483446  1
  O  O302  1  0.61707742  0.36741097  0.37597607  1
  O  O303  1  0.62454215  0.36012559  0.87525285  1
  O  O304  1  0.61758800  0.87607791  0.36794944  1
  O  O305  1  0.61822445  0.87067278  0.86971334  1
  O  O306  1  0.36967250  0.13324665  0.13244445  1
  O  O307  1  0.37021995  0.12549622  0.63964450  1
  O  O308  1  0.37872971  0.62856806  0.13345320  1
  O  O309  1  0.38053770  0.63057756  0.63163992  1
  O  O310  1  0.88049839  0.13322526  0.12855850  1
  O  O311  1  0.88184923  0.13230984  0.63010897  1
  O  O312  1  0.88304727  0.63373852  0.12334257  1
  O  O313  1  0.88312795  0.63404516  0.62610755  1
  O  O314  1  0.25894481  0.25612018  0.12319737  1
  O  O315  1  0.25243010  0.25622694  0.61717137  1
  O  O316  1  0.25219579  0.75488696  0.12192094  1
  O  O317  1  0.25977157  0.74402000  0.61510981  1
  O  O318  1  0.76012423  0.24703821  0.11975612  1
  O  O319  1  0.76468494  0.25021835  0.62431297  1
  O  O320  1  0.75422433  0.75537139  0.11962374  1
  O  O321  1  0.75542233  0.75163643  0.61525318  1
  O  O322  1  0.24269847  0.24975597  0.37985401  1
  O  O323  1  0.24383218  0.24094334  0.87521723  1
  O  O324  1  0.24140852  0.75013592  0.38338306  1
  O  O325  1  0.24430685  0.74339400  0.88071735  1
  O  O326  1  0.74027591  0.24635797  0.37461827  1
  O  O327  1  0.74299294  0.24438674  0.87819261  1
  O  O328  1  0.74990793  0.74534771  0.38393931  1
  O  O329  1  0.74382093  0.74433548  0.88218590  1
  O  O330  1  0.00475940  0.11826558  0.00385055  1
  O  O331  1  0.00752109  0.11944542  0.50478128  1
  O  O332  1  0.00618406  0.61912063  0.00562836  1
  O  O333  1  0.00627451  0.61994551  0.50570829  1
  O  O334  1  0.50626752  0.10972630  -0.00835843  1
  O  O335  1  0.50871922  0.11547413  0.49159958  1
  O  O336  1  0.50337304  0.61946952  0.00568535  1
  O  O337  1  0.49909977  0.61978363  0.50992420  1
  O  O338  1  0.49490458  0.38067222  0.48988357  1
  O  O339  1  0.49194818  0.38131551  0.99643959  1
  O  O340  1  0.49420123  0.88386992  0.49567191  1
  O  O341  1  0.49914863  0.88497880  0.99102779  1
  O  O342  1  1.00207734  0.38974198  0.50066870  1
  O  O343  1  0.99831177  0.38057109  0.99178688  1
  O  O344  1  0.99312004  0.88226097  0.49274491  1
  O  O345  1  0.99283817  0.87899794  0.99486668  1
  O  O346  1  0.49646308  0.49341526  0.38005481  1
  O  O347  1  0.49183049  0.49902375  0.88169402  1
  O  O348  1  0.49300819  0.99397024  0.38513167  1
  O  O349  1  0.49523778  0.99022635  0.88385777  1
  O  O350  1  1.00194438  0.50190666  0.38481211  1
  O  O351  1  0.99412867  0.49598101  0.87968328  1
  O  O352  1  0.99604943  0.99765960  0.37967141  1
  O  O353  1  0.99359861  0.99443645  0.87987979  1
  O  O354  1  0.00109612  0.00506711  0.11917847  1
  O  O355  1  0.00744924  0.00610943  0.61955061  1
  O  O356  1  0.00584573  0.50333707  0.12036352  1
  O  O357  1  0.00705329  0.50665899  0.61824857  1
  O  O358  1  0.50892433  -0.00921951  0.11468254  1
  O  O359  1  0.50081302  -0.00328315  0.61157404  1
  O  O360  1  0.49935036  0.50653297  0.11764467  1
  O  O361  1  0.50504200  0.50980491  0.62061390  1
  O  O362  1  0.25764754  0.37641598  0.23575369  1
  O  O363  1  0.24599898  0.37524888  0.74325887  1
  O  O364  1  0.25602071  0.88418936  0.24159952  1
  O  O365  1  0.24975325  0.88877215  0.75490468  1
  O  O366  1  0.74967872  0.38770030  0.24856879  1
  O  O367  1  0.74354318  0.38103766  0.74226684  1
  O  O368  1  0.74254757  0.87667142  0.24355903  1
  O  O369  1  0.73999509  0.88166955  0.75175559  1
  O  O370  1  0.26173482  0.11388947  0.25048022  1
  O  O371  1  0.25781309  0.11452720  0.75587699  1
  O  O372  1  0.26231172  0.62362575  0.25126539  1
  O  O373  1  0.25993636  0.62098163  0.75635035  1
  O  O374  1  0.75782722  0.12319939  0.25731722  1
  O  O375  1  0.75646651  0.11968822  0.75579806  1
  O  O376  1  0.75020939  0.62038986  0.25821680  1
  O  O377  1  0.75250361  0.62189492  0.75970592  1
  O  O378  1  0.37128606  0.11816787  0.36590041  1
  O  O379  1  0.36907657  0.11682508  0.86607038  1
  O  O380  1  0.37550683  0.61975828  0.36695600  1
  O  O381  1  0.37091801  0.62149338  0.86777280  1
  O  O382  1  0.87130394  0.12240673  0.37032629  1
  O  O383  1  0.87073314  0.12012190  0.86900973  1
  O  O384  1  0.86169406  0.62428933  0.37384112  1
  O  O385  1  0.86915078  0.61588773  0.87569481  1
  O  O386  1  0.13420008  0.38287339  0.11833791  1
  O  O387  1  0.13213523  0.37947986  0.63037921  1
  O  O388  1  0.13795107  0.87447310  0.12223628  1
  O  O389  1  0.11877051  0.88958377  0.62546975  1
  O  O390  1  0.62879747  0.37740628  0.12920262  1
  O  O391  1  0.62275115  0.38967141  0.62426085  1
  O  O392  1  0.62836401  0.88326436  0.12985223  1
  O  O393  1  0.62390399  0.87746300  0.63855718  1
  O  O394  1  0.11746580  0.24103284  0.25762180  1
  O  O395  1  0.12134600  0.25330721  0.75458926  1
  O  O396  1  0.11510613  0.74363080  0.26057702  1
  O  O397  1  0.11986431  0.75122861  0.75590056  1
  O  O398  1  0.62142099  0.24959977  0.26125599  1
  O  O399  1  0.61828582  0.24572106  0.75841385  1
  O  O400  1  0.61549798  0.75757797  0.25059620  1
  O  O401  1  0.63046445  0.76252664  0.75844209  1
  O  O402  1  0.37681138  0.23950080  0.24209126  1
  O  O403  1  0.38417495  0.23968069  0.74978156  1
  O  O404  1  0.37855977  0.74145608  0.24720408  1
  O  O405  1  0.36657673  0.73858714  0.74035265  1
  O  O406  1  0.88333111  0.24499976  0.24110667  1
  O  O407  1  0.88243401  0.24466453  0.74278338  1
  O  O408  1  0.88415722  0.74940313  0.24351854  1
  O  O409  1  0.88108680  0.75037583  0.74360582  1
  O  O410  1  0.38017420  0.49531465  0.49378266  1
  O  O411  1  0.37957816  0.49463714  0.99532974  1
  O  O412  1  0.38042321  0.99655593  0.49704232  1
  O  O413  1  0.38311757  0.99822033  0.99519689  1
  O  O414  1  0.88862452  0.50300093  0.49982120  1
  O  O415  1  0.88144954  0.49859667  0.98959565  1
  O  O416  1  0.88104429  0.99851817  0.49484527  1
  O  O417  1  0.87942053  0.99541945  0.99486317  1
  O  O418  1  0.11693768  0.00456929  0.00069450  1
  O  O419  1  0.12157121  0.00447530  0.50595084  1
  O  O420  1  0.11939636  0.50391101  0.00864293  1
  O  O421  1  0.11904752  0.50712156  0.50520301  1
  O  O422  1  0.61813974  0.00346101  0.00694410  1
  O  O423  1  0.61629650  0.00889625  0.50043984  1
  O  O424  1  0.61800503  0.50687676  -0.00083897  1
  O  O425  1  0.61789307  0.50548227  0.50951866  1
  O  O426  1  0.36774578  0.36611430  0.11894244  1
  O  O427  1  0.37109751  0.37378570  0.61738222  1
  O  O428  1  0.36363797  0.86648764  0.12354447  1
  O  O429  1  0.38336421  0.86103439  0.62137047  1
  O  O430  1  0.87391982  0.36098098  0.12173058  1
  O  O431  1  0.87939198  0.36360056  0.62455974  1
  O  O432  1  0.86841579  0.87051304  0.11891907  1
  O  O433  1  0.87331208  0.87012173  0.61725084  1
  O  O434  1  0.12800711  0.13612368  0.38225310  1
  O  O435  1  0.12910736  0.12836139  0.87907811  1
  O  O436  1  0.12607718  0.63885890  0.38243863  1
  O  O437  1  0.12996831  0.62875497  0.88016433  1
  O  O438  1  0.62940565  0.13335085  0.38168480  1
  O  O439  1  0.63112777  0.13238703  0.88073699  1
  O  O440  1  0.63617105  0.63085140  0.37864612  1
  O  O441  1  0.62792837  0.63031435  0.88065271  1
