# generated using pymatgen
data_V93Zn93O256
_symmetry_space_group_name_H-M   'P 1'
_cell_length_a   17.04204434
_cell_length_b   17.04235717
_cell_length_c   17.04185817
_cell_angle_alpha   89.92847538
_cell_angle_beta   89.96883370
_cell_angle_gamma   89.97684615
_symmetry_Int_Tables_number   1
_chemical_formula_structural   V93Zn93O256
_chemical_formula_sum   'V93 Zn93 O256'
_cell_volume   4949.57446700
_cell_formula_units_Z   1
loop_
 _symmetry_equiv_pos_site_id
 _symmetry_equiv_pos_as_xyz
  1  'x, y, z'
loop_
 _atom_site_type_symbol
 _atom_site_label
 _atom_site_symmetry_multiplicity
 _atom_site_fract_x
 _atom_site_fract_y
 _atom_site_fract_z
 _atom_site_occupancy
  V  V0  1  0.00263764  0.75018019  0.75046526  1
  V  V1  1  0.37493630  0.00053948  0.87488092  1
  V  V2  1  0.38082114  0.87686163  0.49874270  1
  V  V3  1  0.87723390  0.62356453  0.75039669  1
  V  V4  1  0.49673739  0.25113612  0.24885054  1
  V  V5  1  0.12738613  0.62543355  0.50230933  1
  V  V6  1  0.25528727  0.61874704  0.37701478  1
  V  V7  1  0.74390069  0.24827721  0.49917117  1
  V  V8  1  0.87718198  0.75116648  0.62524795  1
  V  V9  1  0.87544555  0.62378711  0.25076380  1
  V  V10  1  0.12570146  0.75028135  0.37621927  1
  V  V11  1  0.62032768  0.25134897  0.37575911  1
  V  V12  1  0.12674727  0.00669640  0.62216697  1
  V  V13  1  0.25183477  0.75019121  0.50065859  1
  V  V14  1  0.00058102  0.87381490  0.87440220  1
  V  V15  1  0.37543392  0.61899173  0.25275185  1
  V  V16  1  0.24951179  0.87393399  0.12548842  1
  V  V17  1  0.00025589  0.62376546  0.12583217  1
  V  V18  1  0.87344006  0.87400409  0.00090493  1
  V  V19  1  0.12333338  0.24850846  0.87389274  1
  V  V20  1  0.87607476  0.25027491  0.62293104  1
  V  V21  1  0.50021957  0.75093389  0.25219176  1
  V  V22  1  0.37696778  0.12573276  0.75039618  1
  V  V23  1  0.37729674  0.75129755  0.62632413  1
  V  V24  1  0.75077874  0.87465327  0.12461857  1
  V  V25  1  0.12501586  0.62374805  0.00142543  1
  V  V26  1  0.37195318  0.38094861  -0.00576978  1
  V  V27  1  0.49917248  0.25097552  0.74786952  1
  V  V28  1  -0.00078914  0.49939418  0.00073843  1
  V  V29  1  0.50156841  0.62532315  0.62464450  1
  V  V30  1  -0.00007389  -0.00122875  0.00034581  1
  V  V31  1  0.75004938  0.49927834  0.25079429  1
  V  V32  1  0.62376210  0.37674957  0.74831178  1
  V  V33  1  0.87371264  0.12522975  0.25007401  1
  V  V34  1  0.37259114  0.25003469  0.12555143  1
  V  V35  1  0.75081871  0.74854518  0.49891397  1
  V  V36  1  0.74836882  0.62613920  0.87659661  1
  V  V37  1  0.00262843  0.62546852  0.62600639  1
  V  V38  1  0.00541333  0.25357774  0.25050006  1
  V  V39  1  0.49917662  0.00053029  0.00007216  1
  V  V40  1  0.49499027  0.50050951  0.49271342  1
  V  V41  1  0.74819997  0.37504741  0.12508634  1
  V  V42  1  0.37194702  0.00566727  0.37486103  1
  V  V43  1  0.12654276  0.37557231  0.74890076  1
  V  V44  1  0.74373714  0.12586907  0.37702842  1
  V  V45  1  0.24453430  0.49750022  0.25165760  1
  V  V46  1  0.37029356  0.37974976  0.49370025  1
  V  V47  1  0.62294186  0.12618103  -0.00140881  1
  V  V48  1  0.00896126  0.37410801  0.37358481  1
  V  V49  1  0.87579146  0.49811416  0.37507695  1
  V  V50  1  0.00080911  0.49896439  0.50025055  1
  V  V51  1  0.74992452  0.12586276  0.87398222  1
  V  V52  1  0.50141541  0.87535979  0.87488789  1
  V  V53  1  0.62697097  0.00439793  0.61750751  1
  V  V54  1  0.75261359  0.87599381  0.62578211  1
  V  V55  1  0.62605524  0.87614102  0.75011388  1
  V  V56  1  0.74847206  0.25126136  -0.00006380  1
  V  V57  1  0.25404856  0.61735313  0.87625524  1
  V  V58  1  0.62534747  0.50088559  0.62243387  1
  V  V59  1  0.37471641  0.74946907  0.12718628  1
  V  V60  1  0.24252596  0.37558076  0.12952899  1
  V  V61  1  0.37664727  0.61793597  0.75457522  1
  V  V62  1  0.25184790  0.87559796  0.62670348  1
  V  V63  1  0.12600628  0.23400974  0.37808012  1
  V  V64  1  0.24619069  0.23650182  0.49783948  1
  V  V65  1  0.37538251  0.87453626  0.00072970  1
  V  V66  1  0.12739719  0.49928650  0.62721226  1
  V  V67  1  0.49892089  0.50192538  -0.00263222  1
  V  V68  1  0.12667191  0.87466209  0.75023631  1
  V  V69  1  0.87672449  0.12559988  0.74795056  1
  V  V70  1  0.00025314  0.74851261  0.25114148  1
  V  V71  1  0.24795402  0.25011662  0.00094251  1
  V  V72  1  0.74913819  0.37600118  0.62395780  1
  V  V73  1  -0.00045645  0.37450283  0.87553480  1
  V  V74  1  0.49580360  0.37860755  0.87337210  1
  V  V75  1  0.24945999  0.00501798  0.25416710  1
  V  V76  1  0.87502707  0.49900942  0.87439251  1
  V  V77  1  0.62358890  0.25152354  0.87358733  1
  V  V78  1  0.00387548  0.00591145  0.49709570  1
  V  V79  1  0.12330891  0.12266713  -0.00113813  1
  V  V80  1  0.50199613  0.75115386  0.75093266  1
  V  V81  1  0.62438622  0.87419221  0.25030390  1
  V  V82  1  0.74825403  0.00080816  0.25056781  1
  V  V83  1  0.25002993  0.74810808  0.00066367  1
  V  V84  1  0.87304367  0.25025699  0.12477564  1
  V  V85  1  0.12429929  0.87303928  0.25181446  1
  V  V86  1  0.50465607  0.12651969  0.61792629  1
  V  V87  1  0.12382754  -0.00126083  0.12472961  1
  V  V88  1  0.49687087  0.12668170  0.12484549  1
  V  V89  1  0.62307709  0.37652652  0.24850490  1
  V  V90  1  0.87498183  0.00030288  0.87365042  1
  V  V91  1  0.62335202  0.00099556  0.12524704  1
  V  V92  1  0.25038859  0.12392010  0.87466758  1
  Zn  Zn93  1  0.87780615  0.87507597  0.49772793  1
  Zn  Zn94  1  0.62459034  0.62718377  0.00343487  1
  Zn  Zn95  1  0.00102548  0.24992173  0.74728788  1
  Zn  Zn96  1  0.50312742  0.87761899  0.37492754  1
  Zn  Zn97  1  0.50530231  0.00746617  0.49379098  1
  Zn  Zn98  1  0.12667281  0.74939572  0.87556227  1
  Zn  Zn99  1  0.74992161  0.50087533  0.74858243  1
  Zn  Zn100  1  0.25630070  0.49651065  0.75271804  1
  Zn  Zn101  1  0.36952464  0.12779390  0.25375246  1
  Zn  Zn102  1  0.62443287  0.62512576  0.49720975  1
  Zn  Zn103  1  -0.00242788  0.87297399  0.37762972  1
  Zn  Zn104  1  0.62675261  0.75103463  0.87801755  1
  Zn  Zn105  1  0.37336228  0.24961354  0.62188096  1
  Zn  Zn106  1  -0.00153620  0.12458104  0.12420068  1
  Zn  Zn107  1  0.87326081  0.74870616  0.12543732  1
  Zn  Zn108  1  0.74797016  0.74901132  0.00278429  1
  Zn  Zn109  1  0.62406997  0.50268916  0.12498905  1
  Zn  Zn110  1  0.62705028  0.75047719  0.37646500  1
  Zn  Zn111  1  0.12055122  0.49465342  0.12971825  1
  Zn  Zn112  1  0.49157135  0.38283314  0.36897068  1
  Zn  Zn113  1  0.75014461  0.00047450  0.74823083  1
  Zn  Zn114  1  0.25291483  0.37544262  0.62396649  1
  Zn  Zn115  1  0.74903705  0.62455647  0.37532558  1
  Zn  Zn116  1  0.25090511  0.00024121  0.74924602  1
  Zn  Zn117  1  0.87323379  0.37411642  -0.00116072  1
  Zn  Zn118  1  0.87603333  0.37459679  0.49832018  1
  Zn  Zn119  1  0.87365561  -0.00126653  0.37790492  1
  Zn  Zn120  1  0.00666836  0.12908972  0.61971980  1
  Zn  Zn121  1  0.50169763  0.62241320  0.12517764  1
  Zn  Zn122  1  0.18373584  0.18673838  0.18650382  1
  Zn  Zn123  1  0.19182832  0.18936993  0.68702695  1
  Zn  Zn124  1  0.18653067  0.68515381  0.18780426  1
  Zn  Zn125  1  0.19085335  0.68787953  0.68982770  1
  Zn  Zn126  1  0.68425221  0.18902964  0.18753421  1
  Zn  Zn127  1  0.68704704  0.18813208  0.68719968  1
  Zn  Zn128  1  0.68723419  0.68556665  0.18642768  1
  Zn  Zn129  1  0.68853846  0.68754809  0.68771410  1
  Zn  Zn130  1  0.30828057  0.31186226  0.31502164  1
  Zn  Zn131  1  0.31151712  0.30969689  0.81248317  1
  Zn  Zn132  1  0.31228283  0.81362164  0.31428583  1
  Zn  Zn133  1  0.31325243  0.80919668  0.81400143  1
  Zn  Zn134  1  0.81440739  0.31486813  0.31261415  1
  Zn  Zn135  1  0.81128274  0.31368454  0.81060312  1
  Zn  Zn136  1  0.81555255  0.81397599  0.31311297  1
  Zn  Zn137  1  0.81327943  0.81114387  0.81137891  1
  Zn  Zn138  1  0.18727102  0.43496462  0.43804854  1
  Zn  Zn139  1  0.18433650  0.43776973  0.93870647  1
  Zn  Zn140  1  0.18789560  0.93799865  0.43835056  1
  Zn  Zn141  1  0.18806332  0.93650294  0.93659421  1
  Zn  Zn142  1  0.68536039  0.43625927  0.43685742  1
  Zn  Zn143  1  0.68503865  0.43992714  0.93708065  1
  Zn  Zn144  1  0.68938532  0.93322405  0.43724739  1
  Zn  Zn145  1  0.68854032  0.93899010  0.93713825  1
  Zn  Zn146  1  0.31054829  0.06196126  0.06375768  1
  Zn  Zn147  1  0.31669978  0.06096005  0.56468823  1
  Zn  Zn148  1  0.31245327  0.56129452  0.06658049  1
  Zn  Zn149  1  0.31441474  0.56122660  0.56729881  1
  Zn  Zn150  1  0.81143039  0.06192053  0.06173003  1
  Zn  Zn151  1  0.81406414  0.06277255  0.55993195  1
  Zn  Zn152  1  0.81350703  0.56105581  0.06305999  1
  Zn  Zn153  1  0.81451473  0.56401651  0.56197750  1
  Zn  Zn154  1  0.43352274  0.43728008  0.18314670  1
  Zn  Zn155  1  0.43872337  0.43592993  0.67952971  1
  Zn  Zn156  1  0.43657593  0.93765574  0.18844554  1
  Zn  Zn157  1  0.44084475  0.94142745  0.68697532  1
  Zn  Zn158  1  0.93561932  0.43534463  0.18739025  1
  Zn  Zn159  1  0.93920761  0.43687709  0.68829804  1
  Zn  Zn160  1  0.93718611  0.93594613  0.18902305  1
  Zn  Zn161  1  0.94018419  0.93857767  0.68538603  1
  Zn  Zn162  1  0.06169531  0.06176615  0.31049307  1
  Zn  Zn163  1  0.06214125  0.06041840  0.80948376  1
  Zn  Zn164  1  0.06403446  0.56396917  0.31511198  1
  Zn  Zn165  1  0.06510768  0.56214680  0.81569295  1
  Zn  Zn166  1  0.55877949  0.06361502  0.31214788  1
  Zn  Zn167  1  0.56300055  0.06180001  0.80835008  1
  Zn  Zn168  1  0.56718119  0.56684626  0.31367768  1
  Zn  Zn169  1  0.56297516  0.56098991  0.81361016  1
  Zn  Zn170  1  0.43270795  0.19128108  0.43769886  1
  Zn  Zn171  1  0.43556935  0.19108126  0.93730672  1
  Zn  Zn172  1  0.43815861  0.68741606  0.43691857  1
  Zn  Zn173  1  0.43764025  0.68827665  0.93622927  1
  Zn  Zn174  1  0.93556233  0.18645895  0.43671720  1
  Zn  Zn175  1  0.93740635  0.18794975  0.93703852  1
  Zn  Zn176  1  0.93683104  0.68563773  0.43768064  1
  Zn  Zn177  1  0.93556659  0.68836081  0.93860993  1
  Zn  Zn178  1  0.05979229  0.31029037  0.06154506  1
  Zn  Zn179  1  0.06523880  0.31199416  0.55985991  1
  Zn  Zn180  1  0.06162396  0.81024367  0.06341173  1
  Zn  Zn181  1  0.06352720  0.81757528  0.56292766  1
  Zn  Zn182  1  0.56067513  0.31524892  0.06213602  1
  Zn  Zn183  1  0.55933741  0.31624521  0.56046736  1
  Zn  Zn184  1  0.56435502  0.80973794  0.06375754  1
  Zn  Zn185  1  0.56653400  0.81394132  0.56520142  1
  O  O186  1  0.12179125  0.11728241  0.11657304  1
  O  O187  1  0.12558784  0.11083349  0.63351228  1
  O  O188  1  0.11858235  0.62173260  0.11877995  1
  O  O189  1  0.12202167  0.62046947  0.62145534  1
  O  O190  1  0.61768823  0.12114984  0.11869599  1
  O  O191  1  0.61701131  0.11598468  0.63130607  1
  O  O192  1  0.61962774  0.62028728  0.12218947  1
  O  O193  1  0.61855938  0.61878195  0.62378444  1
  O  O194  1  0.37499851  0.37186627  0.38785738  1
  O  O195  1  0.37875684  0.36802789  0.88665318  1
  O  O196  1  0.37618420  0.88226222  0.38470706  1
  O  O197  1  0.38064716  0.88019504  0.88141658  1
  O  O198  1  0.88717789  0.37955706  0.37661601  1
  O  O199  1  0.88112016  0.38022994  0.87418482  1
  O  O200  1  0.87967714  0.88247930  0.37745873  1
  O  O201  1  0.88050371  0.88116684  0.87910421  1
  O  O202  1  0.25819506  -0.00786934  0.36399509  1
  O  O203  1  0.25725143  0.00630833  0.87440540  1
  O  O204  1  0.24455085  0.51152657  0.36902923  1
  O  O205  1  0.24722352  0.51326703  0.87444910  1
  O  O206  1  0.74680671  0.01172102  0.37021364  1
  O  O207  1  0.75712488  0.00822525  0.87222852  1
  O  O208  1  0.75800771  0.49756457  0.36917645  1
  O  O209  1  0.75612125  0.50774966  0.87201657  1
  O  O210  1  0.24692876  0.49163381  0.13315767  1
  O  O211  1  0.24130659  0.49804039  0.63057583  1
  O  O212  1  0.24435019  0.99238327  0.13170884  1
  O  O213  1  0.24353860  0.99390046  0.62542477  1
  O  O214  1  0.74994126  0.49182692  0.13265349  1
  O  O215  1  0.74437955  0.49372293  0.62372154  1
  O  O216  1  0.74239016  0.99689409  0.13078723  1
  O  O217  1  0.74360528  0.99640610  0.62496539  1
  O  O218  1  -0.00656699  0.36172931  0.25904952  1
  O  O219  1  0.01075375  0.37273724  0.75623789  1
  O  O220  1  0.00770563  0.86788851  0.25188548  1
  O  O221  1  0.00605523  0.86995795  0.75480647  1
  O  O222  1  0.50210896  0.36948566  0.25026769  1
  O  O223  1  0.50364179  0.37082151  0.75321944  1
  O  O224  1  0.50509545  0.86630758  0.24877533  1
  O  O225  1  0.50498442  0.87099792  0.75487643  1
  O  O226  1  0.49672206  0.13291070  0.24131519  1
  O  O227  1  0.49590654  0.13202188  0.74293280  1
  O  O228  1  0.48986802  0.63232141  0.25184112  1
  O  O229  1  0.49419894  0.63054004  0.74643563  1
  O  O230  1  0.98835356  0.13294085  0.25020576  1
  O  O231  1  0.98738248  0.12765181  0.74683852  1
  O  O232  1  0.99603682  0.62826125  0.24584713  1
  O  O233  1  0.99795266  0.62981316  0.74543487  1
  O  O234  1  0.36730083  0.25899081  0.00543823  1
  O  O235  1  0.36070357  0.25844618  0.49842490  1
  O  O236  1  0.37064489  0.75550143  0.00691811  1
  O  O237  1  0.37171234  0.75805684  0.50548940  1
  O  O238  1  0.86685376  0.24939943  0.00637874  1
  O  O239  1  0.86532200  0.25019525  0.50794947  1
  O  O240  1  0.87195224  0.75954408  0.00356892  1
  O  O241  1  0.86911064  0.74959410  0.50826468  1
  O  O242  1  0.13779085  0.25132908  0.49389506  1
  O  O243  1  0.12873905  0.24275224  0.99414276  1
  O  O244  1  0.13250415  0.74479366  0.49787265  1
  O  O245  1  0.13245661  0.74242080  1.00005075  1
  O  O246  1  0.63396521  0.25701913  0.48920983  1
  O  O247  1  0.62749068  0.24514378  0.99335743  1
  O  O248  1  0.63775330  0.75019974  0.50143578  1
  O  O249  1  0.62883492  0.74628387  0.99555077  1
  O  O250  1  0.49247483  0.24659723  0.12865542  1
  O  O251  1  0.50205450  0.24213765  0.63028654  1
  O  O252  1  0.49245384  0.74911531  0.13664846  1
  O  O253  1  0.49611309  0.74557856  0.63092008  1
  O  O254  1  0.99392711  0.24824059  0.13456901  1
  O  O255  1  0.98951028  0.24749439  0.62285901  1
  O  O256  1  0.99875972  0.74192260  0.13341616  1
  O  O257  1  0.99776060  0.74472149  0.63033943  1
  O  O258  1  0.00565827  0.25473756  0.37097862  1
  O  O259  1  0.00637131  0.25564235  0.87287732  1
  O  O260  1  0.00874048  0.74760304  0.36953959  1
  O  O261  1  0.00174819  0.75617352  0.86834215  1
  O  O262  1  0.50791427  0.24932611  0.36931279  1
  O  O263  1  0.50486569  0.25700674  0.86894891  1
  O  O264  1  0.49869376  0.75364039  0.36234933  1
  O  O265  1  0.50169595  0.75837017  0.86853822  1
  O  O266  1  0.25734222  0.13852508  0.50137511  1
  O  O267  1  0.24338776  0.12982160  0.99491482  1
  O  O268  1  0.24867478  0.62945192  0.49479092  1
  O  O269  1  0.24766479  0.62804523  0.99498245  1
  O  O270  1  0.75459680  0.13651737  0.48827318  1
  O  O271  1  0.74254330  0.13059269  0.99408761  1
  O  O272  1  0.74975149  0.63678041  0.50060433  1
  O  O273  1  0.75144349  0.62445803  0.98804757  1
  O  O274  1  0.25484550  0.37086180  0.00572169  1
  O  O275  1  0.25715698  0.37226829  0.50211256  1
  O  O276  1  0.25577176  0.86916332  0.00536093  1
  O  O277  1  0.26063577  0.86974787  0.50592543  1
  O  O278  1  0.74906971  0.36798348  0.00542798  1
  O  O279  1  0.75303359  0.36422917  0.50442390  1
  O  O280  1  0.75651519  0.87770047  0.00704677  1
  O  O281  1  0.75449551  0.86605910  0.50798305  1
  O  O282  1  0.13982385  0.50644472  0.24870789  1
  O  O283  1  0.12550324  0.48975147  0.74620055  1
  O  O284  1  0.13066557  0.99397616  0.24559332  1
  O  O285  1  0.12692276  0.99207094  0.74108676  1
  O  O286  1  0.63109961  0.49246971  0.25060972  1
  O  O287  1  0.62472604  0.49353180  0.74039523  1
  O  O288  1  0.62861004  0.99600614  0.24414292  1
  O  O289  1  0.62729777  0.99391573  0.73909839  1
  O  O290  1  0.36632686  -0.00089804  0.25748954  1
  O  O291  1  0.37525333  0.00716518  0.75744154  1
  O  O292  1  0.36493217  0.51223511  0.24546897  1
  O  O293  1  0.37700773  0.51454021  0.74226984  1
  O  O294  1  0.86843977  0.01137416  0.25062331  1
  O  O295  1  0.87504565  0.01027720  0.75387554  1
  O  O296  1  0.87047797  0.50361001  0.25624819  1
  O  O297  1  0.87506985  0.50622569  0.75568730  1
  O  O298  1  0.11222677  0.36758609  0.37732439  1
  O  O299  1  0.12056623  0.36908765  0.86766285  1
  O  O300  1  0.12564508  0.86651797  0.36938660  1
  O  O301  1  0.11896099  0.87343196  0.86881851  1
  O  O302  1  0.62178150  0.36426984  0.36716817  1
  O  O303  1  0.61788699  0.37002313  0.86803341  1
  O  O304  1  0.62317895  0.87139668  0.36590059  1
  O  O305  1  0.61879061  0.87771273  0.86771088  1
  O  O306  1  0.37945450  0.13241316  0.12425127  1
  O  O307  1  0.38592658  0.12609906  0.63260846  1
  O  O308  1  0.37468739  0.63184306  0.13708895  1
  O  O309  1  0.38099797  0.63280372  0.63371151  1
  O  O310  1  0.87348852  0.13065135  0.13495941  1
  O  O311  1  0.87265848  0.13537955  0.63247350  1
  O  O312  1  0.88273161  0.62444014  0.13307764  1
  O  O313  1  0.88386791  0.63003414  0.63106346  1
  O  O314  1  0.25192407  0.25635811  0.12103736  1
  O  O315  1  0.24901099  0.25336678  0.60974973  1
  O  O316  1  0.25511334  0.75465042  0.12106891  1
  O  O317  1  0.25758897  0.75532237  0.61988606  1
  O  O318  1  0.75282962  0.25440752  0.11974953  1
  O  O319  1  0.75450620  0.25389789  0.61623202  1
  O  O320  1  0.75250454  0.76026290  0.12505731  1
  O  O321  1  0.75720024  0.75509772  0.61894507  1
  O  O322  1  0.23868636  0.25412924  0.38669091  1
  O  O323  1  0.24308468  0.24356165  0.88205179  1
  O  O324  1  0.24583295  0.74074905  0.38099756  1
  O  O325  1  0.24966210  0.73955134  0.88346998  1
  O  O326  1  0.74218507  0.24583141  0.37956505  1
  O  O327  1  0.74327896  0.24581005  0.87954377  1
  O  O328  1  0.75311168  0.74999016  0.38819507  1
  O  O329  1  0.75076282  0.73822581  0.87589479  1
  O  O330  1  0.00510973  0.11692243  0.00026301  1
  O  O331  1  -0.00370751  0.11124241  0.50140118  1
  O  O332  1  0.00416120  0.61961523  0.00547554  1
  O  O333  1  0.00808248  0.61964295  0.50644050  1
  O  O334  1  0.50380503  0.12090397  0.00416187  1
  O  O335  1  0.49450594  0.12739833  0.51380053  1
  O  O336  1  0.49595845  0.61297940  -0.00015274  1
  O  O337  1  0.49814988  0.61821184  0.50687668  1
  O  O338  1  0.49021854  0.38342172  0.49660816  1
  O  O339  1  0.49010082  0.38034656  0.99455685  1
  O  O340  1  0.48865951  0.87535908  0.50096583  1
  O  O341  1  0.49465123  0.88123314  0.99616758  1
  O  O342  1  0.99908678  0.38071553  0.49136009  1
  O  O343  1  0.99792575  0.38008357  0.99309331  1
  O  O344  1  0.99869400  0.88727641  0.49909177  1
  O  O345  1  0.99473743  0.87966082  0.99474085  1
  O  O346  1  0.50455161  0.50166896  0.38864642  1
  O  O347  1  0.50278774  0.49144340  0.88509940  1
  O  O348  1  0.49093131  0.99661512  0.37690598  1
  O  O349  1  0.49484708  0.99581640  0.88091832  1
  O  O350  1  0.99789903  0.49208311  0.37913259  1
  O  O351  1  0.99479037  0.49466034  0.88090464  1
  O  O352  1  1.00262992  0.99969519  0.38845183  1
  O  O353  1  0.99454036  0.99374149  0.88003416  1
  O  O354  1  0.00633485  0.00042031  0.11915794  1
  O  O355  1  0.00928223  0.00190133  0.61536805  1
  O  O356  1  0.00090011  0.50363674  0.12017116  1
  O  O357  1  0.00669882  0.50574219  0.62028145  1
  O  O358  1  0.50362018  0.00584733  0.11943459  1
  O  O359  1  0.50908481  0.00946010  0.62232829  1
  O  O360  1  0.49981306  0.49964537  0.11248249  1
  O  O361  1  0.50678895  0.50617414  0.61515908  1
  O  O362  1  0.25808425  0.38558731  0.24078232  1
  O  O363  1  0.23933023  0.37624814  0.75011309  1
  O  O364  1  0.24425281  0.88168972  0.24435754  1
  O  O365  1  0.24626071  0.87521339  0.74438997  1
  O  O366  1  0.74422831  0.37892218  0.24512226  1
  O  O367  1  0.74178971  0.37649574  0.74185289  1
  O  O368  1  0.74468246  0.88215017  0.24492234  1
  O  O369  1  0.74492388  0.87664960  0.74329607  1
  O  O370  1  0.24964703  0.10882725  0.24257407  1
  O  O371  1  0.25844462  0.12458691  0.75768924  1
  O  O372  1  0.25668877  0.61945143  0.25811363  1
  O  O373  1  0.25948186  0.62514776  0.75904863  1
  O  O374  1  0.75543884  0.12258927  0.25629945  1
  O  O375  1  0.76093586  0.12631470  0.75530717  1
  O  O376  1  0.75807564  0.61736328  0.25146977  1
  O  O377  1  0.75854638  0.62363912  0.75754632  1
  O  O378  1  0.37856190  0.10999232  0.37410926  1
  O  O379  1  0.37057134  0.12054780  0.87147219  1
  O  O380  1  0.36357398  0.63121311  0.36632187  1
  O  O381  1  0.36692562  0.63063615  0.86455763  1
  O  O382  1  0.86267263  0.12575129  0.36502107  1
  O  O383  1  0.87023610  0.12153297  0.86666352  1
  O  O384  1  0.87538615  0.61504335  0.36835898  1
  O  O385  1  0.86938036  0.61899616  0.86939898  1
  O  O386  1  0.13897795  0.37328604  0.11932944  1
  O  O387  1  0.12380758  0.37981827  0.63531094  1
  O  O388  1  0.13052110  0.87936269  0.13072810  1
  O  O389  1  0.13296843  0.88347785  0.63082454  1
  O  O390  1  0.63093429  0.37505010  0.13217704  1
  O  O391  1  0.62923350  0.38078023  0.62883088  1
  O  O392  1  0.63006807  0.88272591  0.13039489  1
  O  O393  1  0.63177407  0.88418231  0.63152374  1
  O  O394  1  0.11190516  0.24282205  0.25818124  1
  O  O395  1  0.12435519  0.25854771  0.75487661  1
  O  O396  1  0.12123986  0.75342669  0.25618468  1
  O  O397  1  0.11976420  0.75696944  0.75035183  1
  O  O398  1  0.61762976  0.25660526  0.25629102  1
  O  O399  1  0.61950546  0.25692924  0.75461575  1
  O  O400  1  0.61456113  0.75572279  0.24887720  1
  O  O401  1  0.61880246  0.75859602  0.75003169  1
  O  O402  1  0.37748015  0.24807516  0.24474547  1
  O  O403  1  0.38157026  0.24387397  0.74800091  1
  O  O404  1  0.38048919  0.74344227  0.24663999  1
  O  O405  1  0.38247434  0.74296840  0.74460214  1
  O  O406  1  0.88102009  0.24146554  0.24638606  1
  O  O407  1  0.87494605  0.24315489  0.73965852  1
  O  O408  1  0.88265337  0.74188594  0.24969560  1
  O  O409  1  0.88367160  0.74355311  0.74461196  1
  O  O410  1  0.38424672  0.49293291  0.50652799  1
  O  O411  1  0.38050515  0.48732502  1.00581636  1
  O  O412  1  0.37518193  0.99106288  0.49222555  1
  O  O413  1  0.37985016  0.99462881  0.99559727  1
  O  O414  1  0.88389623  0.49899744  0.49420063  1
  O  O415  1  0.88211977  0.49672681  0.99249452  1
  O  O416  1  0.88923512  0.99837620  0.50066817  1
  O  O417  1  0.88018172  0.99546390  0.99380671  1
  O  O418  1  0.11977373  0.00305078  0.00478486  1
  O  O419  1  0.11515346  -0.00546452  0.50941271  1
  O  O420  1  0.11641914  0.50630424  0.00232624  1
  O  O421  1  0.12036794  0.50609463  0.50625987  1
  O  O422  1  0.61862267  0.00688610  0.00522424  1
  O  O423  1  0.62392283  -0.00638357  0.51302251  1
  O  O424  1  0.61180271  0.50062615  0.00244108  1
  O  O425  1  0.61544861  0.49946299  0.50625461  1
  O  O426  1  0.36310704  0.36835685  0.11523783  1
  O  O427  1  0.37359033  0.36943987  0.61262584  1
  O  O428  1  0.36892838  0.87023761  0.11988422  1
  O  O429  1  0.37247575  0.87213959  0.61807933  1
  O  O430  1  0.86626758  0.36644086  0.12389781  1
  O  O431  1  0.86997246  0.36438463  0.62503715  1
  O  O432  1  0.86774466  0.87611745  0.11930281  1
  O  O433  1  0.86967445  0.86784695  0.62669171  1
  O  O434  1  0.12061022  0.13505752  0.37609611  1
  O  O435  1  0.12957536  0.12802463  0.87882894  1
  O  O436  1  0.13544464  0.63065647  0.38292708  1
  O  O437  1  0.13502494  0.62783986  0.88211448  1
  O  O438  1  0.63440490  0.13793676  0.36622797  1
  O  O439  1  0.62901073  0.13082086  0.87855381  1
  O  O440  1  0.63126313  0.63287318  0.37978927  1
  O  O441  1  0.63755989  0.62564049  0.87438995  1
