# generated using pymatgen
data_V93Zn93O256
_symmetry_space_group_name_H-M   'P 1'
_cell_length_a   17.06109967
_cell_length_b   17.05730060
_cell_length_c   17.05418933
_cell_angle_alpha   90.11880171
_cell_angle_beta   90.02547434
_cell_angle_gamma   89.95866756
_symmetry_Int_Tables_number   1
_chemical_formula_structural   V93Zn93O256
_chemical_formula_sum   'V93 Zn93 O256'
_cell_volume   4963.03472545
_cell_formula_units_Z   1
loop_
 _symmetry_equiv_pos_site_id
 _symmetry_equiv_pos_as_xyz
  1  'x, y, z'
loop_
 _atom_site_type_symbol
 _atom_site_label
 _atom_site_symmetry_multiplicity
 _atom_site_fract_x
 _atom_site_fract_y
 _atom_site_fract_z
 _atom_site_occupancy
  V  V0  1  0.24982496  0.62518704  0.37500662  1
  V  V1  1  0.37431064  0.62498252  0.24937470  1
  V  V2  1  0.24860515  0.12658128  0.87392060  1
  V  V3  1  0.62136901  0.12635351  0.00962766  1
  V  V4  1  0.12476509  0.87510213  0.74906763  1
  V  V5  1  0.37475435  0.12527579  0.74896563  1
  V  V6  1  0.50084671  -0.00009563  0.50015167  1
  V  V7  1  0.75096590  0.12459410  0.37593807  1
  V  V8  1  0.87489651  0.62611350  0.74983158  1
  V  V9  1  0.37326433  0.87293176  0.50153474  1
  V  V10  1  0.12396037  0.62599033  -0.00144228  1
  V  V11  1  0.37932824  0.24350643  0.12438368  1
  V  V12  1  0.12990543  0.50106314  0.62761922  1
  V  V13  1  0.37559463  -0.00006378  0.37392024  1
  V  V14  1  0.74972418  0.87428410  0.62461441  1
  V  V15  1  0.87520794  0.87512148  0.50018425  1
  V  V16  1  0.49861377  0.49956485  0.00052330  1
  V  V17  1  0.24982246  0.25015803  -0.00145630  1
  V  V18  1  0.75054195  -0.00420004  0.24264582  1
  V  V19  1  0.62373564  0.24988864  0.87635209  1
  V  V20  1  0.12526425  0.37488318  0.24984374  1
  V  V21  1  0.50210933  0.87538249  0.37447961  1
  V  V22  1  0.49938439  0.00429252  0.00780765  1
  V  V23  1  -0.00158116  0.50011891  0.50004862  1
  V  V24  1  0.37335594  0.74876266  0.12466786  1
  V  V25  1  0.62541273  0.24936412  0.37538342  1
  V  V26  1  0.12488942  0.74929240  0.37609611  1
  V  V27  1  0.87457411  0.50015825  0.87588205  1
  V  V28  1  0.00047177  0.25052079  0.25065698  1
  V  V29  1  0.87893768  0.36742744  0.50619665  1
  V  V30  1  0.25168372  0.24876120  0.49933827  1
  V  V31  1  0.74908070  0.25008839  0.00203737  1
  V  V32  1  0.49854818  0.74915873  0.74974352  1
  V  V33  1  0.62982482  0.87419583  0.24192682  1
  V  V34  1  0.12250258  0.12586433  0.50161716  1
  V  V35  1  0.86820752  0.87375660  0.00691685  1
  V  V36  1  -0.00071358  0.75050838  0.24929079  1
  V  V37  1  0.24830475  0.62236647  0.87083736  1
  V  V38  1  0.37301352  0.62303881  0.74805766  1
  V  V39  1  0.37141101  0.49917289  0.87175122  1
  V  V40  1  0.74983404  0.74370789  0.49743650  1
  V  V41  1  0.12568204  0.00164903  0.12518349  1
  V  V42  1  0.49927444  0.37442138  0.37761283  1
  V  V43  1  0.00062424  0.00228441  0.00166262  1
  V  V44  1  0.37528031  0.00058850  0.87503415  1
  V  V45  1  0.62443123  0.37472141  0.75031458  1
  V  V46  1  0.37508986  0.24907891  0.62538736  1
  V  V47  1  0.12540990  0.49968821  0.12449432  1
  V  V48  1  0.12537520  0.62522124  0.50018058  1
  V  V49  1  0.87564960  0.12620095  0.25086598  1
  V  V50  1  -0.00073385  0.62692650  0.12425327  1
  V  V51  1  0.74859607  0.62825017  0.87923528  1
  V  V52  1  0.00046078  0.87465990  0.37500892  1
  V  V53  1  0.62638998  0.74932365  0.37495935  1
  V  V54  1  -0.00093218  0.37241417  0.87353484  1
  V  V55  1  0.37511332  0.37537034  -0.00032694  1
  V  V56  1  0.62709451  0.50006738  0.12783867  1
  V  V57  1  0.25137170  0.00070789  0.24888658  1
  V  V58  1  0.00081303  0.00208765  0.50059723  1
  V  V59  1  0.88009641  0.13086469  0.73825353  1
  V  V60  1  0.62430909  0.87516221  0.75083687  1
  V  V61  1  0.87517851  0.74890230  0.62606852  1
  V  V62  1  0.25294527  0.12447055  0.37403497  1
  V  V63  1  0.00205667  0.37479026  0.37559151  1
  V  V64  1  0.24985719  0.37498912  0.12522325  1
  V  V65  1  0.49945956  0.87708820  0.87496321  1
  V  V66  1  0.62541309  0.00012391  0.62555273  1
  V  V67  1  0.24890709  0.75010644  0.00002269  1
  V  V68  1  0.74963594  0.49958238  0.75064027  1
  V  V69  1  0.25038605  0.87497269  0.12382823  1
  V  V70  1  0.63098451  0.37991057  0.25186913  1
  V  V71  1  0.62630439  0.12454895  0.50104423  1
  V  V72  1  0.75089511  0.00014956  0.74957085  1
  V  V73  1  0.12087211  0.00446313  0.62479384  1
  V  V74  1  0.25122097  0.37676729  0.62743371  1
  V  V75  1  0.50013312  0.12566819  0.62611461  1
  V  V76  1  0.37487444  0.49870074  0.37530644  1
  V  V77  1  0.50094518  0.24301537  0.24586661  1
  V  V78  1  0.12266687  0.25037279  0.87316159  1
  V  V79  1  0.87555169  0.00029251  0.37509236  1
  V  V80  1  0.75010740  0.37950216  0.12863758  1
  V  V81  1  0.87435582  0.37519859  0.00067244  1
  V  V82  1  0.24895331  0.00046034  0.75012687  1
  V  V83  1  0.62457302  0.62480108  0.00030985  1
  V  V84  1  0.87556798  0.25056815  0.12618586  1
  V  V85  1  0.75551298  0.36989662  0.62752172  1
  V  V86  1  0.49835841  0.62467063  0.12498436  1
  V  V87  1  0.75300327  0.24916205  0.50346398  1
  V  V88  1  -0.00066817  0.50063588  -0.00090762  1
  V  V89  1  0.87035076  0.61725391  0.25401657  1
  V  V90  1  0.12531583  0.37638419  0.74919918  1
  V  V91  1  0.00039088  0.87479400  0.87298681  1
  V  V92  1  0.87340698  0.00349895  0.87455908  1
  Zn  Zn93  1  0.74890739  0.12567028  0.87512769  1
  Zn  Zn94  1  0.74034330  0.75922832  0.00811341  1
  Zn  Zn95  1  0.50102814  0.75093909  0.24863036  1
  Zn  Zn96  1  0.00053914  0.74812661  0.74778367  1
  Zn  Zn97  1  0.12504207  0.87562846  0.25067836  1
  Zn  Zn98  1  0.24883267  0.49903817  0.24973938  1
  Zn  Zn99  1  0.12518687  0.74928885  0.87279874  1
  Zn  Zn100  1  0.12843334  0.24965064  0.37310354  1
  Zn  Zn101  1  0.25001917  0.87291816  0.62453421  1
  Zn  Zn102  1  0.49853569  0.37533074  0.87411165  1
  Zn  Zn103  1  0.38052546  0.12134659  0.24578823  1
  Zn  Zn104  1  0.62438854  0.75136632  0.87654271  1
  Zn  Zn105  1  0.86800234  0.49482030  0.37405371  1
  Zn  Zn106  1  0.62114762  0.62082071  0.50198749  1
  Zn  Zn107  1  0.00105058  0.12658706  0.12644961  1
  Zn  Zn108  1  0.73938954  0.60916759  0.36609139  1
  Zn  Zn109  1  -0.00395639  0.24857551  0.72662574  1
  Zn  Zn110  1  0.49957315  0.24997232  0.75061638  1
  Zn  Zn111  1  0.50232789  0.62188703  0.62369351  1
  Zn  Zn112  1  0.00040695  0.62610993  0.62724581  1
  Zn  Zn113  1  0.12409791  0.12722534  -0.00168950  1
  Zn  Zn114  1  0.86750501  0.75299485  0.13047119  1
  Zn  Zn115  1  0.37267683  0.74805448  0.62354654  1
  Zn  Zn116  1  0.37565935  0.37514099  0.50175293  1
  Zn  Zn117  1  0.50131572  0.50327168  0.50350591  1
  Zn  Zn118  1  0.62399730  -0.00045479  0.12534912  1
  Zn  Zn119  1  0.62269239  0.50133164  0.62231006  1
  Zn  Zn120  1  0.37569186  0.87526325  -0.00041632  1
  Zn  Zn121  1  0.24918044  0.75053158  0.50148346  1
  Zn  Zn122  1  0.18947590  0.18715855  0.18704666  1
  Zn  Zn123  1  0.18549534  0.18995130  0.68694002  1
  Zn  Zn124  1  0.18749663  0.68633276  0.18828956  1
  Zn  Zn125  1  0.19000126  0.69026013  0.68534137  1
  Zn  Zn126  1  0.68998565  0.18979290  0.18961440  1
  Zn  Zn127  1  0.69175282  0.18667916  0.68987544  1
  Zn  Zn128  1  0.68915995  0.69012142  0.18344135  1
  Zn  Zn129  1  0.68604646  0.68676413  0.68776398  1
  Zn  Zn130  1  0.31306198  0.31089449  0.30988325  1
  Zn  Zn131  1  0.31043645  0.31251161  0.81051393  1
  Zn  Zn132  1  0.31139941  0.81243284  0.31172071  1
  Zn  Zn133  1  0.31223865  0.81135504  0.81432558  1
  Zn  Zn134  1  0.81425726  0.31371452  0.31733334  1
  Zn  Zn135  1  0.81091902  0.31047683  0.81455325  1
  Zn  Zn136  1  0.81243466  0.81102852  0.31300698  1
  Zn  Zn137  1  0.81204096  0.81194915  0.81413081  1
  Zn  Zn138  1  0.18843689  0.43734350  0.43883146  1
  Zn  Zn139  1  0.18730733  0.43749267  0.93734913  1
  Zn  Zn140  1  0.18822044  0.93769526  0.43554166  1
  Zn  Zn141  1  0.18821062  0.93798613  0.93755375  1
  Zn  Zn142  1  0.68911875  0.43898975  0.44081023  1
  Zn  Zn143  1  0.68764350  0.43859790  0.93934844  1
  Zn  Zn144  1  0.68929231  0.93582424  0.43512670  1
  Zn  Zn145  1  0.68463584  0.94122896  0.93636704  1
  Zn  Zn146  1  0.31172965  0.06328418  0.05947918  1
  Zn  Zn147  1  0.31006214  0.05994439  0.56296886  1
  Zn  Zn148  1  0.31060207  0.56249274  0.06048667  1
  Zn  Zn149  1  0.31323804  0.56222670  0.56003687  1
  Zn  Zn150  1  0.81101604  0.06608493  0.06265431  1
  Zn  Zn151  1  0.81266058  0.06144631  0.56236829  1
  Zn  Zn152  1  0.81185163  0.56433502  0.06673728  1
  Zn  Zn153  1  0.81087746  0.55910472  0.56466375  1
  Zn  Zn154  1  0.43915426  0.43477075  0.18895642  1
  Zn  Zn155  1  0.43926072  0.43813026  0.68817101  1
  Zn  Zn156  1  0.43795030  0.93335158  0.18831298  1
  Zn  Zn157  1  0.43755469  0.93779807  0.68708301  1
  Zn  Zn158  1  0.94025673  0.43745615  0.18584496  1
  Zn  Zn159  1  0.94001169  0.43781759  0.68798225  1
  Zn  Zn160  1  0.93821105  0.93897232  0.18845645  1
  Zn  Zn161  1  0.93761762  0.94026601  0.68614370  1
  Zn  Zn162  1  0.06402323  0.06411187  0.31379841  1
  Zn  Zn163  1  0.06054218  0.06427281  0.81143634  1
  Zn  Zn164  1  0.06052039  0.56213681  0.31257324  1
  Zn  Zn165  1  0.06095524  0.56086090  0.81106216  1
  Zn  Zn166  1  0.56510334  0.06042415  0.31312658  1
  Zn  Zn167  1  0.56185676  0.06385762  0.81549943  1
  Zn  Zn168  1  0.55870723  0.56293141  0.31278636  1
  Zn  Zn169  1  0.56068477  0.56141900  0.81332810  1
  Zn  Zn170  1  0.43740722  0.18755610  0.43765042  1
  Zn  Zn171  1  0.43864271  0.18643872  0.93717587  1
  Zn  Zn172  1  0.43992971  0.68735620  0.43675811  1
  Zn  Zn173  1  0.43646096  0.68774159  0.93720174  1
  Zn  Zn174  1  0.94106890  0.18912799  0.43865518  1
  Zn  Zn175  1  0.93769733  0.18872628  0.93540638  1
  Zn  Zn176  1  0.93800408  0.68640984  0.43718229  1
  Zn  Zn177  1  0.93708766  0.69009943  0.93555275  1
  Zn  Zn178  1  0.06214448  0.31249884  0.06195883  1
  Zn  Zn179  1  0.06466820  0.30994153  0.56334853  1
  Zn  Zn180  1  0.06168311  0.81326459  0.06234625  1
  Zn  Zn181  1  0.06126579  0.81292459  0.56352281  1
  Zn  Zn182  1  0.56146340  0.31504284  0.06342479  1
  Zn  Zn183  1  0.56492380  0.31189716  0.56434106  1
  Zn  Zn184  1  0.55849257  0.81158612  0.06056684  1
  Zn  Zn185  1  0.56153578  0.81046648  0.56372964  1
  O  O186  1  0.12397616  0.11341995  0.12100304  1
  O  O187  1  0.13258211  0.11496144  0.61390291  1
  O  O188  1  0.11921756  0.62006824  0.11840300  1
  O  O189  1  0.12612243  0.61523560  0.62132997  1
  O  O190  1  0.62868208  0.12654532  0.11293360  1
  O  O191  1  0.62158070  0.11994221  0.62067926  1
  O  O192  1  0.61806842  0.61914940  0.12111172  1
  O  O193  1  0.62292347  0.62109528  0.62328056  1
  O  O194  1  0.38288874  0.38136909  0.37334607  1
  O  O195  1  0.37256604  0.38376745  0.87890186  1
  O  O196  1  0.38148691  0.88020883  0.38127086  1
  O  O197  1  0.38066241  0.88331168  0.87579650  1
  O  O198  1  0.88358454  0.37591448  0.38696199  1
  O  O199  1  0.87820493  0.38024888  0.88099230  1
  O  O200  1  0.88048335  0.88049845  0.38099326  1
  O  O201  1  0.88296713  0.88593843  0.87965258  1
  O  O202  1  0.25610486  0.00418401  0.36825357  1
  O  O203  1  0.25472155  0.00645896  0.87009780  1
  O  O204  1  0.25925553  0.50425022  0.37364370  1
  O  O205  1  0.25988363  0.51097069  0.88219202  1
  O  O206  1  0.75622995  0.00579362  0.36795160  1
  O  O207  1  0.75963461  -0.00005052  0.86839108  1
  O  O208  1  0.75598490  0.49981874  0.37775891  1
  O  O209  1  0.75573949  0.50765375  0.87132778  1
  O  O210  1  0.24312496  0.49326003  0.12463123  1
  O  O211  1  0.23935065  0.48996721  0.61756792  1
  O  O212  1  0.24353497  0.99613001  0.12746288  1
  O  O213  1  0.23870402  0.99612245  0.63166041  1
  O  O214  1  0.74057556  0.49158615  0.12034262  1
  O  O215  1  0.74832623  0.48670996  0.63290139  1
  O  O216  1  0.74909895  1.00461255  0.13969668  1
  O  O217  1  0.74423426  0.99321200  0.62921625  1
  O  O218  1  0.00511976  0.36999798  0.25510364  1
  O  O219  1  0.00810044  0.37222968  0.75581942  1
  O  O220  1  -0.00051126  0.86613866  0.25549466  1
  O  O221  1  0.00766785  0.87923869  0.75855233  1
  O  O222  1  0.50851439  0.36485514  0.25920392  1
  O  O223  1  0.51218602  0.37104552  0.75285083  1
  O  O224  1  0.51102874  0.87395132  0.25718227  1
  O  O225  1  0.50394182  0.86918121  0.75489223  1
  O  O226  1  0.50197693  0.13885557  0.25525787  1
  O  O227  1  0.49356305  0.12572488  0.74364241  1
  O  O228  1  0.49236718  0.62734670  0.24235485  1
  O  O229  1  0.48987611  0.63376984  0.75381175  1
  O  O230  1  0.99305147  0.13117743  0.25032039  1
  O  O231  1  0.98358476  0.12511956  0.75432215  1
  O  O232  1  0.99354829  0.63393436  0.24540845  1
  O  O233  1  0.99131265  0.62716069  0.74907760  1
  O  O234  1  0.37127759  0.25515382  0.00535742  1
  O  O235  1  0.36912018  0.25131188  0.50768859  1
  O  O236  1  0.36726220  0.75046639  0.00655108  1
  O  O237  1  0.37574643  0.76275056  0.49907085  1
  O  O238  1  0.86973591  0.25550126  0.00514849  1
  O  O239  1  0.86941423  0.26086011  0.49448749  1
  O  O240  1  0.87897949  0.76898225  -0.00227840  1
  O  O241  1  0.86802551  0.75516123  0.50358100  1
  O  O242  1  0.13400037  0.23996569  0.49773438  1
  O  O243  1  0.13152023  0.24979708  0.99298364  1
  O  O244  1  0.12334545  0.74296934  0.49376966  1
  O  O245  1  0.12916717  0.74369137  0.99683810  1
  O  O246  1  0.63192175  0.24397505  0.49495535  1
  O  O247  1  0.62772862  0.24557855  0.99537105  1
  O  O248  1  0.63460764  0.75340176  0.49096029  1
  O  O249  1  0.62323441  0.74154824  0.99563637  1
  O  O250  1  0.49058280  0.25830130  0.13438293  1
  O  O251  1  0.49399995  0.24309945  0.62607833  1
  O  O252  1  0.49161358  0.74230955  0.12576160  1
  O  O253  1  0.49586010  0.75012839  0.63996792  1
  O  O254  1  0.99328824  0.24916934  0.13108773  1
  O  O255  1  0.99439847  0.24926454  0.61700145  1
  O  O256  1  0.99724815  0.74647309  0.13379427  1
  O  O257  1  0.99089428  0.74757516  0.62673564  1
  O  O258  1  0.00423945  0.25723473  0.36820787  1
  O  O259  1  0.00675660  0.25808159  0.87632257  1
  O  O260  1  0.00469695  0.75471476  0.36796570  1
  O  O261  1  0.00177578  0.76442412  0.87223405  1
  O  O262  1  0.50447842  0.25640111  0.36769285  1
  O  O263  1  0.51192163  0.25295059  0.87401330  1
  O  O264  1  0.51172128  0.75708859  0.37324319  1
  O  O265  1  0.49872166  0.75675415  0.86522139  1
  O  O266  1  0.24284684  0.12767573  0.49437581  1
  O  O267  1  0.24810309  0.13249077  0.99106366  1
  O  O268  1  0.24325642  0.62603236  0.49231575  1
  O  O269  1  0.24352083  0.63030358  0.99129900  1
  O  O270  1  0.74563414  0.12862016  0.49580547  1
  O  O271  1  0.74037489  0.13142195  0.99738858  1
  O  O272  1  0.75182635  0.63794396  0.49790088  1
  O  O273  1  0.74423774  0.62182030  0.99029944  1
  O  O274  1  0.25548351  0.36932110  0.00466802  1
  O  O275  1  0.25008672  0.36805624  0.51133716  1
  O  O276  1  0.25117136  0.86880414  0.00522301  1
  O  O277  1  0.26217703  0.87577512  0.49866109  1
  O  O278  1  0.75538567  0.36984160  0.00698361  1
  O  O279  1  0.75960132  0.36886453  0.50940766  1
  O  O280  1  0.76561674  0.87848291  -0.00823970  1
  O  O281  1  0.75586088  0.86702140  0.50441221  1
  O  O282  1  0.12414209  0.49364216  0.24224106  1
  O  O283  1  0.11874904  0.48862750  0.73900816  1
  O  O284  1  0.13014012  0.99959543  0.24017200  1
  O  O285  1  0.12760638  0.99543604  0.74306717  1
  O  O286  1  0.61620891  0.48635969  0.24506619  1
  O  O287  1  0.63145235  0.48754774  0.75466629  1
  O  O288  1  0.63330203  0.99266820  0.24896844  1
  O  O289  1  0.63023724  0.99594827  0.74535377  1
  O  O290  1  0.37095657  0.00119309  0.25522912  1
  O  O291  1  0.36906062  0.00565578  0.75460483  1
  O  O292  1  0.37439117  0.50433688  0.25978058  1
  O  O293  1  0.37983449  0.50934115  0.76270328  1
  O  O294  1  0.86888218  0.00449139  0.25547713  1
  O  O295  1  0.87151677  0.00734973  0.75721191  1
  O  O296  1  0.88504652  0.51447493  0.25148681  1
  O  O297  1  0.86965589  0.50487023  0.75656690  1
  O  O298  1  0.12011635  0.37405745  0.36873492  1
  O  O299  1  0.12127126  0.37250761  0.86620436  1
  O  O300  1  0.11785820  0.86899328  0.37319717  1
  O  O301  1  0.11589485  0.87877696  0.86608859  1
  O  O302  1  0.61835155  0.36856639  0.36886952  1
  O  O303  1  0.62635118  0.36675594  0.86798655  1
  O  O304  1  0.62168922  0.86800875  0.36767521  1
  O  O305  1  0.61834051  0.87509854  0.86791080  1
  O  O306  1  0.37077631  0.13996200  0.12460187  1
  O  O307  1  0.37963502  0.12826960  0.62943159  1
  O  O308  1  0.37829300  0.62846756  0.12918420  1
  O  O309  1  0.37295704  0.62339406  0.63902159  1
  O  O310  1  0.87640003  0.13246338  0.13254910  1
  O  O311  1  0.87131976  0.11974790  0.63972029  1
  O  O312  1  0.88292677  0.62561983  0.13662792  1
  O  O313  1  0.87383723  0.63055057  0.63236531  1
  O  O314  1  0.25838872  0.25576670  0.11907414  1
  O  O315  1  0.25500660  0.25731622  0.61981804  1
  O  O316  1  0.25298220  0.75454241  0.11982248  1
  O  O317  1  0.25482473  0.75588687  0.61958238  1
  O  O318  1  0.75631786  0.25791139  0.12090765  1
  O  O319  1  0.74596582  0.26149507  0.61980549  1
  O  O320  1  0.75672067  0.74744159  0.11786389  1
  O  O321  1  0.75456118  0.75595166  0.61660694  1
  O  O322  1  0.25149176  0.24326548  0.38092288  1
  O  O323  1  0.24337422  0.24619632  0.87898196  1
  O  O324  1  0.24239699  0.74336499  0.37607719  1
  O  O325  1  0.24809859  0.73939184  0.88129486  1
  O  O326  1  0.74470779  0.24398974  0.38206457  1
  O  O327  1  0.73878202  0.25007035  0.88395047  1
  O  O328  1  0.74199299  0.75048538  0.38346829  1
  O  O329  1  0.74938619  0.73859924  0.88061814  1
  O  O330  1  -0.00043344  0.11193954  0.00098359  1
  O  O331  1  0.01495104  0.11719457  0.48973520  1
  O  O332  1  0.00351250  0.62085193  0.00276010  1
  O  O333  1  0.00495714  0.61473996  0.50208103  1
  O  O334  1  0.50980331  0.11553029  -0.00603415  1
  O  O335  1  0.50699343  0.11967248  0.50552214  1
  O  O336  1  0.50417445  0.61895094  0.00483617  1
  O  O337  1  0.50184591  0.62384534  0.50459156  1
  O  O338  1  0.49925531  0.37084190  0.48566159  1
  O  O339  1  0.49277313  0.38182797  0.99751354  1
  O  O340  1  0.49405102  0.88079505  0.49543264  1
  O  O341  1  0.49906109  0.88574851  0.99268155  1
  O  O342  1  0.99604437  0.38232136  0.49614262  1
  O  O343  1  0.99374622  0.38117456  0.99459597  1
  O  O344  1  0.99425017  0.88143826  0.49427760  1
  O  O345  1  0.99316485  0.88538211  0.99169632  1
  O  O346  1  0.49106567  0.48912502  0.37351385  1
  O  O347  1  0.48785920  0.49929306  0.88195154  1
  O  O348  1  0.49634385  0.99530704  0.38118223  1
  O  O349  1  0.49455518  0.99588764  0.88232310  1
  O  O350  1  0.99941306  0.49451444  0.38730585  1
  O  O351  1  0.99396536  0.49327470  0.88027404  1
  O  O352  1  0.99475992  0.99420249  0.37930160  1
  O  O353  1  0.99330262  0.99352045  0.88238017  1
  O  O354  1  0.00805147  0.00052989  0.11759690  1
  O  O355  1  0.01286559  -0.00450384  0.61726708  1
  O  O356  1  0.00613026  0.50585546  0.11717765  1
  O  O357  1  0.01125622  0.49931801  0.61570480  1
  O  O358  1  0.50018844  -0.00425863  0.11158737  1
  O  O359  1  0.50660534  0.00583259  0.61980971  1
  O  O360  1  0.50467654  0.50445489  0.11982578  1
  O  O361  1  0.50266749  0.50138614  0.62226005  1
  O  O362  1  0.24358909  0.37601286  0.24290109  1
  O  O363  1  0.23841201  0.37014373  0.73809599  1
  O  O364  1  0.24717973  0.88247864  0.24257780  1
  O  O365  1  0.23885327  0.88186128  0.75328287  1
  O  O366  1  0.73743653  0.36590377  0.24625580  1
  O  O367  1  0.74523207  0.37813103  0.74524490  1
  O  O368  1  0.74241642  0.88563465  0.25807319  1
  O  O369  1  0.74513421  0.87983728  0.74472781  1
  O  O370  1  0.25353748  0.11826483  0.25590553  1
  O  O371  1  0.25433069  0.12014840  0.75426467  1
  O  O372  1  0.25583856  0.62148866  0.25646760  1
  O  O373  1  0.25889729  0.63139627  0.76192487  1
  O  O374  1  0.75504735  0.11804435  0.25718679  1
  O  O375  1  0.76071417  0.11793348  0.75408069  1
  O  O376  1  0.76797137  0.63078672  0.24984569  1
  O  O377  1  0.75451769  0.62032434  0.76074312  1
  O  O378  1  0.37033607  0.11679694  0.37452271  1
  O  O379  1  0.36895442  0.12100390  0.86833361  1
  O  O380  1  0.37090455  0.61722070  0.36949565  1
  O  O381  1  0.36707360  0.61813263  0.86950291  1
  O  O382  1  0.87024044  0.11990275  0.37100868  1
  O  O383  1  0.87300487  0.11236979  0.87307646  1
  O  O384  1  0.87745433  0.62378279  0.36089798  1
  O  O385  1  0.86741331  0.62017030  0.87222880  1
  O  O386  1  0.12985058  0.38034034  0.12911175  1
  O  O387  1  0.13274521  0.38189284  0.63045608  1
  O  O388  1  0.12981557  0.88671817  0.12517197  1
  O  O389  1  0.12489906  0.88434973  0.63426529  1
  O  O390  1  0.62960677  0.37935896  0.13385781  1
  O  O391  1  0.63479820  0.37322984  0.63681643  1
  O  O392  1  0.62007124  0.87438320  0.13904446  1
  O  O393  1  0.62986284  0.88080693  0.63065262  1
  O  O394  1  0.11900041  0.25635032  0.24955689  1
  O  O395  1  0.12121100  0.26009255  0.75424684  1
  O  O396  1  0.11329617  0.75002368  0.25511251  1
  O  O397  1  0.12241176  0.76313505  0.75110999  1
  O  O398  1  0.61858835  0.25744025  0.25480359  1
  O  O399  1  0.62754320  0.25724441  0.76005796  1
  O  O400  1  0.62749487  0.75796981  0.25929152  1
  O  O401  1  0.61543256  0.75660361  0.75318231  1
  O  O402  1  0.38419822  0.24882514  0.24121024  1
  O  O403  1  0.37573295  0.24325877  0.74358207  1
  O  O404  1  0.37621825  0.74326347  0.24331710  1
  O  O405  1  0.38230252  0.74115041  0.75145547  1
  O  O406  1  0.87993800  0.24616665  0.24618624  1
  O  O407  1  0.87325104  0.23321852  0.75775766  1
  O  O408  1  0.88641292  0.74282758  0.25165471  1
  O  O409  1  0.87496879  0.74491601  0.74412226  1
  O  O410  1  0.37674891  0.49599911  0.48610573  1
  O  O411  1  0.37893614  0.49556224  0.99193291  1
  O  O412  1  0.38115431  0.99289671  0.49454231  1
  O  O413  1  0.38338363  1.00102230  0.99328380  1
  O  O414  1  0.88630115  0.48975180  0.50352852  1
  O  O415  1  0.88020303  0.49506463  0.99575919  1
  O  O416  1  0.88006851  0.99534095  0.49464053  1
  O  O417  1  0.88076631  0.99313150  0.99423428  1
  O  O418  1  0.11630271  0.00056358  0.00687688  1
  O  O419  1  0.12218998  0.00593527  0.50650162  1
  O  O420  1  0.11850913  0.50555664  0.00395097  1
  O  O421  1  0.11730558  0.50392583  0.50790877  1
  O  O422  1  0.61842779  0.00887452  0.00239299  1
  O  O423  1  0.62140105  0.00435746  0.50502597  1
  O  O424  1  0.61791445  0.50463049  0.00624750  1
  O  O425  1  0.62044132  0.50171250  0.50300874  1
  O  O426  1  0.36969918  0.36717945  0.11957872  1
  O  O427  1  0.36533551  0.37035035  0.62652253  1
  O  O428  1  0.36774370  0.86736546  0.12275280  1
  O  O429  1  0.37423940  0.87667803  0.61298435  1
  O  O430  1  0.87045372  0.37074153  0.12031583  1
  O  O431  1  0.86656436  0.37916610  0.61804447  1
  O  O432  1  0.88050662  0.87823334  0.10875382  1
  O  O433  1  0.86936420  0.87120127  0.61973742  1
  O  O434  1  0.13479959  0.12439133  0.38456333  1
  O  O435  1  0.13062140  0.13145903  0.87438208  1
  O  O436  1  0.12921298  0.62898285  0.38024632  1
  O  O437  1  0.13286670  0.62359347  0.87831822  1
  O  O438  1  0.63106278  0.12960489  0.38176525  1
  O  O439  1  0.62694997  0.13499537  0.88350054  1
  O  O440  1  0.62476240  0.63791735  0.37346468  1
  O  O441  1  0.63427378  0.62380863  0.88042622  1
