# generated using pymatgen
data_V93Zn93O256
_symmetry_space_group_name_H-M   'P 1'
_cell_length_a   17.05859658
_cell_length_b   17.06152482
_cell_length_c   17.05828649
_cell_angle_alpha   90.01111192
_cell_angle_beta   89.87922882
_cell_angle_gamma   89.98469214
_symmetry_Int_Tables_number   1
_chemical_formula_structural   V93Zn93O256
_chemical_formula_sum   'V93 Zn93 O256'
_cell_volume   4964.72910462
_cell_formula_units_Z   1
loop_
 _symmetry_equiv_pos_site_id
 _symmetry_equiv_pos_as_xyz
  1  'x, y, z'
loop_
 _atom_site_type_symbol
 _atom_site_label
 _atom_site_symmetry_multiplicity
 _atom_site_fract_x
 _atom_site_fract_y
 _atom_site_fract_z
 _atom_site_occupancy
  V  V0  1  0.74963000  0.37521708  0.62589613  1
  V  V1  1  0.74392987  0.50124216  0.24606632  1
  V  V2  1  0.25669771  0.37483188  0.12063584  1
  V  V3  1  0.00079509  0.87303192  0.37138570  1
  V  V4  1  0.62576651  0.37333259  0.75396315  1
  V  V5  1  0.25473497  0.50513100  0.74866637  1
  V  V6  1  0.74876228  0.87581745  0.62515578  1
  V  V7  1  0.61832685  0.00402690  0.62825309  1
  V  V8  1  0.62690737  0.12450114  0.00242423  1
  V  V9  1  0.25056306  0.87965008  0.12958838  1
  V  V10  1  0.37164168  0.12267403  0.24663635  1
  V  V11  1  0.87705984  0.74998387  0.12627885  1
  V  V12  1  0.49905375  0.87750698  0.37737063  1
  V  V13  1  0.87405426  0.25005414  0.62446108  1
  V  V14  1  0.74712678  0.25005652  0.50016350  1
  V  V15  1  0.74803934  0.74871128  -0.00080437  1
  V  V16  1  0.75128917  0.49999491  0.75151693  1
  V  V17  1  0.12785934  0.49708106  0.62237868  1
  V  V18  1  0.49519937  0.24399618  0.74839819  1
  V  V19  1  0.12829596  0.24840324  0.87469992  1
  V  V20  1  0.25303732  0.00786362  0.74849565  1
  V  V21  1  0.00164498  0.37616028  0.87400245  1
  V  V22  1  0.87521311  0.62536268  0.25004304  1
  V  V23  1  0.25912549  0.25349135  -0.00271924  1
  V  V24  1  0.74991608  -0.00057681  0.74982078  1
  V  V25  1  0.49848766  0.62688230  0.63235352  1
  V  V26  1  0.50023735  -0.00122577  0.00033400  1
  V  V27  1  0.00130883  0.62604636  0.12422537  1
  V  V28  1  0.12476426  0.62641789  0.49541976  1
  V  V29  1  0.00156435  0.12484139  0.12293552  1
  V  V30  1  0.87316476  0.87488867  0.50070028  1
  V  V31  1  0.24933165  0.87565411  0.62423023  1
  V  V32  1  0.62411905  0.37764781  0.24827729  1
  V  V33  1  0.00187830  0.25093076  0.74830630  1
  V  V34  1  0.00094388  0.74979661  0.74955339  1
  V  V35  1  0.00100216  0.87416796  0.87456778  1
  V  V36  1  0.87688830  0.00030490  0.87488168  1
  V  V37  1  0.37532666  0.62228844  0.25250183  1
  V  V38  1  -0.00083826  0.62548408  0.62412074  1
  V  V39  1  0.61554386  0.12571556  0.50373988  1
  V  V40  1  0.25203181  0.74603714  -0.00360212  1
  V  V41  1  0.87721380  0.37590744  -0.00041988  1
  V  V42  1  0.12900466  0.62512814  -0.00178668  1
  V  V43  1  0.87319127  0.12519786  0.24985837  1
  V  V44  1  0.62425230  0.49869464  0.62696050  1
  V  V45  1  0.75062199  0.87475495  0.12587754  1
  V  V46  1  0.62352433  0.25056598  0.37685636  1
  V  V47  1  0.49091268  0.37535778  0.37849852  1
  V  V48  1  0.87267875  0.00016683  0.37459406  1
  V  V49  1  0.62412384  0.87560129  0.25179104  1
  V  V50  1  0.37317341  -0.00105183  0.37283402  1
  V  V51  1  0.13276676  0.37510029  0.74254010  1
  V  V52  1  0.24657718  0.11970249  0.36733018  1
  V  V53  1  0.87282803  0.50053845  0.37425295  1
  V  V54  1  0.62447250  0.75041775  0.37726866  1
  V  V55  1  0.25080889  0.75158488  0.49873014  1
  V  V56  1  0.74730632  0.37753064  0.12586533  1
  V  V57  1  0.75265160  0.12502472  0.87657552  1
  V  V58  1  -0.00062087  0.49969610  0.49932667  1
  V  V59  1  -0.00211219  0.37446471  0.37311811  1
  V  V60  1  0.37607023  0.87467956  -0.00110861  1
  V  V61  1  0.37639606  0.00502047  0.87230203  1
  V  V62  1  0.75173224  0.25060644  0.00120430  1
  V  V63  1  -0.00174716  0.25061329  0.24780794  1
  V  V64  1  0.50021063  0.74907313  0.24981820  1
  V  V65  1  0.51071589  0.49063025  0.00420856  1
  V  V66  1  0.00256695  0.00047497  -0.00061957  1
  V  V67  1  0.74941045  0.00057416  0.25108669  1
  V  V68  1  0.50727195  0.62119069  0.12470724  1
  V  V69  1  0.87522762  0.12555929  0.74971747  1
  V  V70  1  0.00198102  0.50012253  -0.00155853  1
  V  V71  1  0.12400742  0.00020171  0.62492136  1
  V  V72  1  0.49921664  0.25024243  0.25044291  1
  V  V73  1  0.62410262  0.62424315  0.49977458  1
  V  V74  1  0.25362964  0.25623439  0.50026022  1
  V  V75  1  0.12675318  0.50020277  0.12415377  1
  V  V76  1  0.12919573  -0.00008741  0.12990194  1
  V  V77  1  0.49122843  0.49351193  0.50415023  1
  V  V78  1  0.87583723  0.25075074  0.12457589  1
  V  V79  1  -0.00212069  0.12433253  0.62329153  1
  V  V80  1  0.62676810  0.25057136  0.87663146  1
  V  V81  1  0.12403845  0.37547377  0.24624451  1
  V  V82  1  0.12191653  0.12542259  0.49658705  1
  V  V83  1  0.87363098  0.37506169  0.49979939  1
  V  V84  1  0.36656457  0.50080192  0.88856923  1
  V  V85  1  0.12890113  0.74622358  0.87441414  1
  V  V86  1  0.62499344  -0.00000877  0.12632628  1
  V  V87  1  -0.00230537  0.00000667  0.49971022  1
  V  V88  1  0.87596066  0.87529955  0.00029687  1
  V  V89  1  0.87461641  0.75050396  0.62521534  1
  V  V90  1  0.75065460  0.62422363  0.87515940  1
  V  V91  1  0.49959654  0.12495922  0.12602399  1
  V  V92  1  0.12238287  0.24909550  0.37130155  1
  Zn  Zn93  1  0.13063252  0.87470919  0.25149100  1
  Zn  Zn94  1  0.37515669  0.74904143  0.12443606  1
  Zn  Zn95  1  0.62307106  0.75020094  0.87212019  1
  Zn  Zn96  1  0.49468185  0.37094823  0.88189353  1
  Zn  Zn97  1  0.50458570  0.87015380  0.87502766  1
  Zn  Zn98  1  0.49914731  0.74960139  0.75684102  1
  Zn  Zn99  1  0.74955229  0.62598852  0.37491923  1
  Zn  Zn100  1  0.25107502  0.62491593  0.37119931  1
  Zn  Zn101  1  0.74729008  0.12504744  0.37581784  1
  Zn  Zn102  1  0.36925363  0.62992987  0.75757650  1
  Zn  Zn103  1  0.12643579  0.87603697  0.75202837  1
  Zn  Zn104  1  0.12672816  0.75130335  0.36963622  1
  Zn  Zn105  1  0.37781431  0.24784080  0.62175581  1
  Zn  Zn106  1  0.87656531  0.62311264  0.74975595  1
  Zn  Zn107  1  0.43396678  0.08394264  0.69032689  1
  Zn  Zn108  1  0.30589717  0.41201035  0.57206986  1
  Zn  Zn109  1  0.37605003  0.87465780  0.49894771  1
  Zn  Zn110  1  0.74944790  0.74930156  0.50044333  1
  Zn  Zn111  1  0.36891777  0.49757705  0.38124212  1
  Zn  Zn112  1  0.25135835  0.49944510  0.25088090  1
  Zn  Zn113  1  0.87802968  0.50070010  0.87306165  1
  Zn  Zn114  1  0.12874747  0.12363349  -0.00124206  1
  Zn  Zn115  1  0.25508962  0.12915829  0.87182320  1
  Zn  Zn116  1  0.62784747  0.62135047  0.00473423  1
  Zn  Zn117  1  0.49268426  0.00275754  0.50922742  1
  Zn  Zn118  1  0.00386686  0.75006928  0.24862659  1
  Zn  Zn119  1  0.37808505  0.25382959  0.11865283  1
  Zn  Zn120  1  0.37652801  0.75104678  0.62994427  1
  Zn  Zn121  1  0.62355443  0.87067315  0.75214662  1
  Zn  Zn122  1  0.18731577  0.18962456  0.18302505  1
  Zn  Zn123  1  0.18787253  0.18632875  0.68281724  1
  Zn  Zn124  1  0.18910300  0.69172950  0.18553215  1
  Zn  Zn125  1  0.18480036  0.68759980  0.68520277  1
  Zn  Zn126  1  0.68710578  0.18975624  0.18902037  1
  Zn  Zn127  1  0.68499374  0.18662418  0.68864421  1
  Zn  Zn128  1  0.68806627  0.68809422  0.18912300  1
  Zn  Zn129  1  0.68683526  0.68841422  0.68921073  1
  Zn  Zn130  1  0.30923212  0.30869615  0.30878136  1
  Zn  Zn131  1  0.31655505  0.32046899  0.81399551  1
  Zn  Zn132  1  0.31448327  0.80881067  0.31235806  1
  Zn  Zn133  1  0.31482850  0.81500908  0.81135261  1
  Zn  Zn134  1  0.80998966  0.31329978  0.31283985  1
  Zn  Zn135  1  0.81376180  0.31329359  0.81342154  1
  Zn  Zn136  1  0.81170612  0.81083175  0.31415676  1
  Zn  Zn137  1  0.81250491  0.81188676  0.81088612  1
  Zn  Zn138  1  0.18385056  0.44012131  0.42897987  1
  Zn  Zn139  1  0.18837886  0.43545804  0.93608097  1
  Zn  Zn140  1  0.18596183  0.93831495  0.43755107  1
  Zn  Zn141  1  0.18935326  0.93591017  0.93791805  1
  Zn  Zn142  1  0.68364873  0.43808253  0.43537470  1
  Zn  Zn143  1  0.68964274  0.43691554  0.93698465  1
  Zn  Zn144  1  0.68513006  0.93965832  0.44117716  1
  Zn  Zn145  1  0.68791119  0.93609823  0.93676238  1
  Zn  Zn146  1  0.31034891  0.06508396  0.05791361  1
  Zn  Zn147  1  0.30872124  0.06756853  0.55621346  1
  Zn  Zn148  1  0.31545105  0.56399519  0.06811295  1
  Zn  Zn149  1  0.31204984  0.57502820  0.56659494  1
  Zn  Zn150  1  0.81417733  0.06186885  0.06365769  1
  Zn  Zn151  1  0.80687952  0.06303343  0.56141148  1
  Zn  Zn152  1  0.81553046  0.56200922  0.06299337  1
  Zn  Zn153  1  0.81165035  0.56270846  0.56387395  1
  Zn  Zn154  1  0.43816687  0.43904853  0.18838703  1
  Zn  Zn155  1  0.43799583  0.43114820  0.69548447  1
  Zn  Zn156  1  0.43645568  0.93786353  0.18808959  1
  Zn  Zn157  1  0.43714077  0.92246594  0.68949932  1
  Zn  Zn158  1  0.93557352  0.44010094  0.18580472  1
  Zn  Zn159  1  0.93917799  0.43816386  0.68761837  1
  Zn  Zn160  1  0.93865643  0.93896240  0.18711398  1
  Zn  Zn161  1  0.93712458  0.93536379  0.68861057  1
  Zn  Zn162  1  0.05949074  0.06012729  0.30931355  1
  Zn  Zn163  1  0.06436754  0.06253569  0.80998022  1
  Zn  Zn164  1  0.06126291  0.56133844  0.31000290  1
  Zn  Zn165  1  0.06609019  0.56297480  0.81035648  1
  Zn  Zn166  1  0.56038493  0.06358833  0.31562280  1
  Zn  Zn167  1  0.56645712  0.05956564  0.81849695  1
  Zn  Zn168  1  0.55903615  0.56090803  0.31632548  1
  Zn  Zn169  1  0.56316404  0.56051363  0.81929246  1
  Zn  Zn170  1  0.43461787  0.18664497  0.43456342  1
  Zn  Zn171  1  0.44096963  0.18586119  0.93489738  1
  Zn  Zn172  1  0.43794174  0.68720586  0.43903218  1
  Zn  Zn173  1  0.43933992  0.68109531  0.93703139  1
  Zn  Zn174  1  0.93443554  0.18736847  0.43589002  1
  Zn  Zn175  1  0.94062134  0.18838522  0.93740324  1
  Zn  Zn176  1  0.93605706  0.68891305  0.43676237  1
  Zn  Zn177  1  0.93787434  0.68691084  0.93718463  1
  Zn  Zn178  1  0.06633068  0.31299942  0.06026060  1
  Zn  Zn179  1  0.06347950  0.31153755  0.55998981  1
  Zn  Zn180  1  0.06497853  0.81365871  0.06189416  1
  Zn  Zn181  1  0.06267394  0.81313967  0.56093471  1
  Zn  Zn182  1  0.56514045  0.31105492  0.06612656  1
  Zn  Zn183  1  0.56013513  0.31292085  0.56635735  1
  Zn  Zn184  1  0.56171640  0.81064309  0.06457268  1
  Zn  Zn185  1  0.56165891  0.81400064  0.56364348  1
  O  O186  1  0.11965995  0.11713976  0.12333433  1
  O  O187  1  0.11640063  0.11967297  0.61742817  1
  O  O188  1  0.12081709  0.61996327  0.11810068  1
  O  O189  1  0.11946756  0.61847156  0.61312451  1
  O  O190  1  0.62018211  0.11996970  0.12166296  1
  O  O191  1  0.63047483  0.11425572  0.61692251  1
  O  O192  1  0.61194453  0.62743994  0.12705856  1
  O  O193  1  0.61835098  0.61819344  0.61710537  1
  O  O194  1  0.38806509  0.37368920  0.36735824  1
  O  O195  1  0.38091541  0.39515434  0.87140789  1
  O  O196  1  0.37822503  0.88513898  0.37281613  1
  O  O197  1  0.37422403  0.88608861  0.88642945  1
  O  O198  1  0.87929868  0.37952128  0.38044224  1
  O  O199  1  0.88361512  0.37498480  0.88184247  1
  O  O200  1  0.88132558  0.88045160  0.38034622  1
  O  O201  1  0.88054685  0.88097312  0.88050147  1
  O  O202  1  0.25591859  0.01154767  0.37808628  1
  O  O203  1  0.25757910  -0.00132068  0.86468426  1
  O  O204  1  0.25356303  0.50531400  0.36959222  1
  O  O205  1  0.26053448  0.49673972  0.86879285  1
  O  O206  1  0.75510620  0.00016870  0.36848989  1
  O  O207  1  0.75794619  0.00640864  0.87127174  1
  O  O208  1  0.75547848  0.50026685  0.36540223  1
  O  O209  1  0.75320450  0.50782186  0.87088648  1
  O  O210  1  0.24430078  0.49111574  0.12524668  1
  O  O211  1  0.24615515  0.49713348  0.62763466  1
  O  O212  1  0.24034317  0.99168939  0.11503604  1
  O  O213  1  0.24453092  0.99452056  0.62831540  1
  O  O214  1  0.75720685  0.49392060  0.13802526  1
  O  O215  1  0.74417743  0.49418119  0.63076587  1
  O  O216  1  0.74498467  0.99443180  0.13039063  1
  O  O217  1  0.74208291  0.99565516  0.63091923  1
  O  O218  1  0.00263323  0.36983486  0.25303447  1
  O  O219  1  0.01000588  0.36962133  0.75372074  1
  O  O220  1  -0.00170319  0.87488009  0.26184815  1
  O  O221  1  0.00269805  0.86832462  0.75651932  1
  O  O222  1  0.50497086  0.37091700  0.25682232  1
  O  O223  1  0.51119731  0.36371769  0.75794202  1
  O  O224  1  0.50522135  0.87010488  0.25518274  1
  O  O225  1  0.50484032  0.86892335  0.75641767  1
  O  O226  1  0.49228250  0.13021747  0.24572724  1
  O  O227  1  0.50659361  0.13851697  0.75921049  1
  O  O228  1  0.49523290  0.62790028  0.24474343  1
  O  O229  1  0.50375897  0.61959764  0.73841213  1
  O  O230  1  0.99290305  0.13106768  0.24320390  1
  O  O231  1  0.99475611  0.13084550  0.74318322  1
  O  O232  1  0.99316927  0.62548934  0.24202747  1
  O  O233  1  1.00139820  0.63103282  0.74157070  1
  O  O234  1  0.36387387  0.24650718  -0.00228078  1
  O  O235  1  0.35510278  0.24689173  0.49164029  1
  O  O236  1  0.36779215  0.75835751  -0.00190912  1
  O  O237  1  0.36157106  0.74997078  0.50326457  1
  O  O238  1  0.87140945  0.25544329  0.00519950  1
  O  O239  1  0.86874181  0.25539311  0.50489636  1
  O  O240  1  0.86707534  0.75526521  0.00567492  1
  O  O241  1  0.87310194  0.75694517  0.50688209  1
  O  O242  1  0.12787987  0.24406964  0.48958958  1
  O  O243  1  0.13297968  0.25039530  0.98719824  1
  O  O244  1  0.13208315  0.74153918  0.49878912  1
  O  O245  1  0.13269382  0.74588225  0.99300595  1
  O  O246  1  0.62761874  0.24428598  0.49803940  1
  O  O247  1  0.63249523  0.24364105  0.99718931  1
  O  O248  1  0.62362034  0.73914722  0.49611264  1
  O  O249  1  0.64134271  0.74928467  1.00335544  1
  O  O250  1  0.49729674  0.24295376  0.13106812  1
  O  O251  1  0.50539618  0.25014021  0.64565157  1
  O  O252  1  0.49777733  0.74092017  0.13131624  1
  O  O253  1  0.49937499  0.73704328  0.62378532  1
  O  O254  1  0.99560805  0.24581499  0.12829524  1
  O  O255  1  0.99415540  0.24411473  0.62832658  1
  O  O256  1  0.99407396  0.74440366  0.12316696  1
  O  O257  1  0.99601474  0.74595457  0.62933732  1
  O  O258  1  0.00238319  0.25468754  0.36776814  1
  O  O259  1  0.00934781  0.25522138  0.86834232  1
  O  O260  1  0.00105198  0.76259901  0.37515855  1
  O  O261  1  0.00769781  0.75493949  0.87092662  1
  O  O262  1  0.50378689  0.25745898  0.37096315  1
  O  O263  1  0.50977121  0.25205411  0.87130637  1
  O  O264  1  0.50499186  0.75702657  0.37067150  1
  O  O265  1  0.50512519  0.75000362  0.87778139  1
  O  O266  1  0.23982003  0.13411611  0.48482932  1
  O  O267  1  0.24612842  0.13745603  0.99445739  1
  O  O268  1  0.24012959  0.63466709  0.50021352  1
  O  O269  1  0.24629973  0.63897282  1.00834928  1
  O  O270  1  0.73851269  0.13243568  0.49779947  1
  O  O271  1  0.74726310  0.13055727  0.99685077  1
  O  O272  1  0.73481675  0.62260059  0.49938976  1
  O  O273  1  0.75137051  0.63211156  0.99551899  1
  O  O274  1  0.24348195  0.36545709  0.00947262  1
  O  O275  1  0.24224868  0.36148068  0.49146507  1
  O  O276  1  0.25907414  0.86821116  0.00687622  1
  O  O277  1  0.24838768  0.86816434  0.50716898  1
  O  O278  1  0.75649451  0.36975314  0.00556649  1
  O  O279  1  0.75337440  0.37100357  0.50602794  1
  O  O280  1  0.75693544  0.86818310  0.00620858  1
  O  O281  1  0.75590084  0.87519551  0.50728840  1
  O  O282  1  0.12529347  0.49337952  0.24150285  1
  O  O283  1  0.13279795  0.49278645  0.74370291  1
  O  O284  1  0.11987720  0.99631436  0.23414524  1
  O  O285  1  0.13360124  0.99749009  0.74335918  1
  O  O286  1  0.63624969  0.49444618  0.25875737  1
  O  O287  1  0.63105424  0.49314886  0.74694217  1
  O  O288  1  0.62892538  0.99557033  0.24573951  1
  O  O289  1  0.63243020  1.00269680  0.74194768  1
  O  O290  1  0.37905212  0.01236632  0.25916346  1
  O  O291  1  0.37052942  -0.00007275  0.75555566  1
  O  O292  1  0.37548985  0.51181212  0.25255169  1
  O  O293  1  0.36527710  0.50102403  0.75530358  1
  O  O294  1  0.86890527  0.00567922  0.25398157  1
  O  O295  1  0.87114897  0.00657278  0.75543222  1
  O  O296  1  0.86655637  0.50501515  0.25526716  1
  O  O297  1  0.86810376  0.50138862  0.75173470  1
  O  O298  1  0.11571138  0.36930101  0.36612900  1
  O  O299  1  0.12138056  0.36627915  0.86429251  1
  O  O300  1  0.11356829  0.87760597  0.37296137  1
  O  O301  1  0.11879733  0.86402722  0.87603726  1
  O  O302  1  0.61385780  0.36971478  0.36909904  1
  O  O303  1  0.62709789  0.36683546  0.87088386  1
  O  O304  1  0.61914990  0.87164708  0.37079388  1
  O  O305  1  0.62432803  0.87162146  0.87302925  1
  O  O306  1  0.37979378  0.12347675  0.13290599  1
  O  O307  1  0.36982559  0.13575185  0.61894720  1
  O  O308  1  0.38685273  0.62734931  0.13481725  1
  O  O309  1  0.38705205  0.62785203  0.63111562  1
  O  O310  1  0.88111828  0.13084970  0.12992592  1
  O  O311  1  0.87835815  0.13023911  0.62946708  1
  O  O312  1  0.88196283  0.63046710  0.12979607  1
  O  O313  1  0.88202848  0.63163600  0.62415735  1
  O  O314  1  0.25103271  0.25731458  0.11413986  1
  O  O315  1  0.24241624  0.24609819  0.60185604  1
  O  O316  1  0.25218946  0.76127524  0.11194642  1
  O  O317  1  0.24654963  0.75977750  0.61676865  1
  O  O318  1  0.75680201  0.25548481  0.12005855  1
  O  O319  1  0.75484873  0.25576759  0.62088857  1
  O  O320  1  0.75647161  0.75500167  0.11869758  1
  O  O321  1  0.75641082  0.75713784  0.62314080  1
  O  O322  1  0.24107291  0.24126670  0.37930337  1
  O  O323  1  0.24423044  0.25312106  0.87859848  1
  O  O324  1  0.24694570  0.74899859  0.38634911  1
  O  O325  1  0.24014626  0.75971514  0.88547615  1
  O  O326  1  0.74155920  0.25105269  0.38236091  1
  O  O327  1  0.74784287  0.24400122  0.88197233  1
  O  O328  1  0.74082267  0.74670655  0.37917723  1
  O  O329  1  0.75382598  0.74204894  0.88527424  1
  O  O330  1  0.00285540  0.11928589  0.00569355  1
  O  O331  1  0.00214707  0.12000237  0.50362903  1
  O  O332  1  0.00710456  0.62004168  0.00486399  1
  O  O333  1  0.00689396  0.61990376  0.50367620  1
  O  O334  1  0.50725019  0.11920577  0.00661444  1
  O  O335  1  0.51170471  0.12635016  0.49629968  1
  O  O336  1  0.50329267  0.61451047  0.01018638  1
  O  O337  1  0.50616752  0.61448864  0.50831327  1
  O  O338  1  0.50608268  0.38374995  0.49197345  1
  O  O339  1  0.50356690  0.38712035  1.00459439  1
  O  O340  1  0.49575188  0.87937253  0.49303140  1
  O  O341  1  0.48970373  0.88042947  1.00384171  1
  O  O342  1  0.99390816  0.37960821  0.49350563  1
  O  O343  1  0.99740486  0.38008655  0.99432196  1
  O  O344  1  0.99414112  0.88134290  0.49244351  1
  O  O345  1  0.99436354  0.88011467  0.99440688  1
  O  O346  1  0.49593450  0.49162584  0.38710199  1
  O  O347  1  0.49479010  0.49849934  0.89268201  1
  O  O348  1  0.48911145  0.99527183  0.37635745  1
  O  O349  1  0.49237645  0.99792269  0.88316293  1
  O  O350  1  0.99342391  0.49348981  0.37976374  1
  O  O351  1  1.00277146  0.49398279  0.88028205  1
  O  O352  1  0.99289328  0.99316146  0.37993239  1
  O  O353  1  0.99617312  0.99539162  0.87852264  1
  O  O354  1  0.00734325  0.00467082  0.11826765  1
  O  O355  1  0.00315869  0.00495577  0.61967283  1
  O  O356  1  0.00647714  0.50532191  0.11792019  1
  O  O357  1  0.00613924  0.50497869  0.61787429  1
  O  O358  1  0.50612952  0.00534848  0.12072882  1
  O  O359  1  0.50569471  0.00310284  0.63093370  1
  O  O360  1  0.49266973  0.50649938  0.11140902  1
  O  O361  1  0.50514440  0.50400666  0.62008553  1
  O  O362  1  0.24087699  0.37263234  0.23963241  1
  O  O363  1  0.23845327  0.38451684  0.75228476  1
  O  O364  1  0.25368440  0.86901652  0.23300841  1
  O  O365  1  0.24928956  0.88609177  0.73907308  1
  O  O366  1  0.74522080  0.38282997  0.24606647  1
  O  O367  1  0.74600560  0.37895392  0.74507044  1
  O  O368  1  0.74427548  0.88035900  0.24491432  1
  O  O369  1  0.75118473  0.88343053  0.74265037  1
  O  O370  1  0.25770739  0.13352495  0.25832263  1
  O  O371  1  0.24625764  0.11174083  0.74935351  1
  O  O372  1  0.26249491  0.62626439  0.24773504  1
  O  O373  1  0.24666488  0.60900293  0.74250110  1
  O  O374  1  0.75543125  0.11900102  0.25098844  1
  O  O375  1  0.75679313  0.12073475  0.75665398  1
  O  O376  1  0.75528641  0.61652791  0.25081550  1
  O  O377  1  0.75196909  0.61841142  0.75882959  1
  O  O378  1  0.36649193  0.11837458  0.36606811  1
  O  O379  1  0.37370956  0.10872691  0.88034405  1
  O  O380  1  0.37649683  0.62325097  0.36470782  1
  O  O381  1  0.38164247  0.60532261  0.87117555  1
  O  O382  1  0.87224026  0.11847812  0.36781834  1
  O  O383  1  0.87235219  0.12076114  0.86973132  1
  O  O384  1  0.87346655  0.61836249  0.36942199  1
  O  O385  1  0.86432114  0.62278589  0.87382161  1
  O  O386  1  0.13224575  0.38034262  0.12826628  1
  O  O387  1  0.11852406  0.38042795  0.63451893  1
  O  O388  1  0.13374269  0.88348458  0.12301077  1
  O  O389  1  0.13376966  0.88185190  0.62462304  1
  O  O390  1  0.63485890  0.36841296  0.13606244  1
  O  O391  1  0.63138132  0.37986769  0.63227299  1
  O  O392  1  0.63041696  0.88062725  0.13160083  1
  O  O393  1  0.62964293  0.88961566  0.62368695  1
  O  O394  1  0.11681198  0.25474010  0.25213948  1
  O  O395  1  0.12320991  0.25684215  0.75348286  1
  O  O396  1  0.12153513  0.75554576  0.25229170  1
  O  O397  1  0.12130398  0.75175258  0.75878597  1
  O  O398  1  0.61833487  0.25543263  0.25688924  1
  O  O399  1  0.62118470  0.25374155  0.75842565  1
  O  O400  1  0.62015573  0.75659756  0.25665344  1
  O  O401  1  0.62131529  0.75218763  0.75308124  1
  O  O402  1  0.38113690  0.23697269  0.24905467  1
  O  O403  1  0.39415012  0.25235921  0.76018596  1
  O  O404  1  0.38348546  0.74060715  0.24848431  1
  O  O405  1  0.37733689  0.74555417  0.74812247  1
  O  O406  1  0.87889756  0.24606439  0.24421931  1
  O  O407  1  0.88108764  0.24542957  0.74417522  1
  O  O408  1  0.87585780  0.74340202  0.24342566  1
  O  O409  1  0.88304366  0.74782405  0.74296892  1
  O  O410  1  0.38273764  0.49898026  0.50567175  1
  O  O411  1  0.37815407  0.50260234  0.99143160  1
  O  O412  1  0.37452212  1.00093131  0.48522887  1
  O  O413  1  0.37922782  0.99272769  0.99353403  1
  O  O414  1  0.87938240  0.49424154  0.49537757  1
  O  O415  1  0.88411380  0.49276945  0.99879186  1
  O  O416  1  0.87861885  0.99584417  0.49518001  1
  O  O417  1  0.88120400  0.99510587  0.99453899  1
  O  O418  1  0.11932998  0.00120637  0.00685690  1
  O  O419  1  0.11754017  0.00673745  0.50465181  1
  O  O420  1  0.12178470  0.50540556  0.00345168  1
  O  O421  1  0.11936252  0.50671808  0.50241698  1
  O  O422  1  0.62163104  0.00538370  0.00719499  1
  O  O423  1  0.62037823  0.00917561  0.51010980  1
  O  O424  1  0.61362320  0.50054131  -0.00074000  1
  O  O425  1  0.61520160  0.50592008  0.50553229  1
  O  O426  1  0.36060618  0.37262435  0.13273834  1
  O  O427  1  0.38117701  0.35996864  0.63003706  1
  O  O428  1  0.36870183  0.87697868  0.11439797  1
  O  O429  1  0.36081299  0.87406420  0.61924472  1
  O  O430  1  0.86970131  0.36910514  0.11932059  1
  O  O431  1  0.87030437  0.36943279  0.61912378  1
  O  O432  1  0.87012418  0.87119063  0.11983733  1
  O  O433  1  0.87013439  0.87079724  0.61930380  1
  O  O434  1  0.12866007  0.12760505  0.37478185  1
  O  O435  1  0.12687216  0.13941979  0.87199090  1
  O  O436  1  0.12344788  0.62535316  0.38676963  1
  O  O437  1  0.12062952  0.63879704  0.88143979  1
  O  O438  1  0.62558669  0.13172008  0.38420543  1
  O  O439  1  0.63437880  0.12897822  0.88433141  1
  O  O440  1  0.62176255  0.63028299  0.38582600  1
  O  O441  1  0.64094921  0.62537218  0.88086923  1
