# generated using pymatgen
data_V93Zn93O256
_symmetry_space_group_name_H-M   'P 1'
_cell_length_a   17.06040650
_cell_length_b   17.06213523
_cell_length_c   17.05185543
_cell_angle_alpha   90.04550508
_cell_angle_beta   89.96183351
_cell_angle_gamma   90.10539013
_symmetry_Int_Tables_number   1
_chemical_formula_structural   V93Zn93O256
_chemical_formula_sum   'V93 Zn93 O256'
_cell_volume   4963.56174725
_cell_formula_units_Z   1
loop_
 _symmetry_equiv_pos_site_id
 _symmetry_equiv_pos_as_xyz
  1  'x, y, z'
loop_
 _atom_site_type_symbol
 _atom_site_label
 _atom_site_symmetry_multiplicity
 _atom_site_fract_x
 _atom_site_fract_y
 _atom_site_fract_z
 _atom_site_occupancy
  V  V0  1  0.75544059  0.50457367  0.75067168  1
  V  V1  1  0.37473824  0.12568300  0.74920490  1
  V  V2  1  0.74914752  0.37580551  0.12533905  1
  V  V3  1  0.86837121  0.87052455  0.49949298  1
  V  V4  1  0.12465247  0.49839130  0.12592767  1
  V  V5  1  0.62527426  0.37580419  0.24995800  1
  V  V6  1  0.24638902  0.12278025  0.87655306  1
  V  V7  1  0.24916409  -0.00166091  0.74824171  1
  V  V8  1  0.12580811  0.24935345  0.37403354  1
  V  V9  1  0.24504009  0.00686826  0.25406478  1
  V  V10  1  0.25057910  0.49855608  0.25006400  1
  V  V11  1  0.87609616  -0.00057719  0.37496108  1
  V  V12  1  0.62491245  0.25063859  0.87488713  1
  V  V13  1  0.86943877  0.74753714  0.62322260  1
  V  V14  1  0.87649144  0.00063481  0.87499797  1
  V  V15  1  0.62407862  0.50152614  0.12495689  1
  V  V16  1  0.11995292  0.49913127  0.61771429  1
  V  V17  1  0.75053906  0.00094111  0.24856270  1
  V  V18  1  0.12524992  0.62396322  -0.00135192  1
  V  V19  1  0.13048203  0.12279258  0.49460350  1
  V  V20  1  0.87394433  0.12453507  0.74609107  1
  V  V21  1  0.12389054  0.87344781  0.74775406  1
  V  V22  1  0.75087687  0.87676874  0.12384480  1
  V  V23  1  -0.00052753  -0.00194884  0.49896566  1
  V  V24  1  0.00008196  0.37645419  0.87457905  1
  V  V25  1  0.49893045  0.24914483  0.74941772  1
  V  V26  1  0.37418457  0.62438359  0.75005871  1
  V  V27  1  0.50021553  0.62380373  0.62402778  1
  V  V28  1  0.37371781  0.74874180  0.62425888  1
  V  V29  1  0.75567236  0.25277658  0.50090112  1
  V  V30  1  0.49902470  0.12536106  0.12536424  1
  V  V31  1  0.87581910  0.75030727  0.12484913  1
  V  V32  1  0.49922051  0.74973217  0.75029121  1
  V  V33  1  0.74990938  0.75115354  -0.00138234  1
  V  V34  1  0.37666858  0.37447600  0.50246643  1
  V  V35  1  0.49941653  0.24880208  0.25000394  1
  V  V36  1  0.75347902  0.62541860  0.87319822  1
  V  V37  1  0.75109696  0.12617862  0.37454704  1
  V  V38  1  0.25258188  0.24525582  0.49703720  1
  V  V39  1  0.87985868  0.87932204  -0.00098717  1
  V  V40  1  0.74919641  -0.00155694  0.74790827  1
  V  V41  1  0.24873725  0.74774738  0.49927287  1
  V  V42  1  0.49978284  0.87511229  0.87521273  1
  V  V43  1  -0.00017504  0.50138360  0.00023488  1
  V  V44  1  0.62509779  0.50140457  0.62405932  1
  V  V45  1  0.24949690  0.62523011  0.87502750  1
  V  V46  1  -0.00591802  0.74420560  0.74884738  1
  V  V47  1  0.37295106  0.00563923  0.37424643  1
  V  V48  1  0.75105205  0.37511201  0.62471959  1
  V  V49  1  0.62888824  0.75161495  0.38269117  1
  V  V50  1  0.37595200  0.49995751  0.37513724  1
  V  V51  1  0.24891963  0.87263249  0.62437741  1
  V  V52  1  0.37472220  0.25022275  0.12525073  1
  V  V53  1  0.25147895  0.62471729  0.37573722  1
  V  V54  1  0.49959529  0.37574397  0.87534654  1
  V  V55  1  0.24571868  0.87699864  0.12714898  1
  V  V56  1  0.37434804  -0.00036851  0.87379597  1
  V  V57  1  0.62477534  0.12468104  0.00037350  1
  V  V58  1  0.50012006  -0.00034520  0.49879049  1
  V  V59  1  0.87460867  0.50392416  0.87414728  1
  V  V60  1  -0.00346792  0.62213987  0.62014702  1
  V  V61  1  0.74962700  0.25043498  -0.00058610  1
  V  V62  1  0.12338461  0.75121144  0.37285056  1
  V  V63  1  0.00028619  0.12414800  0.62996082  1
  V  V64  1  0.24702495  0.24617642  0.00102963  1
  V  V65  1  0.87840614  0.25059932  0.12679894  1
  V  V66  1  0.12443008  0.24510794  0.87787954  1
  V  V67  1  0.62473714  0.62545585  0.00128465  1
  V  V68  1  0.37512739  0.37513115  -0.00027900  1
  V  V69  1  0.12545170  -0.00238451  0.62482464  1
  V  V70  1  0.62491923  -0.00033939  0.62410790  1
  V  V71  1  0.12517230  0.37413516  0.74902193  1
  V  V72  1  0.37542498  0.49964192  0.87522793  1
  V  V73  1  0.37479008  0.87517055  0.49882649  1
  V  V74  1  0.87420248  0.37727279  0.00083939  1
  V  V75  1  0.88104478  0.49980213  0.38169823  1
  V  V76  1  0.37644696  0.74863028  0.12874695  1
  V  V77  1  0.62552709  0.37512933  0.75058373  1
  V  V78  1  0.74971414  0.62997035  0.38301034  1
  V  V79  1  0.62625751  0.25140481  0.37503810  1
  V  V80  1  0.87434174  0.62654527  0.24878293  1
  V  V81  1  0.24874703  0.49985943  0.74936718  1
  V  V82  1  0.62517208  0.87563238  0.74953709  1
  V  V83  1  0.49943250  0.00148571  0.00038007  1
  V  V84  1  0.62513366  0.74992872  0.87528354  1
  V  V85  1  0.37488122  0.87515603  0.00026119  1
  V  V86  1  0.50138324  0.37582659  0.37579094  1
  V  V87  1  0.00033835  0.87892931  0.87432149  1
  V  V88  1  0.87995890  0.12671603  0.24867801  1
  V  V89  1  0.62549172  0.12422147  0.49978347  1
  V  V90  1  0.24943602  0.74859845  -0.00028474  1
  V  V91  1  0.74963013  0.12516846  0.87301606  1
  V  V92  1  0.62351299  0.87401433  0.24965298  1
  Zn  Zn93  1  0.12224789  0.37511612  0.25317640  1
  Zn  Zn94  1  0.00134803  0.75243684  0.24784885  1
  Zn  Zn95  1  0.49840099  0.87274983  0.37314270  1
  Zn  Zn96  1  0.24992861  0.37324576  0.12647322  1
  Zn  Zn97  1  0.87889883  0.25216625  0.62524057  1
  Zn  Zn98  1  0.49988126  0.62571693  0.12575202  1
  Zn  Zn99  1  0.24963680  0.37408336  0.62459036  1
  Zn  Zn100  1  0.37235686  0.12778924  0.25362251  1
  Zn  Zn101  1  0.49908133  0.12643685  0.62437045  1
  Zn  Zn102  1  0.37467117  0.24901564  0.62582187  1
  Zn  Zn103  1  0.11991650  0.87725517  0.24752723  1
  Zn  Zn104  1  0.00379461  0.25331522  0.25050095  1
  Zn  Zn105  1  0.12168144  0.01099278  0.10681166  1
  Zn  Zn106  1  0.00267883  0.11641405  0.10471725  1
  Zn  Zn107  1  0.12146139  0.61955777  0.49657512  1
  Zn  Zn108  1  0.74657492  0.86830462  0.62092888  1
  Zn  Zn109  1  0.75017665  0.50044542  0.25237108  1
  Zn  Zn110  1  0.37931689  0.62478530  0.25087007  1
  Zn  Zn111  1  0.49897455  0.50197950  -0.00003109  1
  Zn  Zn112  1  0.62622699  0.62891483  0.50223750  1
  Zn  Zn113  1  0.50351964  0.50224754  0.49838422  1
  Zn  Zn114  1  -0.00096463  0.24986537  0.74883925  1
  Zn  Zn115  1  0.62445741  0.00041549  0.12533012  1
  Zn  Zn116  1  -0.00096618  0.87311495  0.37315467  1
  Zn  Zn117  1  -0.00031524  0.62691884  0.12441996  1
  Zn  Zn118  1  0.88480221  0.38524623  0.50804633  1
  Zn  Zn119  1  0.12256918  0.74775916  0.87323681  1
  Zn  Zn120  1  0.00469883  0.37847388  0.38044619  1
  Zn  Zn121  1  0.50090068  0.74708475  0.25174020  1
  Zn  Zn122  1  0.18403609  0.18502284  0.18467702  1
  Zn  Zn123  1  0.18813880  0.18669026  0.68591104  1
  Zn  Zn124  1  0.18962904  0.68518081  0.18840019  1
  Zn  Zn125  1  0.18299248  0.68533105  0.68685446  1
  Zn  Zn126  1  0.68805313  0.18766029  0.18699254  1
  Zn  Zn127  1  0.68653857  0.18701745  0.68532843  1
  Zn  Zn128  1  0.69070172  0.68876386  0.19025874  1
  Zn  Zn129  1  0.68667521  0.68632043  0.68876241  1
  Zn  Zn130  1  0.31144217  0.31270941  0.31450298  1
  Zn  Zn131  1  0.31172787  0.31194534  0.81337369  1
  Zn  Zn132  1  0.30974101  0.81642791  0.31234407  1
  Zn  Zn133  1  0.31182573  0.81140033  0.81240964  1
  Zn  Zn134  1  0.81179433  0.31532020  0.31185035  1
  Zn  Zn135  1  0.81375665  0.31346991  0.81038923  1
  Zn  Zn136  1  0.81120791  0.81269633  0.31223487  1
  Zn  Zn137  1  0.81291902  0.81249612  0.80991339  1
  Zn  Zn138  1  0.19141109  0.43301776  0.43745540  1
  Zn  Zn139  1  0.18875937  0.43527037  0.93773262  1
  Zn  Zn140  1  0.18803690  0.93514454  0.43618400  1
  Zn  Zn141  1  0.18915725  0.93054872  0.93420000  1
  Zn  Zn142  1  0.69224763  0.44149430  0.43803141  1
  Zn  Zn143  1  0.68715242  0.43864775  0.93824897  1
  Zn  Zn144  1  0.68870060  0.93811241  0.43558649  1
  Zn  Zn145  1  0.68858130  0.93876150  0.93718760  1
  Zn  Zn146  1  0.31047822  0.06299201  0.06465430  1
  Zn  Zn147  1  0.31436681  0.06190976  0.56375796  1
  Zn  Zn148  1  0.31179432  0.56253381  0.06269252  1
  Zn  Zn149  1  0.30983785  0.56058567  0.56246608  1
  Zn  Zn150  1  0.81563217  0.06323352  0.06201227  1
  Zn  Zn151  1  0.81189918  0.06022345  0.56170112  1
  Zn  Zn152  1  0.81012650  0.56373103  0.06193256  1
  Zn  Zn153  1  0.81155596  0.56633168  0.56392346  1
  Zn  Zn154  1  0.43811157  0.43576016  0.18755449  1
  Zn  Zn155  1  0.43876648  0.43728982  0.68758133  1
  Zn  Zn156  1  0.43555004  0.93841850  0.18818079  1
  Zn  Zn157  1  0.43806558  0.93795301  0.68545024  1
  Zn  Zn158  1  0.94029880  0.43767610  0.19431092  1
  Zn  Zn159  1  0.93798877  0.43756626  0.68751205  1
  Zn  Zn160  1  0.94368056  0.93826619  0.18685226  1
  Zn  Zn161  1  0.93699896  0.93515569  0.68646852  1
  Zn  Zn162  1  0.06105478  0.06336519  0.31086732  1
  Zn  Zn163  1  0.06149251  0.06191265  0.94049099  1
  Zn  Zn164  1  0.06174319  0.56760242  0.31058536  1
  Zn  Zn165  1  0.06155620  0.56268692  0.80944774  1
  Zn  Zn166  1  0.56125312  0.06151044  0.31332831  1
  Zn  Zn167  1  0.56185887  0.06317907  0.81179367  1
  Zn  Zn168  1  0.56207465  0.56567552  0.31084265  1
  Zn  Zn169  1  0.56407377  0.56246387  0.81203746  1
  Zn  Zn170  1  0.43937083  0.18678029  0.43738485  1
  Zn  Zn171  1  0.43512421  0.18738999  0.93681820  1
  Zn  Zn172  1  0.44089525  0.68797164  0.43616788  1
  Zn  Zn173  1  0.43786260  0.68650464  0.94044141  1
  Zn  Zn174  1  0.94247646  0.18624067  0.43827348  1
  Zn  Zn175  1  0.93341390  0.19334042  0.93258061  1
  Zn  Zn176  1  0.93795351  0.68675178  0.43955399  1
  Zn  Zn177  1  0.93751185  0.68849630  0.93736012  1
  Zn  Zn178  1  0.06211678  0.31384734  0.06192565  1
  Zn  Zn179  1  0.06060825  0.31144486  0.55857574  1
  Zn  Zn180  1  0.06208183  0.81172490  0.06148043  1
  Zn  Zn181  1  0.05860458  0.80947386  0.55889669  1
  Zn  Zn182  1  0.56092435  0.31311673  0.06217691  1
  Zn  Zn183  1  0.56399426  0.31208333  0.56387587  1
  Zn  Zn184  1  0.56214850  0.81360796  0.06351111  1
  Zn  Zn185  1  0.55974216  0.81413065  0.56244853  1
  O  O186  1  0.11514159  0.12612886  0.12421348  1
  O  O187  1  0.11867444  0.11810702  0.61739855  1
  O  O188  1  0.12552531  0.61365237  0.11851503  1
  O  O189  1  0.11712238  0.61479416  0.62350239  1
  O  O190  1  0.61848875  0.12452142  0.11801769  1
  O  O191  1  0.62336549  0.11742690  0.61751370  1
  O  O192  1  0.62861892  0.61680970  0.12029584  1
  O  O193  1  0.61847859  0.62001360  0.62487400  1
  O  O194  1  0.38115372  0.37926003  0.38378124  1
  O  O195  1  0.37995182  0.38067735  0.87903509  1
  O  O196  1  0.37565350  0.88424451  0.38152007  1
  O  O197  1  0.38032040  0.87953825  0.87967125  1
  O  O198  1  0.87025867  0.39455877  0.37259019  1
  O  O199  1  0.87976965  0.38150719  0.88114072  1
  O  O200  1  0.87453123  0.88045347  0.38259871  1
  O  O201  1  0.88067332  0.87891037  0.88029533  1
  O  O202  1  0.25881512  -0.00755541  0.36227388  1
  O  O203  1  0.25691861  0.00241853  0.86647312  1
  O  O204  1  0.25472941  0.50406064  0.36816584  1
  O  O205  1  0.25544836  0.50526580  0.86940653  1
  O  O206  1  0.75643050  0.00746001  0.36873049  1
  O  O207  1  0.75498020  0.00616090  0.86799582  1
  O  O208  1  0.75812663  0.51195154  0.37121261  1
  O  O209  1  0.75396494  0.50425800  0.86861460  1
  O  O210  1  0.24237850  0.49879945  0.13291556  1
  O  O211  1  0.23963656  0.49769014  0.63288085  1
  O  O212  1  0.25163919  0.99189809  0.13674643  1
  O  O213  1  0.24595178  0.99153605  0.62834576  1
  O  O214  1  0.73936105  0.49400508  0.12523489  1
  O  O215  1  0.74635896  0.49684355  0.63321549  1
  O  O216  1  0.74893315  0.99471221  0.13067511  1
  O  O217  1  0.74239119  0.99758683  0.63127873  1
  O  O218  1  0.00433933  0.37096579  0.26045935  1
  O  O219  1  0.01000143  0.37420280  0.75588089  1
  O  O220  1  0.00358379  0.86963384  0.25573957  1
  O  O221  1  0.00436436  0.86679959  0.75576741  1
  O  O222  1  0.50594937  0.36813478  0.25614080  1
  O  O223  1  0.50598796  0.36971270  0.75621158  1
  O  O224  1  0.51332599  0.87567028  0.24935744  1
  O  O225  1  0.50440685  0.86945632  0.75577633  1
  O  O226  1  0.49924924  0.13184131  0.24410187  1
  O  O227  1  0.49283335  0.13165913  0.75116596  1
  O  O228  1  0.49604070  0.62926349  0.24312293  1
  O  O229  1  0.49394296  0.63081149  0.74557449  1
  O  O230  1  0.98419311  0.13000935  0.25320482  1
  O  O231  1  0.99248523  0.12491559  0.73453429  1
  O  O232  1  0.98603377  0.62932456  0.24645953  1
  O  O233  1  1.00476354  0.63693134  0.74070033  1
  O  O234  1  0.36735027  0.25604589  0.00383168  1
  O  O235  1  0.36926076  0.25645454  0.49862641  1
  O  O236  1  0.36950501  0.75550825  0.00767909  1
  O  O237  1  0.36932612  0.75488116  0.50516401  1
  O  O238  1  0.86784292  0.25837124  0.00715599  1
  O  O239  1  0.86128504  0.24645660  0.49922126  1
  O  O240  1  0.86823726  0.75899947  0.00356283  1
  O  O241  1  0.88114644  0.76042126  0.50959718  1
  O  O242  1  0.13391263  0.24114856  0.49444563  1
  O  O243  1  0.13540790  0.26152873  0.98851484  1
  O  O244  1  0.13211334  0.74810711  0.49082467  1
  O  O245  1  0.13208127  0.74188576  0.99813380  1
  O  O246  1  0.63493491  0.24581640  0.49445524  1
  O  O247  1  0.63029087  0.24506790  0.99455262  1
  O  O248  1  0.62176292  0.75216743  0.48700477  1
  O  O249  1  0.63047852  0.74693715  0.99439202  1
  O  O250  1  0.49476079  0.24551696  0.13053664  1
  O  O251  1  0.49881545  0.24787588  0.63415539  1
  O  O252  1  0.48711291  0.75217825  0.12567906  1
  O  O253  1  0.49320305  0.74488263  0.63134737  1
  O  O254  1  0.98486806  0.25272064  0.12493588  1
  O  O255  1  0.99980972  0.23736274  0.62559192  1
  O  O256  1  0.99079093  0.74691728  0.12523361  1
  O  O257  1  0.99278387  0.74300679  0.63141721  1
  O  O258  1  0.01511726  0.24712728  0.37419074  1
  O  O259  1  0.00885919  0.25867714  0.87262814  1
  O  O260  1  0.01267303  0.74766133  0.37471061  1
  O  O261  1  -0.00206093  0.75782506  0.86478951  1
  O  O262  1  0.50694941  0.25555367  0.37005842  1
  O  O263  1  0.50581572  0.25556547  0.87001766  1
  O  O264  1  0.51126618  0.75370225  0.37073235  1
  O  O265  1  0.50455448  0.75536477  0.87027001  1
  O  O266  1  0.23973947  0.13125528  0.50725147  1
  O  O267  1  0.25809103  0.13994791  0.99306701  1
  O  O268  1  0.24840074  0.63071982  0.49338336  1
  O  O269  1  0.24491358  0.62889747  0.99379755  1
  O  O270  1  0.74494696  0.13204976  0.49417440  1
  O  O271  1  0.74569583  0.13074409  0.99326884  1
  O  O272  1  0.74724435  0.62487813  0.48728084  1
  O  O273  1  0.74380784  0.63226262  0.99348979  1
  O  O274  1  0.25748659  0.36390399  -0.00064290  1
  O  O275  1  0.26221860  0.36519464  0.50139370  1
  O  O276  1  0.25717348  0.86831444  0.00709537  1
  O  O277  1  0.25553322  0.86842571  0.50613915  1
  O  O278  1  0.75458173  0.36993648  0.00502244  1
  O  O279  1  0.75334533  0.36638790  0.50546179  1
  O  O280  1  0.75738581  0.86937842  0.00253223  1
  O  O281  1  0.76391604  0.88102679  0.50201188  1
  O  O282  1  0.13284410  0.50245965  0.24219841  1
  O  O283  1  0.12934127  0.49069120  0.74411235  1
  O  O284  1  0.14041445  0.99844825  0.25677406  1
  O  O285  1  0.13489753  0.98806122  0.73918863  1
  O  O286  1  0.62663580  0.49416305  0.24059289  1
  O  O287  1  0.63415371  0.49379369  0.74548122  1
  O  O288  1  0.63189699  0.99113079  0.25019371  1
  O  O289  1  0.62868636  0.99475952  0.74534917  1
  O  O290  1  0.36586152  -0.00018552  0.25789557  1
  O  O291  1  0.36947662  0.00381511  0.75429705  1
  O  O292  1  0.36602732  0.49838557  0.25550935  1
  O  O293  1  0.36901759  0.50497754  0.75481481  1
  O  O294  1  0.86945540  0.00904108  0.25458324  1
  O  O295  1  0.86908211  0.00412678  0.75471600  1
  O  O296  1  0.87186727  0.51133889  0.25736750  1
  O  O297  1  0.86196333  0.49318008  0.75741279  1
  O  O298  1  0.12627932  0.36256767  0.37611233  1
  O  O299  1  0.12064196  0.36968092  0.86634791  1
  O  O300  1  0.12482955  0.86237865  0.37363117  1
  O  O301  1  0.11565123  0.86977977  0.86726163  1
  O  O302  1  0.62181647  0.37104812  0.37028781  1
  O  O303  1  0.62048638  0.36982988  0.87054649  1
  O  O304  1  0.62780985  0.86835333  0.36559789  1
  O  O305  1  0.61898430  0.86966888  0.87034620  1
  O  O306  1  0.38211502  0.13287035  0.12655291  1
  O  O307  1  0.37787727  0.12699612  0.63377156  1
  O  O308  1  0.37382805  0.63742536  0.12522537  1
  O  O309  1  0.37890609  0.62921213  0.63107176  1
  O  O310  1  0.87248227  0.13544751  0.13341209  1
  O  O311  1  0.88329039  0.12399961  0.62776548  1
  O  O312  1  0.87221123  0.63104173  0.13269155  1
  O  O313  1  0.88392338  0.63508920  0.61989780  1
  O  O314  1  0.25513194  0.25182522  0.11657934  1
  O  O315  1  0.25109901  0.25312681  0.61209281  1
  O  O316  1  0.25716706  0.75704649  0.12045432  1
  O  O317  1  0.25461418  0.75297256  0.62052467  1
  O  O318  1  0.75806118  0.25555718  0.11921304  1
  O  O319  1  0.74963275  0.25585077  0.61551869  1
  O  O320  1  0.75587781  0.75701989  0.11808131  1
  O  O321  1  0.76397501  0.74925104  0.63342109  1
  O  O322  1  0.24308623  0.25169834  0.38848670  1
  O  O323  1  0.24311196  0.24472604  0.88152698  1
  O  O324  1  0.24419633  0.74472144  0.37937931  1
  O  O325  1  0.24915505  0.74315357  0.88136095  1
  O  O326  1  0.74556094  0.24678471  0.38211426  1
  O  O327  1  0.74479148  0.24560011  0.87977990  1
  O  O328  1  0.74058576  0.74146967  0.36940043  1
  O  O329  1  0.74462757  0.74556296  0.87786789  1
  O  O330  1  -0.01936713  0.11601825  -0.00665797  1
  O  O331  1  0.00896296  0.11818100  0.50922614  1
  O  O332  1  0.00657616  0.61815016  0.00039459  1
  O  O333  1  0.00437696  0.62916247  0.51528518  1
  O  O334  1  0.50483130  0.12099874  0.00403383  1
  O  O335  1  0.50845917  0.11838182  0.50012243  1
  O  O336  1  0.50905581  0.62268077  0.00416855  1
  O  O337  1  0.50244434  0.62256216  0.50927887  1
  O  O338  1  0.49165860  0.37427773  0.49444334  1
  O  O339  1  0.49322797  0.37595886  0.99217446  1
  O  O340  1  0.49146328  0.88244010  0.49881811  1
  O  O341  1  0.49475825  0.88086215  0.99419311  1
  O  O342  1  0.99382845  0.36921972  0.49263370  1
  O  O343  1  0.99379837  0.38219598  0.99411333  1
  O  O344  1  0.98960677  0.88178931  0.49765203  1
  O  O345  1  0.98848273  0.86483022  0.98764412  1
  O  O346  1  0.49472074  0.49307271  0.37583969  1
  O  O347  1  0.49356052  0.49369581  0.87470164  1
  O  O348  1  0.49155565  0.99571794  0.38031004  1
  O  O349  1  0.49395487  0.99452600  0.87996304  1
  O  O350  1  0.98342351  0.50653912  0.37143890  1
  O  O351  1  0.99475655  0.49577096  0.87944249  1
  O  O352  1  0.99284959  1.00041343  0.38181197  1
  O  O353  1  0.99340480  0.98324315  0.87262403  1
  O  O354  1  0.00842105  0.00222450  0.12650467  1
  O  O355  1  0.00580041  0.00511124  0.61893200  1
  O  O356  1  0.00892443  0.50140311  0.11936373  1
  O  O357  1  0.00848990  0.51051550  0.63479810  1
  O  O358  1  0.49986194  0.00646501  0.11754793  1
  O  O359  1  0.50706946  0.00141016  0.61734327  1
  O  O360  1  0.51332835  0.49906231  0.12291351  1
  O  O361  1  0.50764709  0.50644716  0.62614418  1
  O  O362  1  0.24678450  0.38785050  0.25018561  1
  O  O363  1  0.24014445  0.38017215  0.75005828  1
  O  O364  1  0.24799135  0.88436755  0.23995716  1
  O  O365  1  0.24548373  0.87696122  0.74332720  1
  O  O366  1  0.74199655  0.37630017  0.24254994  1
  O  O367  1  0.74391531  0.38322913  0.74586377  1
  O  O368  1  0.74345045  0.88123627  0.24370530  1
  O  O369  1  0.74182484  0.88146740  0.74960345  1
  O  O370  1  0.25354288  0.10901753  0.24533902  1
  O  O371  1  0.25406622  0.11855688  0.75588106  1
  O  O372  1  0.25386545  0.61280788  0.25611638  1
  O  O373  1  0.25495684  0.62040726  0.75496399  1
  O  O374  1  0.75820109  0.12182724  0.25481724  1
  O  O375  1  0.75348967  0.11892850  0.75375931  1
  O  O376  1  0.76049369  0.62467825  0.25905287  1
  O  O377  1  0.74315891  0.61145017  0.75734847  1
  O  O378  1  0.37838824  0.11023810  0.37465334  1
  O  O379  1  0.36772015  0.11830511  0.86918432  1
  O  O380  1  0.36905352  0.61792899  0.37460109  1
  O  O381  1  0.37001992  0.61993269  0.86957607  1
  O  O382  1  0.86975020  0.12137035  0.36794421  1
  O  O383  1  0.86696041  0.12046668  0.86518667  1
  O  O384  1  0.86864704  0.62081794  0.36954934  1
  O  O385  1  0.86601866  0.61675582  0.88204937  1
  O  O386  1  0.12708115  0.38776686  0.12662024  1
  O  O387  1  0.12311852  0.38065566  0.63503108  1
  O  O388  1  0.13905349  0.87425040  0.12336796  1
  O  O389  1  0.12975192  0.87733772  0.62665782  1
  O  O390  1  0.62921077  0.38161090  0.12895056  1
  O  O391  1  0.63150143  0.38112596  0.63132606  1
  O  O392  1  0.63220738  0.87640303  0.13285899  1
  O  O393  1  0.62613025  0.87991972  0.63163940  1
  O  O394  1  0.12928541  0.24967517  0.26333257  1
  O  O395  1  0.12649327  0.25952079  0.75835432  1
  O  O396  1  0.12666094  0.74937322  0.26053119  1
  O  O397  1  0.11427804  0.75635234  0.74893929  1
  O  O398  1  0.62038288  0.25565285  0.25540512  1
  O  O399  1  0.62108790  0.25535834  0.75619677  1
  O  O400  1  0.62660777  0.76155717  0.25642405  1
  O  O401  1  0.61844652  0.75521641  0.75596247  1
  O  O402  1  0.38036961  0.24939527  0.24549112  1
  O  O403  1  0.38014100  0.24406681  0.75053840  1
  O  O404  1  0.37365498  0.75173292  0.23917159  1
  O  O405  1  0.37981190  0.74422914  0.74443500  1
  O  O406  1  0.87185541  0.24322271  0.24203535  1
  O  O407  1  0.87709565  0.24093103  0.74729809  1
  O  O408  1  0.87327644  0.74215599  0.24309923  1
  O  O409  1  0.88654231  0.75788242  0.73904401  1
  O  O410  1  0.37506079  0.48890242  0.49468276  1
  O  O411  1  0.37533001  0.49378996  0.99353607  1
  O  O412  1  0.37820086  0.99517403  0.49311145  1
  O  O413  1  0.37901394  0.99488457  0.99375223  1
  O  O414  1  0.86950692  0.50375949  0.48492187  1
  O  O415  1  0.87927700  0.49509256  0.99571529  1
  O  O416  1  0.88011372  0.99339186  0.49429079  1
  O  O417  1  0.86589793  0.98494396  0.99209168  1
  O  O418  1  0.14040526  0.00707028  -0.00538940  1
  O  O419  1  0.12235214  0.00534660  0.50393719  1
  O  O420  1  0.12124941  0.50317457  0.00695212  1
  O  O421  1  0.13195698  0.49692673  0.51477960  1
  O  O422  1  0.61814987  0.00676489  0.00014110  1
  O  O423  1  0.62072014  0.00440194  0.50316258  1
  O  O424  1  0.62482527  0.50589404  0.00885540  1
  O  O425  1  0.62447783  0.50221375  0.50986872  1
  O  O426  1  0.37388921  0.36792276  0.11818732  1
  O  O427  1  0.37455219  0.37331899  0.61399118  1
  O  O428  1  0.36587678  0.86886236  0.11986251  1
  O  O429  1  0.36876671  0.86823596  0.62009495  1
  O  O430  1  0.86926508  0.36973501  0.12156942  1
  O  O431  1  0.86692672  0.37251196  0.62469443  1
  O  O432  1  0.87035049  0.87064884  0.11602834  1
  O  O433  1  0.87362678  0.86659448  0.61660550  1
  O  O434  1  0.12145228  0.13027987  0.38890106  1
  O  O435  1  0.12939606  0.14048166  0.87390994  1
  O  O436  1  0.13253280  0.63188168  0.37689635  1
  O  O437  1  0.13161058  0.62469979  0.88025135  1
  O  O438  1  0.63159133  0.13131947  0.37916002  1
  O  O439  1  0.63041383  0.13096708  0.88003830  1
  O  O440  1  0.63311953  0.63414208  0.37426907  1
  O  O441  1  0.63123849  0.63125753  0.88043470  1
