# generated using pymatgen
data_V93Zn93O256
_symmetry_space_group_name_H-M   'P 1'
_cell_length_a   17.04656666
_cell_length_b   17.05115435
_cell_length_c   17.04791133
_cell_angle_alpha   89.98834397
_cell_angle_beta   90.00779732
_cell_angle_gamma   90.03651545
_symmetry_Int_Tables_number   1
_chemical_formula_structural   V93Zn93O256
_chemical_formula_sum   'V93 Zn93 O256'
_cell_volume   4955.20679408
_cell_formula_units_Z   1
loop_
 _symmetry_equiv_pos_site_id
 _symmetry_equiv_pos_as_xyz
  1  'x, y, z'
loop_
 _atom_site_type_symbol
 _atom_site_label
 _atom_site_symmetry_multiplicity
 _atom_site_fract_x
 _atom_site_fract_y
 _atom_site_fract_z
 _atom_site_occupancy
  V  V0  1  0.00045922  0.25033247  0.75051797  1
  V  V1  1  0.12469422  0.37550975  0.24916924  1
  V  V2  1  0.62225414  0.50643579  0.12569226  1
  V  V3  1  0.87138098  0.49880388  0.37127658  1
  V  V4  1  0.50112050  0.50673864  0.00323030  1
  V  V5  1  0.50095773  0.00002546  0.50149633  1
  V  V6  1  0.62480638  0.62475381  0.49976689  1
  V  V7  1  0.00046247  0.25001065  0.25060716  1
  V  V8  1  -0.00095365  0.74948161  0.24923418  1
  V  V9  1  0.25062298  0.00004460  0.24941175  1
  V  V10  1  0.12549677  0.12464846  0.49855195  1
  V  V11  1  0.24987012  0.74891217  0.49946136  1
  V  V12  1  0.12454982  0.37445992  0.74833410  1
  V  V13  1  0.37660298  0.87886464  -0.00070017  1
  V  V14  1  0.25058964  0.87550746  0.12360360  1
  V  V15  1  0.50013147  0.37440103  0.37507081  1
  V  V16  1  0.62511809  0.12412175  0.50140981  1
  V  V17  1  0.75076862  0.87736485  0.12529123  1
  V  V18  1  0.62484805  0.00620481  0.11949488  1
  V  V19  1  0.62466478  0.24709928  0.88213566  1
  V  V20  1  0.74587311  0.37500755  0.62880274  1
  V  V21  1  0.87545295  0.12531784  0.25069329  1
  V  V22  1  0.12509086  0.87421309  0.24836901  1
  V  V23  1  0.87197225  0.62236552  0.24863680  1
  V  V24  1  0.37555640  0.37559845  -0.00115276  1
  V  V25  1  0.50123824  0.62468155  0.62548791  1
  V  V26  1  0.87520054  0.37644373  -0.00045932  1
  V  V27  1  0.00008076  0.88219022  0.87827400  1
  V  V28  1  0.74998903  0.87507120  0.62699495  1
  V  V29  1  -0.00053486  0.62406471  0.62549741  1
  V  V30  1  0.37457589  0.37504178  0.50032218  1
  V  V31  1  0.75034580  0.12529542  0.37644348  1
  V  V32  1  0.37560876  0.00012634  0.37360269  1
  V  V33  1  0.74917045  0.62188947  0.37313542  1
  V  V34  1  0.37573671  0.24967133  0.12689075  1
  V  V35  1  0.24896342  0.24911129  -0.00072939  1
  V  V36  1  0.87514183  -0.00080231  0.37499211  1
  V  V37  1  0.50004691  0.74878318  0.24824198  1
  V  V38  1  0.00090629  -0.00054706  0.49930763  1
  V  V39  1  -0.00014102  0.12156897  0.11752434  1
  V  V40  1  0.37525470  0.50039742  0.87399966  1
  V  V41  1  0.12439493  0.62428031  0.49838662  1
  V  V42  1  0.74610897  0.12517517  0.88238195  1
  V  V43  1  0.37953994  0.74805681  0.12418770  1
  V  V44  1  0.37632130  0.24788906  0.62683143  1
  V  V45  1  0.87596039  0.74953716  0.62476877  1
  V  V46  1  0.74980133  0.24936601  0.50215113  1
  V  V47  1  0.87383334  0.37489450  0.49991590  1
  V  V48  1  0.87251427  0.75004197  0.12249385  1
  V  V49  1  0.37435000  0.50020381  0.37374641  1
  V  V50  1  0.87311594  0.25041702  0.12620642  1
  V  V51  1  0.12535705  0.74901897  0.37426407  1
  V  V52  1  0.12585376  0.74807536  0.87691570  1
  V  V53  1  0.12625607  -0.00098255  0.62441938  1
  V  V54  1  0.25020675  0.12390012  0.37379181  1
  V  V55  1  0.12477644  0.49858408  0.62503240  1
  V  V56  1  0.50673678  0.25255981  0.75028720  1
  V  V57  1  0.74919322  0.00126633  0.25150944  1
  V  V58  1  0.87322801  0.12247262  0.75244378  1
  V  V59  1  0.50052911  0.87544660  0.37515703  1
  V  V60  1  0.24940186  0.49998230  0.24814925  1
  V  V61  1  0.62702920  0.87330618  0.75471868  1
  V  V62  1  0.50377146  0.12694973  0.11933900  1
  V  V63  1  0.25334372  0.00146388  0.75031128  1
  V  V64  1  0.74887996  0.38047360  0.12805065  1
  V  V65  1  0.74545006  0.49551525  0.75211000  1
  V  V66  1  -0.00017117  0.12432957  0.62507326  1
  V  V67  1  0.12515409  0.24944906  0.37450392  1
  V  V68  1  0.87376066  0.24974881  0.62587338  1
  V  V69  1  0.50339863  0.74962755  0.75313167  1
  V  V70  1  0.37914821  0.62433894  0.24478176  1
  V  V71  1  0.50864168  0.37685296  0.87123392  1
  V  V72  1  0.74214241  0.63193373  0.87905019  1
  V  V73  1  0.50465877  0.87343683  0.87738108  1
  V  V74  1  0.62473704  0.49632944  0.62767888  1
  V  V75  1  0.49940537  0.49983993  0.50121351  1
  V  V76  1  -0.00000597  0.87463823  0.37416812  1
  V  V77  1  0.62488462  0.74890729  0.37485709  1
  V  V78  1  0.24893947  0.37598000  0.12465328  1
  V  V79  1  0.24989394  0.37514053  0.62431697  1
  V  V80  1  0.12578177  0.87503028  0.74891932  1
  V  V81  1  0.12105402  -0.00062151  0.11645960  1
  V  V82  1  0.25000192  0.62447841  0.87393535  1
  V  V83  1  -0.00177235  0.49908793  0.49988225  1
  V  V84  1  0.00050827  0.74877387  0.75024713  1
  V  V85  1  0.37538404  0.75008953  0.62336791  1
  V  V86  1  0.62557558  0.87618849  0.25074383  1
  V  V87  1  0.12635898  0.25055088  0.87579274  1
  V  V88  1  0.62485957  0.25137206  0.37559041  1
  V  V89  1  0.87332049  0.62360445  0.75089749  1
  V  V90  1  0.87517707  0.87386009  0.50073136  1
  V  V91  1  0.87949665  0.88196458  0.00024560  1
  V  V92  1  0.62745158  0.38046232  0.25096055  1
  Zn  Zn93  1  -0.00192646  0.37743401  0.87575197  1
  Zn  Zn94  1  0.37580930  0.62351696  0.74982619  1
  Zn  Zn95  1  0.00136214  0.50373727  -0.00166586  1
  Zn  Zn96  1  0.74958910  0.74976644  0.50051423  1
  Zn  Zn97  1  0.74422137  0.24763218  0.00483368  1
  Zn  Zn98  1  0.24947624  0.62474284  0.37289719  1
  Zn  Zn99  1  0.12316584  0.12158345  -0.00374233  1
  Zn  Zn100  1  0.50261054  0.12320644  0.62912354  1
  Zn  Zn101  1  0.37634486  0.12495654  0.24974844  1
  Zn  Zn102  1  0.87761179  0.00454623  0.88088921  1
  Zn  Zn103  1  0.25099859  0.87435481  0.62372453  1
  Zn  Zn104  1  0.25153359  0.49957881  0.74902429  1
  Zn  Zn105  1  0.00197396  0.62323347  0.12072115  1
  Zn  Zn106  1  0.61655490  0.63454087  0.00344899  1
  Zn  Zn107  1  0.37361454  0.87449702  0.49838637  1
  Zn  Zn108  1  0.62576444  0.00111204  0.62703477  1
  Zn  Zn109  1  0.37796032  0.12414157  0.75360345  1
  Zn  Zn110  1  0.74101611  0.75809302  -0.00803218  1
  Zn  Zn111  1  -0.00052968  0.37456961  0.37421927  1
  Zn  Zn112  1  0.87498240  0.50085949  0.87701676  1
  Zn  Zn113  1  0.12168996  0.50329521  0.12244352  1
  Zn  Zn114  1  0.50029311  0.24916645  0.25045877  1
  Zn  Zn115  1  0.25343089  0.12395669  0.87695506  1
  Zn  Zn116  1  0.12188120  0.62226973  0.00177616  1
  Zn  Zn117  1  0.25108156  0.74907164  0.00012830  1
  Zn  Zn118  1  0.50542987  0.00578783  -0.00460061  1
  Zn  Zn119  1  0.37740551  0.00268511  0.87374970  1
  Zn  Zn120  1  0.74872750  -0.00022657  0.75401642  1
  Zn  Zn121  1  0.25056585  0.24892515  0.49946524  1
  Zn  Zn122  1  0.18671514  0.18630740  0.18699837  1
  Zn  Zn123  1  0.18941535  0.18665216  0.68757193  1
  Zn  Zn124  1  0.19049545  0.68670531  0.18592076  1
  Zn  Zn125  1  0.18812601  0.68582968  0.68832710  1
  Zn  Zn126  1  0.68640575  0.19060619  0.18973030  1
  Zn  Zn127  1  0.68578033  0.18758942  0.69113058  1
  Zn  Zn128  1  0.68920377  0.68977489  0.18760108  1
  Zn  Zn129  1  0.68767325  0.68644105  0.68937381  1
  Zn  Zn130  1  0.31020131  0.31297765  0.31253655  1
  Zn  Zn131  1  0.31380748  0.31409240  0.81124057  1
  Zn  Zn132  1  0.31233805  0.81296850  0.31235521  1
  Zn  Zn133  1  0.31443922  0.81419131  0.81112503  1
  Zn  Zn134  1  0.81026002  0.31285588  0.31134021  1
  Zn  Zn135  1  0.80996583  0.31130585  0.81430867  1
  Zn  Zn136  1  0.81123644  0.81044376  0.31203405  1
  Zn  Zn137  1  0.81590205  0.81130686  0.81302916  1
  Zn  Zn138  1  0.18807296  0.43661313  0.43608423  1
  Zn  Zn139  1  0.18624292  0.43806612  0.93805630  1
  Zn  Zn140  1  0.18927242  0.93523578  0.43763998  1
  Zn  Zn141  1  0.19030891  0.93470926  0.93512484  1
  Zn  Zn142  1  0.68762282  0.43784993  0.44062745  1
  Zn  Zn143  1  0.68914087  0.44017466  0.94098789  1
  Zn  Zn144  1  0.68748989  0.93670231  0.43915689  1
  Zn  Zn145  1  0.69132082  0.93887739  0.93711732  1
  Zn  Zn146  1  0.31172431  0.06468877  0.06215624  1
  Zn  Zn147  1  0.31344786  0.06287049  0.56228326  1
  Zn  Zn148  1  0.31057220  0.56270939  0.05999952  1
  Zn  Zn149  1  0.31145867  0.56378548  0.56217035  1
  Zn  Zn150  1  0.81323812  0.06241570  0.06336420  1
  Zn  Zn151  1  0.81261737  0.06021602  0.56385734  1
  Zn  Zn152  1  0.81031279  0.56045790  0.06234832  1
  Zn  Zn153  1  0.81080033  0.56185688  0.56208942  1
  Zn  Zn154  1  0.43961584  0.43645446  0.18742123  1
  Zn  Zn155  1  0.43679919  0.43629684  0.68929099  1
  Zn  Zn156  1  0.43954920  0.93843448  0.18696116  1
  Zn  Zn157  1  0.43773875  0.93495935  0.68678594  1
  Zn  Zn158  1  0.93993207  0.43853078  0.18531587  1
  Zn  Zn159  1  0.93471823  0.43719694  0.68904010  1
  Zn  Zn160  1  0.93823994  0.93821774  0.18759510  1
  Zn  Zn161  1  0.93909964  0.93736765  0.68957391  1
  Zn  Zn162  1  0.06379908  0.06202553  0.30837190  1
  Zn  Zn163  1  0.06603412  0.06397193  0.81096205  1
  Zn  Zn164  1  0.05975963  0.56138521  0.31029522  1
  Zn  Zn165  1  0.06054832  0.55875423  0.81457961  1
  Zn  Zn166  1  0.56100598  0.06525172  0.30935627  1
  Zn  Zn167  1  0.56310051  0.06222301  0.81212646  1
  Zn  Zn168  1  0.55992782  0.56187188  0.31172717  1
  Zn  Zn169  1  0.56389132  0.56285166  0.81302614  1
  Zn  Zn170  1  0.43764800  0.18640215  0.43855884  1
  Zn  Zn171  1  0.43611838  0.18747590  0.93699626  1
  Zn  Zn172  1  0.43696301  0.68567908  0.43527522  1
  Zn  Zn173  1  0.43505212  0.68972851  0.93559020  1
  Zn  Zn174  1  0.93837942  0.18768268  0.43776246  1
  Zn  Zn175  1  0.93496699  0.19377301  0.93808862  1
  Zn  Zn176  1  0.93766357  0.68720420  0.43759653  1
  Zn  Zn177  1  0.93396770  0.68766305  0.93741159  1
  Zn  Zn178  1  0.06083036  0.31291958  0.06339866  1
  Zn  Zn179  1  0.06130310  0.31164422  0.56113250  1
  Zn  Zn180  1  0.06057629  0.80959764  0.06151556  1
  Zn  Zn181  1  0.06337170  0.81174406  0.56198900  1
  Zn  Zn182  1  0.56043457  0.31662338  0.06159123  1
  Zn  Zn183  1  0.56258192  0.31307619  0.56264431  1
  Zn  Zn184  1  0.56383367  0.81510997  0.06384713  1
  Zn  Zn185  1  0.56390501  0.81282649  0.56315528  1
  O  O186  1  0.11647328  0.11676431  0.12396857  1
  O  O187  1  0.11904787  0.11951455  0.61928476  1
  O  O188  1  0.12268591  0.62547706  0.12141930  1
  O  O189  1  0.11878338  0.61930238  0.61928621  1
  O  O190  1  0.61765952  0.11715143  0.13282143  1
  O  O191  1  0.62420098  0.12202735  0.61789375  1
  O  O192  1  0.63438937  0.60880012  0.12880813  1
  O  O193  1  0.62024311  0.61888925  0.61939444  1
  O  O194  1  0.37989202  0.37976009  0.37988376  1
  O  O195  1  0.38401762  0.37997341  0.88065334  1
  O  O196  1  0.38288064  0.88109925  0.37579724  1
  O  O197  1  0.38422259  0.87601353  0.88348460  1
  O  O198  1  0.87215240  0.38406699  0.37975517  1
  O  O199  1  0.87268359  0.37311540  0.88771283  1
  O  O200  1  0.87965877  0.87951058  0.37959942  1
  O  O201  1  0.88318949  0.87577017  0.88238467  1
  O  O202  1  0.25510712  0.00366249  0.36944954  1
  O  O203  1  0.25068592  0.00009384  0.86248801  1
  O  O204  1  0.25766304  0.50032328  0.36698081  1
  O  O205  1  0.25617237  0.50811666  0.87347509  1
  O  O206  1  0.75568241  0.00522500  0.37159846  1
  O  O207  1  0.75445060  0.01077799  0.87239731  1
  O  O208  1  0.75953510  0.51032744  0.38170984  1
  O  O209  1  0.75078635  0.50778539  0.86638857  1
  O  O210  1  0.25134756  0.49218506  0.13117571  1
  O  O211  1  0.24299290  0.49396269  0.62525509  1
  O  O212  1  0.24193051  0.99502890  0.12982662  1
  O  O213  1  0.24467325  0.99790028  0.63185783  1
  O  O214  1  0.73931185  0.48695305  0.12103519  1
  O  O215  1  0.74484299  0.49582078  0.63209822  1
  O  O216  1  0.74369270  0.99811270  0.13225469  1
  O  O217  1  0.75126214  0.98593093  0.62939706  1
  O  O218  1  0.00539817  0.36698197  0.25136703  1
  O  O219  1  0.00555859  0.36639425  0.74814027  1
  O  O220  1  0.00479524  0.86954982  0.25526686  1
  O  O221  1  0.00463072  0.86841030  0.75786456  1
  O  O222  1  0.50869491  0.37186638  0.25701114  1
  O  O223  1  0.49518965  0.36586046  0.76187467  1
  O  O224  1  0.50654260  0.87003537  0.25617171  1
  O  O225  1  0.50742636  0.86888593  0.75674690  1
  O  O226  1  0.49613986  0.12990871  0.23810887  1
  O  O227  1  0.49829293  0.13665631  0.74865254  1
  O  O228  1  0.48718718  0.63126391  0.25348886  1
  O  O229  1  0.50160302  0.63505236  0.74523291  1
  O  O230  1  0.99408896  0.12995919  0.24192339  1
  O  O231  1  0.99270357  0.12983100  0.74479479  1
  O  O232  1  0.98563873  0.63201259  0.25070779  1
  O  O233  1  0.99451459  0.62912691  0.74414411  1
  O  O234  1  0.37034651  0.25610516  0.00866450  1
  O  O235  1  0.37628236  0.25645777  0.51030385  1
  O  O236  1  0.37667369  0.76006170  0.00813936  1
  O  O237  1  0.37077805  0.74836449  0.50785305  1
  O  O238  1  0.87053943  0.25917760  0.00950027  1
  O  O239  1  0.86932099  0.25371099  0.50585389  1
  O  O240  1  0.86914899  0.75941264  0.01016025  1
  O  O241  1  0.87479226  0.75659907  0.50659111  1
  O  O242  1  0.12538740  0.24212604  0.49352117  1
  O  O243  1  0.13011673  0.25185357  0.99033884  1
  O  O244  1  0.12876719  0.74381344  0.49440030  1
  O  O245  1  0.12826574  0.75169135  0.98560318  1
  O  O246  1  0.63085532  0.24488110  0.49496879  1
  O  O247  1  0.62354372  0.25342597  0.98688930  1
  O  O248  1  0.62493646  0.74236728  0.49297841  1
  O  O249  1  0.63207891  0.74422112  1.01521424  1
  O  O250  1  0.49213074  0.24561280  0.12400667  1
  O  O251  1  0.49366037  0.25297127  0.63402885  1
  O  O252  1  0.48631655  0.75917855  0.13290497  1
  O  O253  1  0.49394913  0.74519082  0.63129284  1
  O  O254  1  0.99403883  0.24102729  0.13228966  1
  O  O255  1  0.99363491  0.24312923  0.62963320  1
  O  O256  1  0.98639643  0.75063009  0.13125772  1
  O  O257  1  0.99599654  0.74372692  0.63024692  1
  O  O258  1  0.00591659  0.25014896  0.36842133  1
  O  O259  1  0.00955168  0.25226613  0.86886835  1
  O  O260  1  0.00463098  0.75588019  0.36964620  1
  O  O261  1  0.00812917  0.75722831  0.86839515  1
  O  O262  1  0.50688480  0.25680401  0.37592083  1
  O  O263  1  0.50587420  0.25711510  0.87031635  1
  O  O264  1  0.50580147  0.75478557  0.36889009  1
  O  O265  1  0.49414178  0.76090540  0.86382182  1
  O  O266  1  0.24288761  0.12496414  0.49255801  1
  O  O267  1  0.24533080  0.13403431  0.99869733  1
  O  O268  1  0.24198815  0.63050379  0.49667292  1
  O  O269  1  0.24970979  0.62923165  0.98511438  1
  O  O270  1  0.74637834  0.12925536  0.49570273  1
  O  O271  1  0.76005632  0.12897162  0.98647945  1
  O  O272  1  0.74407962  0.62717490  0.49061631  1
  O  O273  1  0.75191601  0.62394560  0.98433750  1
  O  O274  1  0.25708255  0.36882069  0.00492666  1
  O  O275  1  0.25706401  0.37264343  0.50603508  1
  O  O276  1  0.26105392  0.87218493  0.00415891  1
  O  O277  1  0.25265005  0.86552942  0.50350465  1
  O  O278  1  0.75543255  0.37155611  0.01082082  1
  O  O279  1  0.75528732  0.36853514  0.50667002  1
  O  O280  1  0.76088452  0.87513138  0.00635483  1
  O  O281  1  0.75614442  0.87321065  0.50954971  1
  O  O282  1  0.13154240  0.49334460  0.24984305  1
  O  O283  1  0.12520491  0.49245907  0.74172069  1
  O  O284  1  0.13071947  0.99284467  0.24067616  1
  O  O285  1  0.13265145  0.99515202  0.74357502  1
  O  O286  1  0.61564988  0.48787126  0.24211809  1
  O  O287  1  0.63686741  0.50562399  0.74273066  1
  O  O288  1  0.63103827  0.99567618  0.24419429  1
  O  O289  1  0.62613135  0.98624000  0.74673106  1
  O  O290  1  0.36812235  -0.00010412  0.25526897  1
  O  O291  1  0.36547733  -0.00081296  0.74842054  1
  O  O292  1  0.37220219  0.50661383  0.25233664  1
  O  O293  1  0.37379764  0.50284431  0.75803839  1
  O  O294  1  0.86940997  0.00506453  0.25599469  1
  O  O295  1  0.87566217  0.01346402  0.75167808  1
  O  O296  1  0.87874402  0.50959945  0.26108197  1
  O  O297  1  0.86254698  0.50671097  0.74824838  1
  O  O298  1  0.12304247  0.36787136  0.36807880  1
  O  O299  1  0.12459110  0.36407359  0.86749220  1
  O  O300  1  0.11899018  0.86984529  0.36863577  1
  O  O301  1  0.11901009  0.86704347  0.86965193  1
  O  O302  1  0.62171594  0.37276858  0.36951147  1
  O  O303  1  0.61427275  0.36886081  0.87996444  1
  O  O304  1  0.62154911  0.86913377  0.36984809  1
  O  O305  1  0.61761586  0.87828594  0.86680386  1
  O  O306  1  0.38186155  0.13521582  0.12576114  1
  O  O307  1  0.37864568  0.13807355  0.62530410  1
  O  O308  1  0.36914819  0.63642598  0.13242649  1
  O  O309  1  0.38227328  0.63404226  0.62616241  1
  O  O310  1  0.88101509  0.12860479  0.13158845  1
  O  O311  1  0.87892772  0.12967604  0.63250765  1
  O  O312  1  0.86732188  0.63363710  0.13452835  1
  O  O313  1  0.87957216  0.62982940  0.62921544  1
  O  O314  1  0.25771772  0.25473868  0.12036114  1
  O  O315  1  0.26037575  0.25536911  0.62396196  1
  O  O316  1  0.26213390  0.75831283  0.12381645  1
  O  O317  1  0.25970474  0.74815854  0.62007018  1
  O  O318  1  0.75379970  0.25954521  0.12531841  1
  O  O319  1  0.75430958  0.25434421  0.62155445  1
  O  O320  1  0.76195937  0.76003396  0.13085598  1
  O  O321  1  0.75626593  0.75951600  0.62537760  1
  O  O322  1  0.24372996  0.24249049  0.37626069  1
  O  O323  1  0.24152095  0.25076797  0.87930944  1
  O  O324  1  0.24284784  0.74884459  0.38036635  1
  O  O325  1  0.24216923  0.74395657  0.87238608  1
  O  O326  1  0.74548070  0.24464072  0.38224538  1
  O  O327  1  0.73947195  0.24314920  0.87501216  1
  O  O328  1  0.74383704  0.74027096  0.37731661  1
  O  O329  1  0.75268472  0.73560332  0.87263149  1
  O  O330  1  -0.00060798  0.13090811  0.01436947  1
  O  O331  1  0.00448916  0.11826737  0.50524315  1
  O  O332  1  0.00083492  0.62521187  0.00206181  1
  O  O333  1  0.00421186  0.61931548  0.50592894  1
  O  O334  1  0.49608957  0.12355271  0.01422528  1
  O  O335  1  0.50661161  0.11479320  0.50041341  1
  O  O336  1  0.49930639  0.61063502  -0.00966584  1
  O  O337  1  0.50501374  0.61870438  0.50482189  1
  O  O338  1  0.49458365  0.38135829  0.49481451  1
  O  O339  1  0.49476716  0.38472332  0.99027886  1
  O  O340  1  0.50158159  0.88433773  0.49353772  1
  O  O341  1  0.49382704  0.87585943  0.99187833  1
  O  O342  1  0.99114874  0.38058845  0.49829144  1
  O  O343  1  0.98503986  0.37275083  1.00115698  1
  O  O344  1  0.99530402  0.88005759  0.49401676  1
  O  O345  1  0.99059659  0.86660096  0.98923279  1
  O  O346  1  0.49400800  0.49419028  0.38160385  1
  O  O347  1  0.49755089  0.49289454  0.88007559  1
  O  O348  1  0.49648858  0.99589171  0.38170950  1
  O  O349  1  0.49938194  0.98802382  0.87677682  1
  O  O350  1  0.98726969  0.49900101  0.38125315  1
  O  O351  1  0.99260554  0.49384944  0.87768239  1
  O  O352  1  0.99513317  0.99467161  0.37875376  1
  O  O353  1  1.00175435  0.98565808  0.86931394  1
  O  O354  1  0.00991853  0.00923402  0.13230986  1
  O  O355  1  0.00532467  0.00478262  0.61927922  1
  O  O356  1  0.00193475  0.50513370  0.12080104  1
  O  O357  1  0.00385321  0.50472246  0.61938344  1
  O  O358  1  0.50897783  0.00853297  0.12510026  1
  O  O359  1  0.50110229  -0.00038624  0.61317891  1
  O  O360  1  0.50862300  0.49243643  0.11300496  1
  O  O361  1  0.50406174  0.50442955  0.62108418  1
  O  O362  1  0.24504488  0.38067157  0.24414727  1
  O  O363  1  0.24299227  0.37623068  0.74183772  1
  O  O364  1  0.24412780  0.87971042  0.24348044  1
  O  O365  1  0.24442166  0.88330084  0.74710281  1
  O  O366  1  0.73860726  0.37188415  0.24140371  1
  O  O367  1  0.75655279  0.38637845  0.74394436  1
  O  O368  1  0.74595058  0.88216413  0.24598773  1
  O  O369  1  0.74365346  0.87331871  0.74498314  1
  O  O370  1  0.25121917  0.11745287  0.25566250  1
  O  O371  1  0.25189828  0.11270748  0.75039588  1
  O  O372  1  0.26245073  0.61933868  0.25142885  1
  O  O373  1  0.25250726  0.62276795  0.76143245  1
  O  O374  1  0.75572717  0.12103387  0.25702226  1
  O  O375  1  0.75955117  0.12545482  0.75872248  1
  O  O376  1  0.76054161  0.63065571  0.26262702  1
  O  O377  1  0.75298109  0.61807861  0.75841760  1
  O  O378  1  0.36906112  0.11878827  0.37290863  1
  O  O379  1  0.37191364  0.12042289  0.87222647  1
  O  O380  1  0.37338571  0.61845043  0.36419604  1
  O  O381  1  0.36644622  0.62054519  0.87268001  1
  O  O382  1  0.87005377  0.11892096  0.37108580  1
  O  O383  1  0.86980428  0.12677756  0.86690426  1
  O  O384  1  0.86811601  0.61931419  0.36986841  1
  O  O385  1  0.86369523  0.62362229  0.86705955  1
  O  O386  1  0.13292761  0.37271815  0.13275922  1
  O  O387  1  0.12975965  0.37868036  0.62785330  1
  O  O388  1  0.12851876  0.88013847  0.12829768  1
  O  O389  1  0.12460532  0.88090269  0.63147845  1
  O  O390  1  0.62997670  0.38106093  0.13203474  1
  O  O391  1  0.63345234  0.38359838  0.61829217  1
  O  O392  1  0.63059288  0.88571597  0.13369181  1
  O  O393  1  0.63495412  0.87478740  0.63322941  1
  O  O394  1  0.12031294  0.25467750  0.25522367  1
  O  O395  1  0.12070580  0.25372135  0.75594263  1
  O  O396  1  0.11968488  0.75560300  0.25413795  1
  O  O397  1  0.12041063  0.75468884  0.75734287  1
  O  O398  1  0.62352501  0.26210772  0.25792848  1
  O  O399  1  0.61372973  0.24869623  0.76105151  1
  O  O400  1  0.61999114  0.75539879  0.25464089  1
  O  O401  1  0.61339854  0.76063644  0.74281886  1
  O  O402  1  0.37527580  0.25173059  0.23649085  1
  O  O403  1  0.38451335  0.25078147  0.74101740  1
  O  O404  1  0.37884089  0.74371241  0.24336265  1
  O  O405  1  0.38603446  0.75014796  0.74049017  1
  O  O406  1  0.87900235  0.24423750  0.24612462  1
  O  O407  1  0.87909023  0.24092343  0.74545575  1
  O  O408  1  0.87916790  0.74359746  0.24357243  1
  O  O409  1  0.88152447  0.74406492  0.74345783  1
  O  O410  1  0.38030635  0.49547644  0.49505626  1
  O  O411  1  0.38274248  0.49533494  0.99476284  1
  O  O412  1  0.38520971  0.99863952  0.49389030  1
  O  O413  1  0.37770870  0.98716770  1.00208784  1
  O  O414  1  0.87852051  0.49534060  0.49230515  1
  O  O415  1  0.87242101  0.48615106  1.00056674  1
  O  O416  1  0.88134245  0.99406839  0.49462149  1
  O  O417  1  0.87533162  0.98629076  1.00146867  1
  O  O418  1  0.13030432  -0.00125205  0.01303213  1
  O  O419  1  0.11948898  0.00422174  0.50378830  1
  O  O420  1  0.12199634  0.50256178  0.00292516  1
  O  O421  1  0.11819320  0.50402781  0.50419274  1
  O  O422  1  0.62590772  -0.00594565  0.01631477  1
  O  O423  1  0.61634960  0.00499106  0.50013929  1
  O  O424  1  0.61703712  0.50313672  0.00870759  1
  O  O425  1  0.61839621  0.50587186  0.50594096  1
  O  O426  1  0.37113701  0.36738557  0.11931112  1
  O  O427  1  0.37094980  0.36743563  0.62008998  1
  O  O428  1  0.37126945  0.86926036  0.11836333  1
  O  O429  1  0.37592369  0.86017596  0.62134778  1
  O  O430  1  0.86527216  0.37072513  0.12284900  1
  O  O431  1  0.86754784  0.36856097  0.61943313  1
  O  O432  1  0.87197596  0.87013720  0.11985654  1
  O  O433  1  0.86972485  0.86988559  0.62198707  1
  O  O434  1  0.12975803  0.12847706  0.37880182  1
  O  O435  1  0.12637297  0.13744755  0.87644546  1
  O  O436  1  0.12411843  0.63135952  0.38008705  1
  O  O437  1  0.13227578  0.63458792  0.87193484  1
  O  O438  1  0.63140107  0.13064587  0.37988832  1
  O  O439  1  0.63549995  0.13299493  0.87037294  1
  O  O440  1  0.63150105  0.62740563  0.37784354  1
  O  O441  1  0.63932764  0.62210577  0.87673947  1
