# generated using pymatgen
data_V93Zn93O256
_symmetry_space_group_name_H-M   'P 1'
_cell_length_a   17.05311473
_cell_length_b   17.05554151
_cell_length_c   17.05873320
_cell_angle_alpha   89.96134116
_cell_angle_beta   90.05990920
_cell_angle_gamma   89.92507095
_symmetry_Int_Tables_number   1
_chemical_formula_structural   V93Zn93O256
_chemical_formula_sum   'V93 Zn93 O256'
_cell_volume   4961.52627155
_cell_formula_units_Z   1
loop_
 _symmetry_equiv_pos_site_id
 _symmetry_equiv_pos_as_xyz
  1  'x, y, z'
loop_
 _atom_site_type_symbol
 _atom_site_label
 _atom_site_symmetry_multiplicity
 _atom_site_fract_x
 _atom_site_fract_y
 _atom_site_fract_z
 _atom_site_occupancy
  V  V0  1  0.62505087  0.25009831  0.37493489  1
  V  V1  1  0.00671606  0.50264681  0.50074470  1
  V  V2  1  0.24852651  0.24873364  0.49849876  1
  V  V3  1  0.62528976  0.37552159  0.74985038  1
  V  V4  1  -0.00479977  0.63085936  0.12364738  1
  V  V5  1  0.87426461  0.87550883  0.49856175  1
  V  V6  1  0.62359840  0.50003480  0.12374414  1
  V  V7  1  -0.00068874  0.37454405  0.87551775  1
  V  V8  1  0.87481504  0.12976233  0.24499761  1
  V  V9  1  0.37562063  0.87465602  -0.00168775  1
  V  V10  1  0.12966450  0.62512353  -0.00276103  1
  V  V11  1  -0.00187435  0.49907127  -0.00007074  1
  V  V12  1  0.50041151  0.25008776  0.24898314  1
  V  V13  1  0.87579904  0.25021991  0.62577315  1
  V  V14  1  0.37484123  0.25051244  0.62542861  1
  V  V15  1  0.75322607  0.37281441  0.12498300  1
  V  V16  1  0.50018912  0.25020207  0.74985752  1
  V  V17  1  0.74751794  0.87636677  0.62609290  1
  V  V18  1  0.75478278  0.74927117  0.00577122  1
  V  V19  1  -0.00277389  0.25063996  0.24687169  1
  V  V20  1  0.37459053  0.25111161  0.12452801  1
  V  V21  1  0.50033561  0.12559580  0.12464353  1
  V  V22  1  0.37420953  0.12441055  0.75111900  1
  V  V23  1  0.62519891  0.12460796  0.50014791  1
  V  V24  1  0.49920102  0.37575039  0.37512972  1
  V  V25  1  -0.00138921  0.12800626  0.12537442  1
  V  V26  1  0.62520556  -0.00083498  0.12504018  1
  V  V27  1  0.12480502  0.24911319  0.37517429  1
  V  V28  1  0.24955323  0.37405278  0.12710707  1
  V  V29  1  0.25025227  -0.00052153  0.25103851  1
  V  V30  1  0.62544059  0.12507407  -0.00044056  1
  V  V31  1  0.49932373  -0.00103776  -0.00095846  1
  V  V32  1  0.00476612  0.86987891  0.37497981  1
  V  V33  1  0.12491452  -0.00112572  0.12492400  1
  V  V34  1  0.49924252  0.62422082  0.12476822  1
  V  V35  1  0.75057790  0.62538514  0.87545665  1
  V  V36  1  -0.00083257  0.74624405  0.75003491  1
  V  V37  1  0.62556587  0.37499193  0.24890196  1
  V  V38  1  0.00607786  0.62718855  0.61799811  1
  V  V39  1  0.62539063  0.62510532  -0.00098139  1
  V  V40  1  -0.00129166  0.37588142  0.37540637  1
  V  V41  1  0.12336254  0.24965877  0.87455740  1
  V  V42  1  -0.00020574  -0.00082576  -0.00016333  1
  V  V43  1  0.74944845  0.25076313  0.50006874  1
  V  V44  1  0.74921924  0.74882833  0.49943613  1
  V  V45  1  0.23720648  0.74680221  0.49502450  1
  V  V46  1  0.62501809  0.87356850  0.24899034  1
  V  V47  1  -0.00003085  0.75071067  0.24947396  1
  V  V48  1  0.37537364  0.74751708  0.62590246  1
  V  V49  1  0.75133974  0.37583250  0.62535664  1
  V  V50  1  0.00045809  0.00048394  0.50015906  1
  V  V51  1  0.36373281  0.61738591  0.75645528  1
  V  V52  1  0.75026001  0.00027123  0.24989643  1
  V  V53  1  0.49703967  0.38137540  0.87548530  1
  V  V54  1  0.12448002  0.87229004  0.25162165  1
  V  V55  1  0.87464268  -0.00007469  0.87514984  1
  V  V56  1  0.50054743  0.00039323  0.50077835  1
  V  V57  1  0.00003223  0.12571995  0.62451519  1
  V  V58  1  0.87321142  0.62853820  0.24820699  1
  V  V59  1  0.37399143  0.62535339  0.25117782  1
  V  V60  1  0.87495657  0.37208435  0.00392547  1
  V  V61  1  0.24940198  0.87293424  0.12526150  1
  V  V62  1  0.25013904  0.12467848  0.87442845  1
  V  V63  1  0.87540696  0.00042810  0.37332754  1
  V  V64  1  0.75148147  0.50085100  0.75084864  1
  V  V65  1  0.23661439  0.62870884  0.37767803  1
  V  V66  1  0.24868438  0.87652383  0.62420261  1
  V  V67  1  0.75445241  0.24911094  0.00444057  1
  V  V68  1  0.24788597  0.38092079  0.62951020  1
  V  V69  1  0.50045151  0.49934246  0.49982615  1
  V  V70  1  0.13053626  0.74633664  0.87563112  1
  V  V71  1  0.37564298  0.37534056  0.50022789  1
  V  V72  1  0.50001623  0.87234896  0.37448292  1
  V  V73  1  0.87566372  0.87103642  0.00774481  1
  V  V74  1  0.62626363  0.50055212  0.62457596  1
  V  V75  1  0.75087375  0.50048936  0.25030781  1
  V  V76  1  0.37480628  0.87408942  0.49951031  1
  V  V77  1  0.62569748  0.62565549  0.49949544  1
  V  V78  1  0.12475000  0.87629319  0.75064372  1
  V  V79  1  0.12674046  0.38286531  0.75073209  1
  V  V80  1  0.87577399  0.37623264  0.50010756  1
  V  V81  1  0.87615160  0.49918630  0.87539704  1
  V  V82  1  0.24930109  0.50132031  0.25262628  1
  V  V83  1  0.12331308  0.50067032  0.12650837  1
  V  V84  1  0.74854087  0.00036720  0.75053650  1
  V  V85  1  0.37390553  0.12369785  0.25031699  1
  V  V86  1  0.12497145  0.12335408  -0.00033000  1
  V  V87  1  0.25003807  0.24930656  0.00190407  1
  V  V88  1  0.12349918  0.37478459  0.25060714  1
  V  V89  1  0.62571846  0.25048070  0.87535509  1
  V  V90  1  0.37420672  0.74877160  0.12589809  1
  V  V91  1  0.87548771  0.75082842  0.62572500  1
  V  V92  1  0.49804870  0.62424666  0.62578975  1
  Zn  Zn93  1  0.00016766  0.87347077  0.87636742  1
  Zn  Zn94  1  0.37363266  0.50260283  0.37667163  1
  Zn  Zn95  1  0.24956460  0.00087295  0.75064941  1
  Zn  Zn96  1  0.74969559  0.62495199  0.37531903  1
  Zn  Zn97  1  0.74970930  0.12610368  0.87394220  1
  Zn  Zn98  1  0.12513477  0.00359758  0.62540161  1
  Zn  Zn99  1  0.61984568  0.87317359  0.75244857  1
  Zn  Zn100  1  0.50264177  0.87433231  0.87122042  1
  Zn  Zn101  1  0.49565841  0.50181018  -0.00208758  1
  Zn  Zn102  1  0.50166536  0.74973607  0.75463395  1
  Zn  Zn103  1  0.37254971  0.00074455  0.37485908  1
  Zn  Zn104  1  0.75184255  0.12557653  0.37440619  1
  Zn  Zn105  1  0.37426291  0.37832576  -0.00063590  1
  Zn  Zn106  1  0.62724731  0.74739443  0.37368434  1
  Zn  Zn107  1  0.49989878  0.12528831  0.62601060  1
  Zn  Zn108  1  0.87612027  0.62395122  0.75027634  1
  Zn  Zn109  1  0.62445760  0.00114283  0.62723282  1
  Zn  Zn110  1  -0.00078418  0.25047461  0.74989303  1
  Zn  Zn111  1  0.87530163  0.12684789  0.75108304  1
  Zn  Zn112  1  0.12948336  0.50763078  0.62555826  1
  Zn  Zn113  1  0.35583580  0.50047724  0.87733322  1
  Zn  Zn114  1  0.62433487  0.75303587  0.87331029  1
  Zn  Zn115  1  0.37498765  -0.00221054  0.87324257  1
  Zn  Zn116  1  0.87401374  0.50182924  0.37647462  1
  Zn  Zn117  1  0.12592142  0.12246800  0.49930820  1
  Zn  Zn118  1  0.50077937  0.74785345  0.25024776  1
  Zn  Zn119  1  0.75425373  0.87030828  0.12824056  1
  Zn  Zn120  1  0.24929611  0.12211063  0.37526681  1
  Zn  Zn121  1  0.25127224  0.74683097  -0.00217608  1
  Zn  Zn122  1  0.18602541  0.18621651  0.18848495  1
  Zn  Zn123  1  0.18562032  0.19222362  0.68778146  1
  Zn  Zn124  1  0.18565509  0.68758630  0.18844036  1
  Zn  Zn125  1  0.18731178  0.69319536  0.68316580  1
  Zn  Zn126  1  0.68816968  0.18695763  0.18629439  1
  Zn  Zn127  1  0.68807911  0.18675247  0.68694307  1
  Zn  Zn128  1  0.68672260  0.68761573  0.18521448  1
  Zn  Zn129  1  0.68688369  0.68795107  0.68893538  1
  Zn  Zn130  1  0.31352985  0.31241322  0.31311540  1
  Zn  Zn131  1  0.31117625  0.31208132  0.81339641  1
  Zn  Zn132  1  0.31221170  0.81031606  0.31343383  1
  Zn  Zn133  1  0.31318795  0.80921027  0.81188852  1
  Zn  Zn134  1  0.81239900  0.31267148  0.31406555  1
  Zn  Zn135  1  0.81332907  0.31199313  0.81397186  1
  Zn  Zn136  1  0.81415195  0.81083178  0.31312463  1
  Zn  Zn137  1  0.81123896  0.81329959  0.81639085  1
  Zn  Zn138  1  0.18832106  0.43790645  0.43724094  1
  Zn  Zn139  1  0.18397331  0.43384704  0.94226533  1
  Zn  Zn140  1  0.18626329  0.93792782  0.43830096  1
  Zn  Zn141  1  0.19028990  0.93701272  0.93550615  1
  Zn  Zn142  1  0.68810673  0.43903431  0.43570142  1
  Zn  Zn143  1  0.68708769  0.43806881  0.93778806  1
  Zn  Zn144  1  0.68776976  0.93784957  0.43543156  1
  Zn  Zn145  1  0.68789516  0.93447261  0.93753984  1
  Zn  Zn146  1  0.31274411  0.06123938  0.06385609  1
  Zn  Zn147  1  0.31485479  0.06241212  0.56361841  1
  Zn  Zn148  1  0.31357419  0.55879339  0.06288096  1
  Zn  Zn149  1  0.31193516  0.56413272  0.55913863  1
  Zn  Zn150  1  0.81129721  0.06030897  0.06364802  1
  Zn  Zn151  1  0.81409267  0.06305485  0.56215282  1
  Zn  Zn152  1  0.81166675  0.56048011  0.06350946  1
  Zn  Zn153  1  0.81710795  0.56406516  0.56344661  1
  Zn  Zn154  1  0.43600462  0.43912611  0.18765050  1
  Zn  Zn155  1  0.43623305  0.43880228  0.68791830  1
  Zn  Zn156  1  0.43701399  0.93737369  0.18573929  1
  Zn  Zn157  1  0.43769603  0.93734824  0.68710921  1
  Zn  Zn158  1  0.93556364  0.44014063  0.18700822  1
  Zn  Zn159  1  0.94089094  0.43950504  0.68834637  1
  Zn  Zn160  1  0.93837095  0.94109898  0.18793494  1
  Zn  Zn161  1  0.93647177  0.93778246  0.68742462  1
  Zn  Zn162  1  0.06312211  0.06225829  0.31374139  1
  Zn  Zn163  1  0.06103442  0.06230857  0.81152075  1
  Zn  Zn164  1  0.05964439  0.56181991  0.31301821  1
  Zn  Zn165  1  0.18319183  0.56463433  0.81395673  1
  Zn  Zn166  1  0.56182192  0.06155576  0.31365380  1
  Zn  Zn167  1  0.56164385  0.06051495  0.81537712  1
  Zn  Zn168  1  0.56260357  0.56250070  0.31295517  1
  Zn  Zn169  1  0.56114430  0.56730491  0.81011069  1
  Zn  Zn170  1  0.43620148  0.18730150  0.43533836  1
  Zn  Zn171  1  0.43788244  0.19032124  0.93690577  1
  Zn  Zn172  1  0.43308492  0.68662802  0.43782592  1
  Zn  Zn173  1  0.43940105  0.68940060  0.93689362  1
  Zn  Zn174  1  0.93737001  0.18782100  0.43610677  1
  Zn  Zn175  1  0.93708526  0.18650161  0.93779004  1
  Zn  Zn176  1  0.93626095  0.68749157  0.43599682  1
  Zn  Zn177  1  0.93907840  0.68722861  0.93457053  1
  Zn  Zn178  1  0.06254296  0.31086518  0.06342872  1
  Zn  Zn179  1  0.06344132  0.31340741  0.56322463  1
  Zn  Zn180  1  0.06122436  0.81156368  0.06294511  1
  Zn  Zn181  1  0.06109390  0.81481556  0.56302636  1
  Zn  Zn182  1  0.56381555  0.31363327  0.06035455  1
  Zn  Zn183  1  0.56235221  0.31235609  0.56365122  1
  Zn  Zn184  1  0.56264805  0.80885963  0.06071285  1
  Zn  Zn185  1  0.56328667  0.81075765  0.56351035  1
  O  O186  1  0.11987231  0.11789095  0.11889157  1
  O  O187  1  0.11403788  0.12521962  0.62298608  1
  O  O188  1  0.11331293  0.62047576  0.11995481  1
  O  O189  1  0.11087176  0.62590593  0.63003011  1
  O  O190  1  0.61888513  0.11952419  0.12002126  1
  O  O191  1  0.62200552  0.12448312  0.61176919  1
  O  O192  1  0.61935037  0.61923517  0.11975841  1
  O  O193  1  0.61879954  0.61874130  0.61965338  1
  O  O194  1  0.38201938  0.37639027  0.38167869  1
  O  O195  1  0.38553638  0.37565728  0.87388452  1
  O  O196  1  0.38498690  0.87620616  0.38036879  1
  O  O197  1  0.37217858  0.87454939  0.88859321  1
  O  O198  1  0.88187768  0.37615172  0.38201458  1
  O  O199  1  0.87935874  0.37918932  0.88312228  1
  O  O200  1  0.88412464  0.88096141  0.37873790  1
  O  O201  1  0.87667172  0.88595802  0.88457984  1
  O  O202  1  0.25204959  0.00054455  0.36746487  1
  O  O203  1  0.25416557  0.00883373  0.87137596  1
  O  O204  1  0.25132341  0.50858845  0.37077567  1
  O  O205  1  0.24446603  0.49496735  0.87470094  1
  O  O206  1  0.75706292  0.00156260  0.36779198  1
  O  O207  1  0.75818855  0.00049986  0.86699286  1
  O  O208  1  0.75254031  0.50283710  0.36582083  1
  O  O209  1  0.75637105  0.50409816  0.87032507  1
  O  O210  1  0.24241185  0.49426209  0.13270929  1
  O  O211  1  0.24672351  0.48483531  0.61360702  1
  O  O212  1  0.24349275  0.99321868  0.13078339  1
  O  O213  1  0.24953366  0.98658812  0.62501774  1
  O  O214  1  0.74303803  0.49344981  0.13114588  1
  O  O215  1  0.74624196  0.49490569  0.63006094  1
  O  O216  1  0.74178298  0.99676550  0.13217701  1
  O  O217  1  0.75246797  0.99198319  0.63251498  1
  O  O218  1  0.00378613  0.37139683  0.25431037  1
  O  O219  1  0.00906417  0.37312669  0.75628155  1
  O  O220  1  0.00205698  0.86918519  0.25558698  1
  O  O221  1  0.00957730  0.86549553  0.74673849  1
  O  O222  1  0.50580280  0.36953884  0.25430648  1
  O  O223  1  0.50558808  0.37028453  0.75554744  1
  O  O224  1  0.50800195  0.87652949  0.25839086  1
  O  O225  1  0.50009911  0.87048573  0.75046412  1
  O  O226  1  0.49604343  0.13026341  0.24435093  1
  O  O227  1  0.49136722  0.13094574  0.74963173  1
  O  O228  1  0.49328171  0.62578346  0.24393340  1
  O  O229  1  0.48672624  0.62739559  0.74146101  1
  O  O230  1  0.99294301  0.12915458  0.24549923  1
  O  O231  1  0.99727103  0.12621367  0.73786206  1
  O  O232  1  0.99412017  0.63157273  0.24366300  1
  O  O233  1  0.99664836  0.64247317  0.73812124  1
  O  O234  1  0.36781752  0.25152029  0.00760500  1
  O  O235  1  0.36822610  0.25524696  0.50462628  1
  O  O236  1  0.37150683  0.75750575  0.00686953  1
  O  O237  1  0.36782597  0.75524408  0.51018101  1
  O  O238  1  0.86215254  0.25496365  -0.00581469  1
  O  O239  1  0.86882854  0.25594152  0.50487959  1
  O  O240  1  0.86921703  0.76091966  -0.00758795  1
  O  O241  1  0.86976958  0.75648813  0.50567343  1
  O  O242  1  0.13457022  0.25101665  0.49419376  1
  O  O243  1  0.13010242  0.24254725  0.99508612  1
  O  O244  1  0.13857577  0.75566915  0.50481645  1
  O  O245  1  0.12229733  0.74263271  0.99189468  1
  O  O246  1  0.62845426  0.24313057  0.49538604  1
  O  O247  1  0.63329979  0.24502649  0.99471219  1
  O  O248  1  0.63187200  0.74303918  0.50051204  1
  O  O249  1  0.63647952  0.74242717  0.99924187  1
  O  O250  1  0.49599426  0.24553103  0.12989739  1
  O  O251  1  0.49288650  0.25016638  0.63191970  1
  O  O252  1  0.49251918  0.74195324  0.12670159  1
  O  O253  1  0.48676972  0.74425418  0.62169537  1
  O  O254  1  1.00662110  0.24055421  0.13387454  1
  O  O255  1  0.99391471  0.24132395  0.62341998  1
  O  O256  1  1.00152115  0.73898967  0.13267613  1
  O  O257  1  0.99510730  0.74643386  0.62844775  1
  O  O258  1  0.00521682  0.25669656  0.36879027  1
  O  O259  1  0.00525662  0.25633049  0.87590976  1
  O  O260  1  -0.00569881  0.76226281  0.36671431  1
  O  O261  1  0.00898598  0.75227923  0.86524860  1
  O  O262  1  0.50552200  0.25594909  0.36889980  1
  O  O263  1  0.50603693  0.25951833  0.86927945  1
  O  O264  1  0.50178912  0.76277037  0.37562386  1
  O  O265  1  0.50382006  0.75475420  0.87286851  1
  O  O266  1  0.25058455  0.13787260  0.50089601  1
  O  O267  1  0.24419893  0.12920508  0.99602866  1
  O  O268  1  0.25472411  0.63460419  0.49026465  1
  O  O269  1  0.23211107  0.62677175  1.01187923  1
  O  O270  1  0.74109333  0.13054733  0.49865488  1
  O  O271  1  0.74453748  0.13305192  1.00057442  1
  O  O272  1  0.74462908  0.63102138  0.50154533  1
  O  O273  1  0.74750058  0.63101782  0.99614846  1
  O  O274  1  0.24830888  0.36571320  0.01070515  1
  O  O275  1  0.25468749  0.36545917  0.50618636  1
  O  O276  1  0.25858447  0.87425094  0.00756419  1
  O  O277  1  0.25464690  0.86842028  0.50610583  1
  O  O278  1  0.75401035  0.36727725  0.00461671  1
  O  O279  1  0.75438710  0.37077727  0.50605748  1
  O  O280  1  0.75859890  0.86680656  0.00273012  1
  O  O281  1  0.75488610  0.87155580  0.50726564  1
  O  O282  1  0.12852134  0.49424870  0.24529815  1
  O  O283  1  0.12685987  0.48578603  0.74624537  1
  O  O284  1  0.12910463  0.99311207  0.24381053  1
  O  O285  1  0.12637514  0.98770235  0.74775039  1
  O  O286  1  0.63065981  0.49398667  0.24400966  1
  O  O287  1  0.63123627  0.49555968  0.74333561  1
  O  O288  1  0.62938834  0.99255141  0.24631193  1
  O  O289  1  0.63675970  0.99969437  0.74750096  1
  O  O290  1  0.36859003  0.00565003  0.24917472  1
  O  O291  1  0.37311358  0.01329204  0.74922395  1
  O  O292  1  0.36611255  0.50679245  0.25123946  1
  O  O293  1  0.37489933  0.51488847  0.74918201  1
  O  O294  1  0.87037891  0.00796191  0.25468729  1
  O  O295  1  0.86720790  -0.00147289  0.75933494  1
  O  O296  1  0.86944474  0.51057499  0.25158295  1
  O  O297  1  0.86881767  0.49925125  0.75719268  1
  O  O298  1  0.11884526  0.36953680  0.36901692  1
  O  O299  1  0.11836964  0.36824186  0.86940057  1
  O  O300  1  0.11125209  0.88110945  0.36816487  1
  O  O301  1  0.12317216  0.86840769  0.86556341  1
  O  O302  1  0.61927820  0.36941865  0.36901837  1
  O  O303  1  0.61833620  0.37066765  0.86850881  1
  O  O304  1  0.61697939  0.87505123  0.36574648  1
  O  O305  1  0.62254789  0.87278560  0.87174520  1
  O  O306  1  0.38114628  0.13124997  0.13024667  1
  O  O307  1  0.37608761  0.13190375  0.63454644  1
  O  O308  1  0.37872486  0.62931444  0.13108127  1
  O  O309  1  0.37678033  0.63131477  0.63111181  1
  O  O310  1  0.88214468  0.11691298  0.13748663  1
  O  O311  1  0.88409867  0.13147706  0.62437942  1
  O  O312  1  0.88650700  0.61813437  0.13408364  1
  O  O313  1  0.88553660  0.63339370  0.62847793  1
  O  O314  1  0.25419617  0.25420858  0.12199292  1
  O  O315  1  0.25429876  0.25862849  0.61561930  1
  O  O316  1  0.25517696  0.75650919  0.12458558  1
  O  O317  1  0.25693729  0.75817985  0.61627977  1
  O  O318  1  0.74284483  0.25681763  0.11232927  1
  O  O319  1  0.75465337  0.25654206  0.61931459  1
  O  O320  1  0.75004253  0.75014036  0.11058152  1
  O  O321  1  0.75604288  0.75878356  0.62024432  1
  O  O322  1  0.24461359  0.25092721  0.38454319  1
  O  O323  1  0.24338506  0.24430335  0.88217361  1
  O  O324  1  0.25513688  0.74196679  0.38457471  1
  O  O325  1  0.23456216  0.75420973  0.87728620  1
  O  O326  1  0.74228450  0.24909401  0.38253325  1
  O  O327  1  0.74336077  0.24944238  0.88486980  1
  O  O328  1  0.74875682  0.74837080  0.38461893  1
  O  O329  1  0.75064643  0.74238550  0.88591309  1
  O  O330  1  0.00541940  0.11903294  0.00523423  1
  O  O331  1  -0.00034085  0.11948990  0.50849960  1
  O  O332  1  0.00563749  0.62116498  0.00761656  1
  O  O333  1  -0.00679220  0.61668585  0.50759113  1
  O  O334  1  0.50515924  0.12097266  0.00557849  1
  O  O335  1  0.50704800  0.11716520  0.49888740  1
  O  O336  1  0.50706848  0.62333878  0.00677993  1
  O  O337  1  0.50375288  0.61920058  0.50595636  1
  O  O338  1  0.49579276  0.37906412  0.49538891  1
  O  O339  1  0.49939657  0.37647907  0.98820701  1
  O  O340  1  0.49730202  0.88172321  0.49376024  1
  O  O341  1  0.48853568  0.88063130  1.00401777  1
  O  O342  1  0.99453419  0.38160261  0.49599995  1
  O  O343  1  0.99481077  0.37842975  0.99772122  1
  O  O344  1  0.99436407  0.87884573  0.49275520  1
  O  O345  1  0.99277244  0.88086734  0.99926466  1
  O  O346  1  0.49945033  0.49231351  0.38208961  1
  O  O347  1  0.50146534  0.48793254  0.87234601  1
  O  O348  1  0.49958777  0.98991515  0.38480126  1
  O  O349  1  0.49440508  0.99734863  0.88492751  1
  O  O350  1  0.99822834  0.49422505  0.38351997  1
  O  O351  1  0.99139360  0.48884008  0.88622885  1
  O  O352  1  0.99433181  0.99107185  0.37927725  1
  O  O353  1  0.99134726  0.99795945  0.88062802  1
  O  O354  1  0.00681589  0.00690005  0.11960692  1
  O  O355  1  -0.00158011  0.00852771  0.61871991  1
  O  O356  1  0.00488520  0.50892493  0.12031325  1
  O  O357  1  0.00081121  0.51000139  0.61768886  1
  O  O358  1  0.50579710  0.00656143  0.11975265  1
  O  O359  1  0.50247362  0.00084237  0.61109674  1
  O  O360  1  0.50655124  0.50586367  0.12431523  1
  O  O361  1  0.50675978  0.50361577  0.61952506  1
  O  O362  1  0.24322040  0.38000286  0.24671739  1
  O  O363  1  0.24151206  0.36575064  0.73814348  1
  O  O364  1  0.24420954  0.87879365  0.24540559  1
  O  O365  1  0.24236856  0.87288557  0.74041665  1
  O  O366  1  0.74499068  0.37859788  0.24485781  1
  O  O367  1  0.74440404  0.38048350  0.74499109  1
  O  O368  1  0.74179583  0.87934831  0.24929911  1
  O  O369  1  0.75250276  0.88403322  0.74031654  1
  O  O370  1  0.25595503  0.11769630  0.24949073  1
  O  O371  1  0.25840421  0.12710086  0.75421544  1
  O  O372  1  0.25380805  0.62110119  0.25675086  1
  O  O373  1  0.25802155  0.62572214  0.74463115  1
  O  O374  1  0.75819402  0.12028351  0.25070030  1
  O  O375  1  0.75343184  0.11350014  0.75014825  1
  O  O376  1  0.75916802  0.62127541  0.24717562  1
  O  O377  1  0.75344574  0.61786982  0.75575739  1
  O  O378  1  0.37229738  0.12229107  0.36581902  1
  O  O379  1  0.36917272  0.12787706  0.86516499  1
  O  O380  1  0.36758433  0.62308566  0.36703694  1
  O  O381  1  0.37481298  0.62719969  0.85809010  1
  O  O382  1  0.87521795  0.11842177  0.36424676  1
  O  O383  1  0.87292941  0.11156913  0.87474472  1
  O  O384  1  0.87373313  0.62341753  0.36110904  1
  O  O385  1  0.86948521  0.61689306  0.87351030  1
  O  O386  1  0.12917935  0.38053511  0.13157975  1
  O  O387  1  0.13189897  0.37361890  0.63435912  1
  O  O388  1  0.12865468  0.87983639  0.13066553  1
  O  O389  1  0.13366689  0.87342338  0.63452735  1
  O  O390  1  0.63095284  0.37978233  0.13072712  1
  O  O391  1  0.63138675  0.38035557  0.62999440  1
  O  O392  1  0.62341811  0.88035257  0.13574924  1
  O  O393  1  0.63905631  0.87810327  0.62331924  1
  O  O394  1  0.11888408  0.25588677  0.25552554  1
  O  O395  1  0.12199223  0.25939033  0.75827486  1
  O  O396  1  0.10940897  0.75664946  0.24545546  1
  O  O397  1  0.11928291  0.75716298  0.75620840  1
  O  O398  1  0.61999228  0.25482981  0.25463588  1
  O  O399  1  0.62101917  0.25551136  0.75436663  1
  O  O400  1  0.62330374  0.76151322  0.25078235  1
  O  O401  1  0.62200592  0.75323911  0.75198709  1
  O  O402  1  0.38109386  0.24484660  0.24419531  1
  O  O403  1  0.37972505  0.24205814  0.74533602  1
  O  O404  1  0.37712523  0.74382083  0.24288644  1
  O  O405  1  0.37037529  0.73960547  0.73738901  1
  O  O406  1  0.88040496  0.23765034  0.25619413  1
  O  O407  1  0.87691461  0.24808033  0.74212012  1
  O  O408  1  0.88656823  0.74128764  0.25119863  1
  O  O409  1  0.88429965  0.75458111  0.74491509  1
  O  O410  1  0.38330970  0.49246484  0.50019858  1
  O  O411  1  0.37792311  0.49682003  0.99387074  1
  O  O412  1  0.38454007  0.99387714  0.49924603  1
  O  O413  1  0.38052152  0.99032373  1.00215736  1
  O  O414  1  0.88530461  0.49339572  0.49959245  1
  O  O415  1  0.87875166  0.49319462  0.99530591  1
  O  O416  1  0.88004191  0.99439675  0.49339475  1
  O  O417  1  0.87865325  0.99335303  0.99282266  1
  O  O418  1  0.11992833  0.00382931  0.00447328  1
  O  O419  1  0.11647114  0.00135341  0.50475735  1
  O  O420  1  0.11680734  0.50738228  0.00726634  1
  O  O421  1  0.10995803  0.49220340  0.50380466  1
  O  O422  1  0.62038844  0.00533553  0.00588470  1
  O  O423  1  0.61815316  0.00844124  0.49911694  1
  O  O424  1  0.62479203  0.50701674  0.00735054  1
  O  O425  1  0.62038783  0.50457605  0.50612343  1
  O  O426  1  0.36745170  0.36806933  0.12579044  1
  O  O427  1  0.36714917  0.36990682  0.62148287  1
  O  O428  1  0.36980667  0.86926164  0.11787545  1
  O  O429  1  0.36608675  0.86684544  0.62083762  1
  O  O430  1  0.86621730  0.38141659  0.11674242  1
  O  O431  1  0.87042030  0.37041453  0.62001047  1
  O  O432  1  0.87444034  0.88273927  0.11184477  1
  O  O433  1  0.86675758  0.87141478  0.61822491  1
  O  O434  1  0.12746149  0.13346971  0.37798500  1
  O  O435  1  0.12934040  0.12887327  0.88016858  1
  O  O436  1  0.13754002  0.62397591  0.36860402  1
  O  O437  1  0.12277615  0.63448941  0.88547939  1
  O  O438  1  0.62548507  0.13076183  0.38468506  1
  O  O439  1  0.62612932  0.13211734  0.88230507  1
  O  O440  1  0.62716871  0.62748336  0.38324016  1
  O  O441  1  0.63373821  0.62328047  0.88221907  1
