# generated using pymatgen
data_V93Zn93O256
_symmetry_space_group_name_H-M   'P 1'
_cell_length_a   17.05536836
_cell_length_b   17.06387078
_cell_length_c   17.06167033
_cell_angle_alpha   90.07286028
_cell_angle_beta   89.93345053
_cell_angle_gamma   89.96968269
_symmetry_Int_Tables_number   1
_chemical_formula_structural   V93Zn93O256
_chemical_formula_sum   'V93 Zn93 O256'
_cell_volume   4965.46012123
_cell_formula_units_Z   1
loop_
 _symmetry_equiv_pos_site_id
 _symmetry_equiv_pos_as_xyz
  1  'x, y, z'
loop_
 _atom_site_type_symbol
 _atom_site_label
 _atom_site_symmetry_multiplicity
 _atom_site_fract_x
 _atom_site_fract_y
 _atom_site_fract_z
 _atom_site_occupancy
  V  V0  1  0.74896093  0.87552812  0.12487144  1
  V  V1  1  0.87544190  0.74879638  0.62441435  1
  V  V2  1  0.87540003  0.37572478  0.00014847  1
  V  V3  1  0.75013837  0.50054819  0.74974077  1
  V  V4  1  0.87572802  0.37480530  0.49869029  1
  V  V5  1  0.36860497  0.50423362  0.37506143  1
  V  V6  1  0.36785973  0.25565940  0.12725320  1
  V  V7  1  0.12414461  -0.00597414  0.62620735  1
  V  V8  1  0.62452029  0.25099728  0.87498684  1
  V  V9  1  0.62443198  0.50081402  0.12482999  1
  V  V10  1  0.87532894  0.24884777  0.12578394  1
  V  V11  1  0.37211972  0.87482739  0.50273470  1
  V  V12  1  0.37012575  0.00549268  0.37869744  1
  V  V13  1  0.74954437  0.24991714  0.00039924  1
  V  V14  1  0.74913198  0.75004772  0.00018567  1
  V  V15  1  -0.00260465  0.87246278  0.87501817  1
  V  V16  1  0.13149547  0.24655435  0.37544426  1
  V  V17  1  0.75014746  0.37466667  0.12542172  1
  V  V18  1  0.12650140  0.62624585  0.00204177  1
  V  V19  1  0.00109776  0.75053219  0.25051702  1
  V  V20  1  0.25008384  0.62859274  0.87849232  1
  V  V21  1  0.13020122  0.74243095  0.37419046  1
  V  V22  1  -0.00153256  0.00077767  0.49842165  1
  V  V23  1  0.12575668  0.74681015  0.87588578  1
  V  V24  1  0.74921733  -0.00110712  0.75076021  1
  V  V25  1  0.24869939  0.00399315  0.25349218  1
  V  V26  1  0.75027543  0.25018821  0.49899478  1
  V  V27  1  0.00138906  0.62487603  0.62332331  1
  V  V28  1  0.00185029  0.37418466  0.37343222  1
  V  V29  1  0.75012158  -0.00013843  0.24949756  1
  V  V30  1  0.74961064  0.62528742  0.37458542  1
  V  V31  1  0.25015053  0.49695867  0.24276089  1
  V  V32  1  0.36769452  0.37701059  0.00454038  1
  V  V33  1  0.49893562  0.25100839  0.25031151  1
  V  V34  1  0.49906463  -0.00074988  0.00109371  1
  V  V35  1  0.00140374  0.50091500  0.49921703  1
  V  V36  1  0.62452761  0.37560881  0.25028193  1
  V  V37  1  0.87409526  -0.00050582  0.87562733  1
  V  V38  1  0.62256278  0.75020723  0.87378652  1
  V  V39  1  0.87567941  0.62515660  0.24955633  1
  V  V40  1  0.62396823  0.62477775  0.00042883  1
  V  V41  1  0.12622496  0.87634601  0.24905485  1
  V  V42  1  0.00159688  0.62292032  0.12454820  1
  V  V43  1  0.75049305  0.75011001  0.49914069  1
  V  V44  1  0.49886741  0.37675184  0.37548337  1
  V  V45  1  0.25062711  0.37277764  0.62297397  1
  V  V46  1  0.62561755  0.12418376  0.49916529  1
  V  V47  1  0.49670559  0.63160594  0.63184509  1
  V  V48  1  0.61910415  0.87077904  0.75002722  1
  V  V49  1  0.24860501  0.24431920  -0.00228960  1
  V  V50  1  0.62482445  0.25085898  0.37504730  1
  V  V51  1  0.49846550  0.74979805  0.25143803  1
  V  V52  1  0.25125351  0.74339137  0.49804960  1
  V  V53  1  0.87718017  0.49912682  0.87548978  1
  V  V54  1  0.49846758  0.12795679  0.62838454  1
  V  V55  1  0.50013875  0.12583460  0.12707154  1
  V  V56  1  0.12481697  0.50065583  0.62341424  1
  V  V57  1  0.37431815  0.37518673  0.50045793  1
  V  V58  1  0.62470531  0.12520800  0.00108315  1
  V  V59  1  0.50028696  0.37606451  0.87505218  1
  V  V60  1  0.62399124  0.75013971  0.37409793  1
  V  V61  1  0.74821558  0.87479600  0.62562740  1
  V  V62  1  0.37122524  0.87109463  0.00240630  1
  V  V63  1  0.37432045  0.50147212  0.87618749  1
  V  V64  1  0.62454312  0.50057850  0.62387771  1
  V  V65  1  0.62341691  0.37459613  0.75003881  1
  V  V66  1  0.49924798  0.00047694  0.50030581  1
  V  V67  1  0.49935969  0.87451058  0.37524927  1
  V  V68  1  0.87599575  0.49966339  0.37422066  1
  V  V69  1  0.87770157  0.24899324  0.62648604  1
  V  V70  1  0.87400808  0.87558461  0.49921519  1
  V  V71  1  -0.00090532  0.74865537  0.74893584  1
  V  V72  1  0.50023222  0.50057219  0.00114802  1
  V  V73  1  0.74984501  0.50016537  0.24989670  1
  V  V74  1  0.49704216  0.87265300  0.87346466  1
  V  V75  1  0.12913859  0.37414843  0.24329427  1
  V  V76  1  0.36900677  0.62693094  0.25508268  1
  V  V77  1  0.37220408  0.12647944  0.25503661  1
  V  V78  1  0.87464440  0.75000831  0.12530973  1
  V  V79  1  0.12306837  0.37414448  0.75140578  1
  V  V80  1  0.62504548  0.00001076  0.12648543  1
  V  V81  1  0.87597918  0.12462853  0.24961121  1
  V  V82  1  0.13217030  0.12311752  0.49556700  1
  V  V83  1  0.87417539  0.00037354  0.37437365  1
  V  V84  1  0.74938319  0.37590087  0.62417767  1
  V  V85  1  0.36950578  0.75061279  0.12385107  1
  V  V86  1  0.74973854  0.12416385  0.87483536  1
  V  V87  1  0.25156473  0.50201451  0.75106189  1
  V  V88  1  0.62403080  0.62447119  0.50005836  1
  V  V89  1  0.00743895  0.12249700  0.11814073  1
  V  V90  1  0.87558047  0.87564534  -0.00035178  1
  V  V91  1  0.74973142  0.62498098  0.87466632  1
  V  V92  1  0.12861841  0.24421674  0.87705124  1
  Zn  Zn93  1  0.13147667  0.62145576  0.49539721  1
  Zn  Zn94  1  0.62369316  0.87495915  0.24970742  1
  Zn  Zn95  1  0.37588468  0.75594152  0.63372849  1
  Zn  Zn96  1  0.62389247  -0.00083033  0.62641189  1
  Zn  Zn97  1  0.49624598  0.24882822  0.75236153  1
  Zn  Zn98  1  0.36467937  0.00692350  0.87962052  1
  Zn  Zn99  1  0.24984283  0.00253300  0.76052889  1
  Zn  Zn100  1  0.24810572  0.87387442  0.12285936  1
  Zn  Zn101  1  0.13129663  0.00235486  0.11720624  1
  Zn  Zn102  1  0.49921089  0.50175018  0.49992279  1
  Zn  Zn103  1  0.37770486  0.25319249  0.63007300  1
  Zn  Zn104  1  0.25420503  0.24303270  0.49677637  1
  Zn  Zn105  1  0.00231571  0.49773437  0.00146904  1
  Zn  Zn106  1  -0.00202743  0.24782631  0.75448273  1
  Zn  Zn107  1  0.38044611  0.63521723  0.75788198  1
  Zn  Zn108  1  0.12810597  0.49306970  0.12014862  1
  Zn  Zn109  1  0.00221508  0.24870092  0.24979356  1
  Zn  Zn110  1  -0.00005830  0.87374188  0.37415559  1
  Zn  Zn111  1  0.36240057  0.13067035  0.76586978  1
  Zn  Zn112  1  0.00125374  0.37393382  0.87787792  1
  Zn  Zn113  1  0.18576894  0.07956904  -0.06030954  1
  Zn  Zn114  1  0.25213466  0.87112014  0.63207547  1
  Zn  Zn115  1  0.87366301  0.12531863  0.74937020  1
  Zn  Zn116  1  0.49865491  0.62599195  0.12579395  1
  Zn  Zn117  1  0.00956586  0.00111576  -0.00493469  1
  Zn  Zn118  1  0.87460992  0.62453836  0.74937900  1
  Zn  Zn119  1  0.75110483  0.12552458  0.37375695  1
  Zn  Zn120  1  -0.00115561  0.12579785  0.62577373  1
  Zn  Zn121  1  0.12588716  0.87290063  0.75038034  1
  Zn  Zn122  1  0.18918058  0.18839224  0.18924149  1
  Zn  Zn123  1  0.18115778  0.18638326  0.68755178  1
  Zn  Zn124  1  0.18922413  0.68616611  0.18883080  1
  Zn  Zn125  1  0.19020323  0.68818085  0.68696253  1
  Zn  Zn126  1  0.68850212  0.18682478  0.18840027  1
  Zn  Zn127  1  0.68690483  0.18795100  0.68772101  1
  Zn  Zn128  1  0.68620307  0.68769897  0.18750167  1
  Zn  Zn129  1  0.68632077  0.68756284  0.68771027  1
  Zn  Zn130  1  0.31040848  0.31588146  0.31356100  1
  Zn  Zn131  1  0.31278031  0.31103534  0.81402907  1
  Zn  Zn132  1  0.31066347  0.81513019  0.31436844  1
  Zn  Zn133  1  0.31159898  0.81666075  0.80889657  1
  Zn  Zn134  1  0.81311450  0.31106242  0.31189031  1
  Zn  Zn135  1  0.81000032  0.31394518  0.81212647  1
  Zn  Zn136  1  0.81210890  0.81446891  0.31207071  1
  Zn  Zn137  1  0.81081985  0.81222231  0.81114918  1
  Zn  Zn138  1  0.18797514  0.43629090  0.43369269  1
  Zn  Zn139  1  0.18813996  0.43784986  0.93686016  1
  Zn  Zn140  1  0.18810205  0.93285376  0.43726215  1
  Zn  Zn141  1  0.18830369  0.92190547  0.93710702  1
  Zn  Zn142  1  0.68773640  0.43808776  0.43787606  1
  Zn  Zn143  1  0.68873467  0.43776680  0.93747729  1
  Zn  Zn144  1  0.68753869  0.93768714  0.43554700  1
  Zn  Zn145  1  0.68585761  0.93738518  0.93750992  1
  Zn  Zn146  1  0.31726443  0.06083554  0.06960141  1
  Zn  Zn147  1  0.29449831  0.08040276  0.60232137  1
  Zn  Zn148  1  0.31240026  0.56638592  0.06416398  1
  Zn  Zn149  1  0.31314662  0.56151487  0.56342156  1
  Zn  Zn150  1  0.81515035  0.06219059  0.06201882  1
  Zn  Zn151  1  0.81001791  0.06237937  0.56353904  1
  Zn  Zn152  1  0.81224663  0.56275470  0.06179912  1
  Zn  Zn153  1  0.81350644  0.56323928  0.56186939  1
  Zn  Zn154  1  0.43825558  0.43917630  0.18787740  1
  Zn  Zn155  1  0.43864185  0.44361911  0.68887473  1
  Zn  Zn156  1  0.43684902  0.93688197  0.18907779  1
  Zn  Zn157  1  0.43514405  0.94616951  0.69051227  1
  Zn  Zn158  1  0.94143218  0.43688951  0.18715545  1
  Zn  Zn159  1  0.93780348  0.43706512  0.68716292  1
  Zn  Zn160  1  0.93920271  0.93892239  0.18611190  1
  Zn  Zn161  1  0.93744137  0.93523967  0.68844869  1
  Zn  Zn162  1  0.06079462  0.06401226  0.31155702  1
  Zn  Zn163  1  0.05274488  0.06395480  0.80734541  1
  Zn  Zn164  1  0.06384859  0.56094660  0.31040248  1
  Zn  Zn165  1  0.06173407  0.56251703  0.81001654  1
  Zn  Zn166  1  0.56053019  0.06187923  0.31327993  1
  Zn  Zn167  1  0.55894471  0.05932901  0.81421885  1
  Zn  Zn168  1  0.55797022  0.56352880  0.31259174  1
  Zn  Zn169  1  0.56356987  0.56119746  0.81266875  1
  Zn  Zn170  1  0.43861147  0.18830956  0.44044365  1
  Zn  Zn171  1  0.43839836  0.19028580  0.94048246  1
  Zn  Zn172  1  0.43814942  0.68718304  0.44086900  1
  Zn  Zn173  1  0.43834792  0.68975026  0.93919645  1
  Zn  Zn174  1  0.94159823  0.18700002  0.43629847  1
  Zn  Zn175  1  0.93887018  0.18896148  0.93597929  1
  Zn  Zn176  1  0.94078334  0.68757157  0.43649656  1
  Zn  Zn177  1  0.93839552  0.68543466  0.93881358  1
  Zn  Zn178  1  0.06047495  0.30905841  0.06025811  1
  Zn  Zn179  1  0.06288543  0.31191036  0.55988928  1
  Zn  Zn180  1  0.06185602  0.81119178  0.06227106  1
  Zn  Zn181  1  0.06146913  0.81075297  0.55831789  1
  Zn  Zn182  1  0.55952058  0.31348258  0.06254534  1
  Zn  Zn183  1  0.56132672  0.31225341  0.56264752  1
  Zn  Zn184  1  0.55898766  0.81182773  0.06364898  1
  Zn  Zn185  1  0.56206048  0.81216808  0.56157100  1
  O  O186  1  0.11015435  0.12679821  0.13039792  1
  O  O187  1  0.11823365  0.11251689  0.61289858  1
  O  O188  1  0.12152383  0.62754000  0.11553363  1
  O  O189  1  0.11947659  0.61704219  0.62296117  1
  O  O190  1  0.61988655  0.12075900  0.12083287  1
  O  O191  1  0.62002666  0.12525724  0.61241356  1
  O  O192  1  0.62391041  0.61839066  0.11857340  1
  O  O193  1  0.61711050  0.62109745  0.62028299  1
  O  O194  1  0.37885584  0.38296350  0.38196274  1
  O  O195  1  0.37958724  0.38175964  0.88486577  1
  O  O196  1  0.38014118  0.88304218  0.38300727  1
  O  O197  1  0.38352881  0.87386655  0.88562845  1
  O  O198  1  0.88026215  0.38013303  0.37894102  1
  O  O199  1  0.87315963  0.38418066  0.88065796  1
  O  O200  1  0.87578661  0.88176958  0.38170593  1
  O  O201  1  0.87819353  0.87838155  0.88045135  1
  O  O202  1  0.26085663  -0.00629704  0.36699277  1
  O  O203  1  0.24547034  0.00233350  0.87772338  1
  O  O204  1  0.26263966  0.49584078  0.36473294  1
  O  O205  1  0.25516915  0.50820290  0.87090124  1
  O  O206  1  0.75626085  0.00227262  0.36813959  1
  O  O207  1  0.75395050  0.00469040  0.87102481  1
  O  O208  1  0.75583105  0.50525292  0.36927073  1
  O  O209  1  0.75752288  0.50487763  0.87020913  1
  O  O210  1  0.24850244  0.50330710  0.13815509  1
  O  O211  1  0.24506393  0.49218010  0.62993398  1
  O  O212  1  0.24932136  0.99632053  0.13886858  1
  O  O213  1  0.22764113  0.98853503  0.61171668  1
  O  O214  1  0.74484628  0.49457643  0.13071385  1
  O  O215  1  0.74557902  0.49542533  0.62920087  1
  O  O216  1  0.74509340  0.99498666  0.12941259  1
  O  O217  1  0.74704236  0.99213201  0.63097086  1
  O  O218  1  0.00976518  0.37346264  0.25677849  1
  O  O219  1  0.01400492  0.37388196  0.74946882  1
  O  O220  1  0.00904617  0.86946824  0.24975966  1
  O  O221  1  0.00208124  0.86661691  0.75751991  1
  O  O222  1  0.50529992  0.37023239  0.25520437  1
  O  O223  1  0.50660782  0.37747316  0.75752113  1
  O  O224  1  0.50010804  0.86829331  0.25817725  1
  O  O225  1  0.51023138  0.88218582  0.75956441  1
  O  O226  1  0.49344558  0.13215818  0.24651462  1
  O  O227  1  0.50909423  0.12533153  0.73465374  1
  O  O228  1  0.48740131  0.63057945  0.24860921  1
  O  O229  1  0.50228181  0.62096382  0.73562226  1
  O  O230  1  0.99267333  0.12568448  0.23912659  1
  O  O231  1  0.99042971  0.13161735  0.74234298  1
  O  O232  1  0.99471310  0.63036203  0.24469271  1
  O  O233  1  0.99720258  0.63027514  0.74165764  1
  O  O234  1  0.36899555  0.25871106  0.00819349  1
  O  O235  1  0.37245774  0.26430797  0.49962802  1
  O  O236  1  0.38357329  0.75864985  0.01321200  1
  O  O237  1  0.36833823  0.75935044  0.49973294  1
  O  O238  1  0.86797568  0.25588366  0.00524590  1
  O  O239  1  0.87058791  0.25573262  0.50529565  1
  O  O240  1  0.86880549  0.75417158  0.00578661  1
  O  O241  1  0.86993122  0.75515426  0.50369933  1
  O  O242  1  0.12512324  0.24093336  0.49300648  1
  O  O243  1  0.13781169  0.25911189  0.99058836  1
  O  O244  1  0.13278208  0.74965447  0.49041567  1
  O  O245  1  0.11810713  0.73789317  0.98813264  1
  O  O246  1  0.62991457  0.24387360  0.49428563  1
  O  O247  1  0.63001074  0.24565974  0.99622249  1
  O  O248  1  0.63158322  0.74467546  0.49341970  1
  O  O249  1  0.63009341  0.74469414  0.99553770  1
  O  O250  1  0.49115729  0.24588463  0.13111857  1
  O  O251  1  0.50100572  0.24243051  0.62823232  1
  O  O252  1  0.49036161  0.74859768  0.13418800  1
  O  O253  1  0.49983314  0.73439782  0.61968444  1
  O  O254  1  0.99387351  0.23787704  0.12612574  1
  O  O255  1  0.98726733  0.25202535  0.62375152  1
  O  O256  1  0.99357604  0.74338003  0.13097462  1
  O  O257  1  0.99506169  0.74484427  0.62818797  1
  O  O258  1  0.01098767  0.25674332  0.37336896  1
  O  O259  1  0.01124312  0.25562739  0.87503870  1
  O  O260  1  0.00919957  0.75257513  0.36830649  1
  O  O261  1  0.00529483  0.75109997  0.86890072  1
  O  O262  1  0.50473005  0.25680116  0.36935585  1
  O  O263  1  0.50873252  0.25953928  0.87631924  1
  O  O264  1  0.50459547  0.75447733  0.37122173  1
  O  O265  1  0.50753011  0.76377230  0.88205409  1
  O  O266  1  0.23574250  0.12544307  0.50882971  1
  O  O267  1  0.25586547  0.13938400  1.00733306  1
  O  O268  1  0.25114073  0.63790534  0.50377717  1
  O  O269  1  0.24012812  0.61978152  0.98882364  1
  O  O270  1  0.73995487  0.13032713  0.49809088  1
  O  O271  1  0.74403437  0.13050188  0.99584961  1
  O  O272  1  0.74525380  0.63050981  0.49375407  1
  O  O273  1  0.74379183  0.63051640  0.99476330  1
  O  O274  1  0.26328059  0.36858760  -0.00284450  1
  O  O275  1  0.25813720  0.37777699  0.50800515  1
  O  O276  1  0.26707821  0.87387205  0.00417128  1
  O  O277  1  0.26010371  0.86605631  0.50023230  1
  O  O278  1  0.75443158  0.36954038  0.00667176  1
  O  O279  1  0.75577472  0.37017676  0.50446006  1
  O  O280  1  0.75471370  0.86896772  0.00527925  1
  O  O281  1  0.75384217  0.86949202  0.50516558  1
  O  O282  1  0.13450116  0.49227753  0.25060572  1
  O  O283  1  0.13047238  0.49154857  0.74500975  1
  O  O284  1  0.13275594  0.99231623  0.25279365  1
  O  O285  1  0.11912328  1.00176927  0.73161813  1
  O  O286  1  0.62988771  0.49542915  0.24591221  1
  O  O287  1  0.63161022  0.49391697  0.74461368  1
  O  O288  1  0.63066561  0.99966583  0.24407334  1
  O  O289  1  0.63163897  0.98745727  0.75038501  1
  O  O290  1  0.36872106  0.00468408  0.25903477  1
  O  O291  1  0.37021180  0.00639249  0.75773307  1
  O  O292  1  0.36930289  0.50561327  0.25512906  1
  O  O293  1  0.36886121  0.50547530  0.75912580  1
  O  O294  1  0.86992538  0.00434612  0.25443787  1
  O  O295  1  0.86659322  -0.00145168  0.75724297  1
  O  O296  1  0.86957827  0.50499496  0.25484335  1
  O  O297  1  0.86862792  0.49925167  0.75882805  1
  O  O298  1  0.12021884  0.36773366  0.36726082  1
  O  O299  1  0.12673713  0.36892862  0.86451748  1
  O  O300  1  0.12305870  0.86588082  0.36347702  1
  O  O301  1  0.11595717  0.85971438  0.87494340  1
  O  O302  1  0.61979043  0.37099984  0.36975829  1
  O  O303  1  0.62087115  0.37150921  0.87067482  1
  O  O304  1  0.61792022  0.86781968  0.37420748  1
  O  O305  1  0.61869632  0.86952212  0.86924454  1
  O  O306  1  0.38169901  0.13603343  0.13401656  1
  O  O307  1  0.39354690  0.13211891  0.61293369  1
  O  O308  1  0.37699613  0.63337165  0.13427469  1
  O  O309  1  0.39096769  0.62197749  0.62472453  1
  O  O310  1  0.88261365  0.12938450  0.13044840  1
  O  O311  1  0.87299432  0.13820958  0.62359992  1
  O  O312  1  0.87930534  0.63041046  0.13029791  1
  O  O313  1  0.88174961  0.63120898  0.62534812  1
  O  O314  1  0.26256553  0.24828634  0.11948108  1
  O  O315  1  0.24986534  0.26583169  0.62112640  1
  O  O316  1  0.26554447  0.75309503  0.13361524  1
  O  O317  1  0.25027023  0.75441068  0.61311936  1
  O  O318  1  0.75436784  0.25557780  0.11998132  1
  O  O319  1  0.75693589  0.25664996  0.61857202  1
  O  O320  1  0.75504703  0.75484953  0.12011971  1
  O  O321  1  0.75486983  0.75428078  0.61815819  1
  O  O322  1  0.23631937  0.25609528  0.37893276  1
  O  O323  1  0.24184458  0.25243666  0.88502564  1
  O  O324  1  0.24078476  0.75563718  0.38416442  1
  O  O325  1  0.23643015  0.73908207  0.87032585  1
  O  O326  1  0.74306723  0.24898590  0.38106599  1
  O  O327  1  0.74434550  0.24504874  0.88141361  1
  O  O328  1  0.74524548  0.74429321  0.37927964  1
  O  O329  1  0.74421246  0.74471715  0.88133337  1
  O  O330  1  -0.00490360  0.12399904  0.01485624  1
  O  O331  1  0.00686611  0.11347799  0.50105786  1
  O  O332  1  0.00917220  0.62195214  0.00591649  1
  O  O333  1  0.00262467  0.61767611  0.50547277  1
  O  O334  1  0.50682082  0.12063824  0.00928686  1
  O  O335  1  0.51053240  0.12211273  0.50496698  1
  O  O336  1  0.50678641  0.61775454  0.00113247  1
  O  O337  1  0.50688592  0.62205302  0.50912885  1
  O  O338  1  0.49038160  0.37788544  0.49490054  1
  O  O339  1  0.49084380  0.38098280  0.99488329  1
  O  O340  1  0.49240681  0.87901456  0.49488329  1
  O  O341  1  0.49329093  0.87997844  0.99445704  1
  O  O342  1  0.99513308  0.38183326  0.49365767  1
  O  O343  1  0.99113674  0.37838531  0.99893748  1
  O  O344  1  0.99260154  0.88469346  0.49727275  1
  O  O345  1  0.99244659  0.87435413  0.99341849  1
  O  O346  1  0.48815095  0.49353901  0.37510375  1
  O  O347  1  0.49461246  0.49614132  0.88191911  1
  O  O348  1  0.49096817  0.99455715  0.37975661  1
  O  O349  1  0.50546565  0.98449053  0.88539886  1
  O  O350  1  0.99461866  0.49522366  0.37901649  1
  O  O351  1  0.98753235  0.49835918  0.87498986  1
  O  O352  1  0.99365648  0.99802217  0.38376756  1
  O  O353  1  0.99286038  0.99185687  0.87547844  1
  O  O354  1  0.00251199  0.01285511  0.12266371  1
  O  O355  1  0.00471528  -0.00132260  0.61292193  1
  O  O356  1  0.00503534  0.50896852  0.12422104  1
  O  O357  1  0.00490337  0.50386902  0.61869920  1
  O  O358  1  0.50478706  0.00639747  0.12248664  1
  O  O359  1  0.50382430  0.00979690  0.61681002  1
  O  O360  1  0.50719339  0.50134396  0.11902913  1
  O  O361  1  0.50761986  0.50984858  0.62161053  1
  O  O362  1  0.24075778  0.38464669  0.25337880  1
  O  O363  1  0.24281397  0.38105046  0.74224031  1
  O  O364  1  0.24204025  0.88461709  0.24938236  1
  O  O365  1  0.24121441  0.88339969  0.74756525  1
  O  O366  1  0.74436173  0.38063577  0.24518708  1
  O  O367  1  0.74308330  0.38143097  0.74350630  1
  O  O368  1  0.74798682  0.88138717  0.24238392  1
  O  O369  1  0.74121311  0.87955222  0.74523637  1
  O  O370  1  0.25650871  0.11327062  0.24681775  1
  O  O371  1  0.25967241  0.11222235  0.71366679  1
  O  O372  1  0.26254830  0.61651143  0.24932243  1
  O  O373  1  0.24743421  0.61778709  0.76295395  1
  O  O374  1  0.75737688  0.11819319  0.25064404  1
  O  O375  1  0.74922879  0.11760957  0.75690085  1
  O  O376  1  0.75564654  0.61973969  0.25496238  1
  O  O377  1  0.75049488  0.61834554  0.75651760  1
  O  O378  1  0.38150131  0.11359551  0.37186154  1
  O  O379  1  0.39227634  0.11775655  0.87386600  1
  O  O380  1  0.38127041  0.61508514  0.36696014  1
  O  O381  1  0.36597671  0.62095519  0.87952995  1
  O  O382  1  0.87485582  0.11907309  0.36823189  1
  O  O383  1  0.86683945  0.11903355  0.87515617  1
  O  O384  1  0.86980328  0.61977869  0.36930087  1
  O  O385  1  0.86840045  0.61539057  0.87479978  1
  O  O386  1  0.11853524  0.37285539  0.13960281  1
  O  O387  1  0.13231733  0.37974262  0.63066849  1
  O  O388  1  0.12636994  0.87400263  0.13715214  1
  O  O389  1  0.11786676  0.88638726  0.62462134  1
  O  O390  1  0.63000767  0.38006199  0.13059503  1
  O  O391  1  0.63048228  0.38048247  0.62860116  1
  O  O392  1  0.63081072  0.88155056  0.12567524  1
  O  O393  1  0.62888082  0.87431937  0.63327272  1
  O  O394  1  0.12613824  0.25714544  0.25827698  1
  O  O395  1  0.12650707  0.25950922  0.75736809  1
  O  O396  1  0.12257545  0.75624596  0.25561375  1
  O  O397  1  0.11715895  0.74680292  0.76027571  1
  O  O398  1  0.61951403  0.25588121  0.25456513  1
  O  O399  1  0.62526357  0.25818371  0.75780315  1
  O  O400  1  0.61770619  0.75010573  0.25675660  1
  O  O401  1  0.63177772  0.76296001  0.75744570  1
  O  O402  1  0.37801323  0.24856516  0.24547782  1
  O  O403  1  0.37854900  0.24717481  0.74717660  1
  O  O404  1  0.37836302  0.74351610  0.24814955  1
  O  O405  1  0.36970960  0.74613000  0.74556790  1
  O  O406  1  0.87671799  0.24381607  0.24333000  1
  O  O407  1  0.87360030  0.25297677  0.73785909  1
  O  O408  1  0.87982475  0.74463341  0.24524370  1
  O  O409  1  0.88025216  0.74836554  0.74238287  1
  O  O410  1  0.37414591  0.49177863  0.49097302  1
  O  O411  1  0.37859834  0.49390267  0.99787168  1
  O  O412  1  0.38027067  0.99074747  0.49078793  1
  O  O413  1  0.38284783  0.98948989  1.00393523  1
  O  O414  1  0.87997254  0.49415369  0.49345444  1
  O  O415  1  0.87338222  0.49471413  0.99037340  1
  O  O416  1  0.88057081  0.99626756  0.49589430  1
  O  O417  1  0.87570796  0.99177028  0.99259864  1
  O  O418  1  0.12654120  -0.00143091  0.00125248  1
  O  O419  1  0.11569679  0.00322609  0.50138659  1
  O  O420  1  0.12393674  0.50985765  0.00121556  1
  O  O421  1  0.12003849  0.50028143  0.50378040  1
  O  O422  1  0.62027691  0.00592265  0.00738327  1
  O  O423  1  0.61922150  0.00916480  0.49842024  1
  O  O424  1  0.62083318  0.50456647  0.00507486  1
  O  O425  1  0.62498316  0.50668214  0.50556621  1
  O  O426  1  0.38270740  0.36577960  0.11656906  1
  O  O427  1  0.36770549  0.37977524  0.61685065  1
  O  O428  1  0.37668493  0.86715289  0.11938069  1
  O  O429  1  0.37717747  0.87768601  0.61184923  1
  O  O430  1  0.86916944  0.37016582  0.12141300  1
  O  O431  1  0.86924487  0.36928123  0.61824763  1
  O  O432  1  0.86969315  0.86913700  0.12012271  1
  O  O433  1  0.86839092  0.86858784  0.61869580  1
  O  O434  1  0.11899723  0.13443336  0.38336692  1
  O  O435  1  0.11980320  0.13921747  0.86830831  1
  O  O436  1  0.12192532  0.63805064  0.37418864  1
  O  O437  1  0.12963883  0.62821031  0.88210806  1
  O  O438  1  0.62381448  0.13170708  0.38439980  1
  O  O439  1  0.62924475  0.13004635  0.88214414  1
  O  O440  1  0.63004647  0.62942692  0.37917973  1
  O  O441  1  0.62984296  0.62961118  0.88048507  1
