# generated using pymatgen
data_V93Zn93O256
_symmetry_space_group_name_H-M   'P 1'
_cell_length_a   17.05374449
_cell_length_b   17.05224086
_cell_length_c   17.05376974
_cell_angle_alpha   90.05446621
_cell_angle_beta   90.02482527
_cell_angle_gamma   89.98527250
_symmetry_Int_Tables_number   1
_chemical_formula_structural   V93Zn93O256
_chemical_formula_sum   'V93 Zn93 O256'
_cell_volume   4959.31111360
_cell_formula_units_Z   1
loop_
 _symmetry_equiv_pos_site_id
 _symmetry_equiv_pos_as_xyz
  1  'x, y, z'
loop_
 _atom_site_type_symbol
 _atom_site_label
 _atom_site_symmetry_multiplicity
 _atom_site_fract_x
 _atom_site_fract_y
 _atom_site_fract_z
 _atom_site_occupancy
  V  V0  1  0.87644450  0.74600504  0.62375393  1
  V  V1  1  0.12358590  0.75073931  0.37454519  1
  V  V2  1  0.24928962  0.87527186  0.12394270  1
  V  V3  1  0.62386806  0.62484785  -0.00002755  1
  V  V4  1  0.75019402  0.50090481  0.25136438  1
  V  V5  1  0.62574146  0.12475536  -0.00071788  1
  V  V6  1  0.62481194  0.50035169  0.12519560  1
  V  V7  1  0.24525334  0.62626058  0.87472537  1
  V  V8  1  0.87925579  0.62309429  0.74800113  1
  V  V9  1  0.12517977  0.12617757  -0.00056441  1
  V  V10  1  0.12406473  0.87535233  0.25023397  1
  V  V11  1  0.00081166  0.37532086  0.87599164  1
  V  V12  1  0.74900492  0.75005639  -0.00076889  1
  V  V13  1  0.37558348  0.87598901  -0.00297411  1
  V  V14  1  -0.00025582  0.00069384  -0.00086908  1
  V  V15  1  0.25078860  0.25023671  0.50047198  1
  V  V16  1  0.49923153  -0.00063985  -0.00113633  1
  V  V17  1  -0.00105538  0.37748806  0.37472848  1
  V  V18  1  0.37514874  0.37571403  0.00060089  1
  V  V19  1  0.49928513  0.12601862  0.12579718  1
  V  V20  1  0.25148527  0.25206181  0.00484567  1
  V  V21  1  0.50075870  0.12405050  0.62572582  1
  V  V22  1  -0.00160044  0.50320184  0.50746907  1
  V  V23  1  0.74933887  0.12181668  0.87301915  1
  V  V24  1  0.25000772  0.12514149  0.37563173  1
  V  V25  1  0.62511948  0.25080259  0.37712238  1
  V  V26  1  0.62506851  0.00004038  0.12433028  1
  V  V27  1  0.00927941  0.50443135  0.00129993  1
  V  V28  1  0.37460900  -0.00113993  0.37440764  1
  V  V29  1  0.49968024  0.62512452  0.12377228  1
  V  V30  1  0.75002991  -0.00063471  0.25048604  1
  V  V31  1  0.24965003  0.74919396  0.49916543  1
  V  V32  1  0.87609294  0.25139351  0.12497205  1
  V  V33  1  0.87465741  0.87568786  -0.00105176  1
  V  V34  1  0.50152506  0.74554067  0.74339794  1
  V  V35  1  0.00520258  0.62578261  0.12011474  1
  V  V36  1  0.50046019  0.37485754  0.87552847  1
  V  V37  1  0.62467120  0.74659017  0.37500093  1
  V  V38  1  0.50015812  -0.00028427  0.50053037  1
  V  V39  1  0.12496902  0.87461233  0.74956594  1
  V  V40  1  0.24312152  0.74741364  -0.00269165  1
  V  V41  1  0.24996803  0.12383156  0.87393457  1
  V  V42  1  -0.00006676  0.87456112  0.87333029  1
  V  V43  1  0.87162181  -0.00052772  0.86670826  1
  V  V44  1  0.49947739  0.87409247  0.37418352  1
  V  V45  1  0.12400232  0.25117506  0.37523382  1
  V  V46  1  0.75285223  0.36791751  0.62631199  1
  V  V47  1  0.75101088  0.37464803  0.12518755  1
  V  V48  1  0.87556308  0.37538946  0.00076393  1
  V  V49  1  0.87414064  0.75037389  0.12435769  1
  V  V50  1  0.87493930  0.49951556  0.87541230  1
  V  V51  1  0.87425017  0.13160104  0.74464768  1
  V  V52  1  0.62373850  0.74954535  0.87342099  1
  V  V53  1  0.12682980  0.37548558  0.75095458  1
  V  V54  1  0.62466778  0.37487079  0.25128657  1
  V  V55  1  0.63069756  -0.00204950  0.62795379  1
  V  V56  1  0.25043652  -0.00004109  0.74975415  1
  V  V57  1  0.49987711  0.50618534  0.50497600  1
  V  V58  1  0.62406327  0.87420838  0.24981730  1
  V  V59  1  0.50067721  0.24879853  0.74963061  1
  V  V60  1  0.37150234  0.62024779  0.24771301  1
  V  V61  1  0.12455463  0.12497005  0.50107015  1
  V  V62  1  0.00178599  0.74701881  0.74486128  1
  V  V63  1  0.37766193  0.74720019  0.62313963  1
  V  V64  1  0.87432933  -0.00099832  0.37557173  1
  V  V65  1  0.00009730  0.00049260  0.49943856  1
  V  V66  1  0.74973910  0.74899139  0.50100356  1
  V  V67  1  0.12343055  0.00169225  0.62433904  1
  V  V68  1  -0.00066847  0.87567102  0.37435178  1
  V  V69  1  0.25060422  0.87508430  0.62443151  1
  V  V70  1  0.37487110  0.74913051  0.12426468  1
  V  V71  1  0.24934299  0.00090772  0.24963231  1
  V  V72  1  0.37662593  0.12502551  0.24914506  1
  V  V73  1  0.37532940  0.12391318  0.74967796  1
  V  V74  1  0.12045670  0.62411309  0.50613699  1
  V  V75  1  0.37758586  0.62396706  0.74521854  1
  V  V76  1  0.00026904  0.25243833  0.25034483  1
  V  V77  1  0.37419546  0.87352648  0.49862430  1
  V  V78  1  0.74956101  0.87589389  0.12390636  1
  V  V79  1  0.37312790  0.49842782  0.37329401  1
  V  V80  1  0.24984276  0.37679130  0.62611826  1
  V  V81  1  0.87545367  0.36746717  0.50596826  1
  V  V82  1  0.87385231  0.62516237  0.25137570  1
  V  V83  1  0.63108261  0.87603003  0.74868014  1
  V  V84  1  0.24732646  0.62001956  0.37082384  1
  V  V85  1  0.37526230  0.37569791  0.50106839  1
  V  V86  1  0.12426682  0.00157006  0.12458384  1
  V  V87  1  0.75070199  0.62374010  0.87533326  1
  V  V88  1  -0.00045092  0.12770768  0.12497508  1
  V  V89  1  0.12431988  0.25122886  0.87567029  1
  V  V90  1  0.62257396  0.50492094  0.62532482  1
  V  V91  1  0.74935167  0.12523055  0.37541730  1
  V  V92  1  0.62538403  0.37452020  0.75021435  1
  Zn  Zn93  1  0.13636876  0.38634783  0.25215878  1
  Zn  Zn94  1  0.50017504  0.25109544  0.25048928  1
  Zn  Zn95  1  -0.00069130  0.75035774  0.24844636  1
  Zn  Zn96  1  0.75400912  0.87814360  0.62772924  1
  Zn  Zn97  1  0.62079186  0.62746166  0.50643211  1
  Zn  Zn98  1  0.50082128  0.37430139  0.37597429  1
  Zn  Zn99  1  0.49856646  0.74966235  0.24988153  1
  Zn  Zn100  1  0.25185100  0.50127795  0.75180039  1
  Zn  Zn101  1  0.12251700  0.50434591  0.62901512  1
  Zn  Zn102  1  -0.00355612  0.25400255  0.74247130  1
  Zn  Zn103  1  0.87126266  0.50076416  0.37947488  1
  Zn  Zn104  1  0.75327372  0.24683645  0.50510664  1
  Zn  Zn105  1  0.50044279  0.87551716  0.87210341  1
  Zn  Zn106  1  0.62748588  0.24988448  0.87711338  1
  Zn  Zn107  1  0.25481510  0.39434624  0.13751378  1
  Zn  Zn108  1  0.74999686  0.49909970  0.74882803  1
  Zn  Zn109  1  0.87498148  0.12561891  0.24878672  1
  Zn  Zn110  1  0.12112387  0.74635142  0.87738587  1
  Zn  Zn111  1  0.74841980  0.62255247  0.37722734  1
  Zn  Zn112  1  0.87548245  0.87477840  0.50185599  1
  Zn  Zn113  1  0.13290216  0.50634574  0.13765359  1
  Zn  Zn114  1  0.37517564  0.50194353  0.87340429  1
  Zn  Zn115  1  0.50006736  0.50037829  -0.00113767  1
  Zn  Zn116  1  0.37736045  0.24967845  0.62429301  1
  Zn  Zn117  1  0.37628272  -0.00033092  0.87311888  1
  Zn  Zn118  1  0.62553353  0.12533786  0.50305997  1
  Zn  Zn119  1  0.74977065  0.24964455  0.00077105  1
  Zn  Zn120  1  0.37621763  0.25357858  0.12993597  1
  Zn  Zn121  1  -0.00584171  0.13254530  0.62137000  1
  Zn  Zn122  1  0.18697490  0.19372792  0.19058444  1
  Zn  Zn123  1  0.18645752  0.18948700  0.68638984  1
  Zn  Zn124  1  0.18830282  0.68819080  0.18777049  1
  Zn  Zn125  1  0.19114554  0.68878304  0.68834547  1
  Zn  Zn126  1  0.68752344  0.18830538  0.18866487  1
  Zn  Zn127  1  0.68687125  0.18535524  0.69204390  1
  Zn  Zn128  1  0.68761597  0.68762144  0.18749377  1
  Zn  Zn129  1  0.69202257  0.68729507  0.68894167  1
  Zn  Zn130  1  0.31470431  0.31068092  0.31390403  1
  Zn  Zn131  1  0.31371700  0.30911060  0.81372019  1
  Zn  Zn132  1  0.31086380  0.80951417  0.31078255  1
  Zn  Zn133  1  0.31306490  0.81017859  0.81209550  1
  Zn  Zn134  1  0.81397213  0.31318516  0.31321614  1
  Zn  Zn135  1  0.81000710  0.31067160  0.81449720  1
  Zn  Zn136  1  0.81184881  0.81214897  0.31326950  1
  Zn  Zn137  1  0.81290885  0.81020952  0.81250390  1
  Zn  Zn138  1  0.18520733  0.43849676  0.43845422  1
  Zn  Zn139  1  0.19170256  0.44032836  0.93884691  1
  Zn  Zn140  1  0.18645323  0.93808092  0.43724722  1
  Zn  Zn141  1  0.18691339  0.93663096  0.93522090  1
  Zn  Zn142  1  0.68882820  0.43720207  0.44003177  1
  Zn  Zn143  1  0.68825798  0.43853003  0.93846732  1
  Zn  Zn144  1  0.68706461  0.93513870  0.44030087  1
  Zn  Zn145  1  0.68668460  0.93784882  0.93498093  1
  Zn  Zn146  1  0.31272922  0.06401876  0.06276545  1
  Zn  Zn147  1  0.31330579  0.06225657  0.56343411  1
  Zn  Zn148  1  0.31313387  0.56294559  0.05662175  1
  Zn  Zn149  1  0.31011666  0.56195694  0.56160223  1
  Zn  Zn150  1  0.81341905  0.06325815  0.06002743  1
  Zn  Zn151  1  0.81173582  0.06170028  0.56003462  1
  Zn  Zn152  1  0.81493416  0.56140680  0.06313578  1
  Zn  Zn153  1  0.80943375  0.55934329  0.56397843  1
  Zn  Zn154  1  0.43983095  0.43676466  0.18727360  1
  Zn  Zn155  1  0.43815616  0.43764852  0.68745457  1
  Zn  Zn156  1  0.43799199  0.93797134  0.18630441  1
  Zn  Zn157  1  0.44055855  0.93530122  0.68700864  1
  Zn  Zn158  1  0.94034939  0.44082393  0.18743491  1
  Zn  Zn159  1  0.93811195  0.43566469  0.68741774  1
  Zn  Zn160  1  0.93696146  0.93903675  0.18864218  1
  Zn  Zn161  1  0.93881314  0.93686383  0.68465373  1
  Zn  Zn162  1  0.06128227  0.06438116  0.31220467  1
  Zn  Zn163  1  0.05995233  0.06316053  0.81139955  1
  Zn  Zn164  1  0.05735264  0.56270713  0.31435647  1
  Zn  Zn165  1  0.06286782  0.56044068  0.81372244  1
  Zn  Zn166  1  0.56296268  0.06215119  0.31270756  1
  Zn  Zn167  1  0.56230837  0.05962632  0.81243608  1
  Zn  Zn168  1  0.55792709  0.56145152  0.31210894  1
  Zn  Zn169  1  0.56224325  0.56084240  0.81130068  1
  Zn  Zn170  1  0.43883925  0.18689934  0.43835398  1
  Zn  Zn171  1  0.43732200  0.18807417  0.93699554  1
  Zn  Zn172  1  0.43753141  0.68557127  0.43623438  1
  Zn  Zn173  1  0.43618002  0.68873621  0.93339677  1
  Zn  Zn174  1  0.93737631  0.18738606  0.43687905  1
  Zn  Zn175  1  0.93723652  0.18930465  0.93539930  1
  Zn  Zn176  1  0.93836031  0.68791298  0.43628937  1
  Zn  Zn177  1  0.93741339  0.68741884  0.93590220  1
  Zn  Zn178  1  0.06641750  0.31935479  0.06660947  1
  Zn  Zn179  1  0.06172557  0.31159277  0.56419049  1
  Zn  Zn180  1  0.06072655  0.81292548  0.06354107  1
  Zn  Zn181  1  0.06202236  0.81343333  0.56164549  1
  Zn  Zn182  1  0.56341036  0.30970047  0.06311665  1
  Zn  Zn183  1  0.56373822  0.31502010  0.56205694  1
  Zn  Zn184  1  0.56094460  0.81130359  0.06248185  1
  Zn  Zn185  1  0.56241629  0.81402511  0.56266055  1
  O  O186  1  0.11975566  0.12085013  0.11925065  1
  O  O187  1  0.12708707  0.11732221  0.61786207  1
  O  O188  1  0.10752795  0.62966514  0.13064518  1
  O  O189  1  0.13455900  0.62425830  0.60988644  1
  O  O190  1  0.62075819  0.11818674  0.12042179  1
  O  O191  1  0.62002920  0.11472987  0.62655765  1
  O  O192  1  0.62007797  0.62119909  0.11966863  1
  O  O193  1  0.63296310  0.60929856  0.62672120  1
  O  O194  1  0.37436092  0.38546282  0.38197594  1
  O  O195  1  0.38454835  0.37393988  0.88169292  1
  O  O196  1  0.37828912  0.87881779  0.37866452  1
  O  O197  1  0.37543976  0.87542854  0.88673256  1
  O  O198  1  0.88317589  0.37682005  0.38566143  1
  O  O199  1  0.88053104  0.37995163  0.87933331  1
  O  O200  1  0.88084048  0.88094355  0.37636828  1
  O  O201  1  0.87864419  0.88134100  0.87821739  1
  O  O202  1  0.25481950  0.00484308  0.36939657  1
  O  O203  1  0.25070949  0.00600717  0.86749676  1
  O  O204  1  0.26131392  0.51044312  0.38435712  1
  O  O205  1  0.25451635  0.51171444  0.87356311  1
  O  O206  1  0.75249679  0.00600606  0.37131149  1
  O  O207  1  0.76126870  0.00861041  0.88080763  1
  O  O208  1  0.75133357  0.50340506  0.36811024  1
  O  O209  1  0.75738010  0.50599522  0.87281243  1
  O  O210  1  0.24424315  0.50489940  0.11692393  1
  O  O211  1  0.24699439  0.48720844  0.62600056  1
  O  O212  1  0.24347883  0.99554736  0.12976023  1
  O  O213  1  0.24445131  0.99351376  0.62964636  1
  O  O214  1  0.74449783  0.49467336  0.13094831  1
  O  O215  1  0.74081856  0.48829944  0.62706173  1
  O  O216  1  0.74517794  0.99494684  0.12921961  1
  O  O217  1  0.73481152  0.99657706  0.61673577  1
  O  O218  1  -0.00486410  0.37082324  0.26394980  1
  O  O219  1  0.01017235  0.37604642  0.75703467  1
  O  O220  1  0.00666497  0.87453646  0.25535340  1
  O  O221  1  0.00444853  0.86649055  0.75393998  1
  O  O222  1  0.50899425  0.37348929  0.25470074  1
  O  O223  1  0.50407652  0.36934800  0.75751782  1
  O  O224  1  0.50572479  0.87340817  0.25578169  1
  O  O225  1  0.50896194  0.86308070  0.75067674  1
  O  O226  1  0.49385480  0.12170373  0.24309274  1
  O  O227  1  0.49555147  0.12872739  0.74555962  1
  O  O228  1  0.48842509  0.62769695  0.24407132  1
  O  O229  1  0.49087661  0.63540121  0.75517468  1
  O  O230  1  0.99803380  0.13224992  0.24291715  1
  O  O231  1  0.98455837  0.12619532  0.75114280  1
  O  O232  1  0.98743931  0.62804938  0.24156014  1
  O  O233  1  0.99035174  0.63474772  0.75663497  1
  O  O234  1  0.36736961  0.25807066  0.00010177  1
  O  O235  1  0.36874748  0.25694712  0.50032237  1
  O  O236  1  0.36754736  0.75961992  0.00406874  1
  O  O237  1  0.36968473  0.75374072  0.50255279  1
  O  O238  1  0.87556374  0.25799269  0.00693329  1
  O  O239  1  0.87386769  0.26329491  0.49731480  1
  O  O240  1  0.86837465  0.75649449  0.00321912  1
  O  O241  1  0.86909797  0.74790739  0.50852523  1
  O  O242  1  0.13148589  0.24457063  0.49404882  1
  O  O243  1  0.13249328  0.24614493  0.99520305  1
  O  O244  1  0.12894563  0.74323692  0.49503652  1
  O  O245  1  0.13918876  0.75813164  0.99824275  1
  O  O246  1  0.62882030  0.24856535  0.48900681  1
  O  O247  1  0.62804151  0.23980348  0.99752485  1
  O  O248  1  0.63082071  0.74881437  0.49332879  1
  O  O249  1  0.62987951  0.74504282  0.99424873  1
  O  O250  1  0.49865767  0.24010663  0.12877365  1
  O  O251  1  0.50091219  0.24316561  0.63110461  1
  O  O252  1  0.49286730  0.74347285  0.12662203  1
  O  O253  1  0.49414925  0.75318314  0.63454505  1
  O  O254  1  0.99599886  0.24678365  0.13002675  1
  O  O255  1  1.00409562  0.24473722  0.63001899  1
  O  O256  1  0.99162665  0.74378015  0.12431694  1
  O  O257  1  0.99014953  0.75473761  0.63477467  1
  O  O258  1  0.00369485  0.25858687  0.37177125  1
  O  O259  1  0.00765230  0.25835790  0.87348971  1
  O  O260  1  0.00637499  0.75746606  0.37268583  1
  O  O261  1  0.00006545  0.75567566  0.86429869  1
  O  O262  1  0.51274125  0.24998408  0.37407980  1
  O  O263  1  0.50238112  0.25953640  0.86921637  1
  O  O264  1  0.50832280  0.75559725  0.37488681  1
  O  O265  1  0.50655485  0.75246429  0.86374996  1
  O  O266  1  0.24565013  0.12918867  0.49477383  1
  O  O267  1  0.24484823  0.13117564  0.99404851  1
  O  O268  1  0.24307690  0.62995861  0.48964785  1
  O  O269  1  0.26132813  0.63949698  0.98660796  1
  O  O270  1  0.74801851  0.12723706  0.48837608  1
  O  O271  1  0.74442458  0.12480198  0.99097696  1
  O  O272  1  0.74749733  0.63691523  0.49831947  1
  O  O273  1  0.74508938  0.63075295  0.99553508  1
  O  O274  1  0.26058493  0.36518898  -0.00488340  1
  O  O275  1  0.25402532  0.37092590  0.50755252  1
  O  O276  1  0.25759571  0.86955972  0.00415598  1
  O  O277  1  0.25470878  0.86927644  0.50371968  1
  O  O278  1  0.75728589  0.37475666  0.00728681  1
  O  O279  1  0.75937869  0.37413596  0.50838670  1
  O  O280  1  0.75474220  0.87019281  0.00446740  1
  O  O281  1  0.75264571  0.86026823  0.50163086  1
  O  O282  1  0.12045862  0.49917633  0.25225596  1
  O  O283  1  0.12768633  0.48831596  0.74861351  1
  O  O284  1  0.13030287  0.99591421  0.24444437  1
  O  O285  1  0.12980684  0.99466432  0.74453208  1
  O  O286  1  0.62974412  0.49594776  0.24521207  1
  O  O287  1  0.62521459  0.49284865  0.74189666  1
  O  O288  1  0.63051015  0.99327656  0.24442577  1
  O  O289  1  0.61727249  0.98724031  0.73987340  1
  O  O290  1  0.36828123  0.00379381  0.25498582  1
  O  O291  1  0.36853907  0.00419693  0.74975408  1
  O  O292  1  0.38078503  0.50993434  0.26097427  1
  O  O293  1  0.37521835  0.51139958  0.75032805  1
  O  O294  1  0.86718680  0.00191394  0.25671869  1
  O  O295  1  0.88049074  0.00621241  0.76224095  1
  O  O296  1  0.86897477  0.51035456  0.25023942  1
  O  O297  1  0.87761661  0.50947155  0.75543802  1
  O  O298  1  0.11272723  0.36905083  0.37959267  1
  O  O299  1  0.12215428  0.37190603  0.86835569  1
  O  O300  1  0.12034334  0.87087996  0.36948921  1
  O  O301  1  0.11769535  0.87324924  0.86669363  1
  O  O302  1  0.62701238  0.36586393  0.37042265  1
  O  O303  1  0.61695531  0.37472057  0.87031570  1
  O  O304  1  0.61969453  0.86598844  0.37035047  1
  O  O305  1  0.62458857  0.86816472  0.86621300  1
  O  O306  1  0.38169768  0.12488849  0.13158882  1
  O  O307  1  0.38219306  0.12563799  0.63152245  1
  O  O308  1  0.37926715  0.62909503  0.13119363  1
  O  O309  1  0.36562634  0.63228009  0.63587320  1
  O  O310  1  0.88201129  0.13162043  0.12446316  1
  O  O311  1  0.87034120  0.11651284  0.64257944  1
  O  O312  1  0.88069723  0.63112919  0.13226940  1
  O  O313  1  0.86883378  0.63429484  0.63663790  1
  O  O314  1  0.25233328  0.24491646  0.10930034  1
  O  O315  1  0.25178015  0.26096327  0.61910618  1
  O  O316  1  0.25482550  0.75454338  0.11642881  1
  O  O317  1  0.25633940  0.75704909  0.61812063  1
  O  O318  1  0.75731679  0.25671339  0.12497934  1
  O  O319  1  0.74093173  0.26353623  0.62414078  1
  O  O320  1  0.75383802  0.75660843  0.11827501  1
  O  O321  1  0.75862124  0.75086314  0.61737649  1
  O  O322  1  0.24446594  0.24294899  0.38252967  1
  O  O323  1  0.24470906  0.24360818  0.88443312  1
  O  O324  1  0.24449363  0.74128296  0.38035907  1
  O  O325  1  0.24736216  0.74508846  0.88096197  1
  O  O326  1  0.74287025  0.24063438  0.37410331  1
  O  O327  1  0.74886022  0.23652096  0.87986746  1
  O  O328  1  0.74021353  0.74935596  0.38258692  1
  O  O329  1  0.74458157  0.74366807  0.88062552  1
  O  O330  1  0.00599561  0.12056018  0.00410690  1
  O  O331  1  0.00621726  0.11805900  0.49899463  1
  O  O332  1  -0.00916302  0.61712809  0.00873376  1
  O  O333  1  0.00991994  0.61620619  0.49276816  1
  O  O334  1  0.50477078  0.11884191  0.00500357  1
  O  O335  1  0.50158349  0.11701033  0.50704172  1
  O  O336  1  0.50537912  0.62519587  0.00453972  1
  O  O337  1  0.49997150  0.61118524  0.49805640  1
  O  O338  1  0.49302812  0.38514617  0.49797961  1
  O  O339  1  0.49287318  0.37242219  0.99166048  1
  O  O340  1  0.49279654  0.87920914  0.49369243  1
  O  O341  1  0.48979466  0.87933406  1.00033772  1
  O  O342  1  0.99357333  0.38156374  0.49429111  1
  O  O343  1  0.99451331  0.38410879  0.99510590  1
  O  O344  1  0.99954105  0.88228350  0.49225742  1
  O  O345  1  0.99411441  0.88025496  0.99403397  1
  O  O346  1  0.48869497  0.49899096  0.38425890  1
  O  O347  1  0.49895762  0.48661548  0.87605683  1
  O  O348  1  0.49432093  0.99369335  0.37982325  1
  O  O349  1  0.49671820  0.99543820  0.88330247  1
  O  O350  1  0.99574329  0.49097796  0.38725167  1
  O  O351  1  0.99400502  0.49601336  0.88230225  1
  O  O352  1  0.99476406  0.99555360  0.37923501  1
  O  O353  1  0.99201450  0.99437682  0.88041113  1
  O  O354  1  0.00479539  0.00597134  0.11896380  1
  O  O355  1  0.00627747  0.00331741  0.61768078  1
  O  O356  1  -0.00201687  0.51058851  0.11524017  1
  O  O357  1  0.00372077  0.49435849  0.61171041  1
  O  O358  1  0.50613518  0.00501155  0.11872749  1
  O  O359  1  0.50770525  0.00380161  0.61935006  1
  O  O360  1  0.50747614  0.50762191  0.12293015  1
  O  O361  1  0.51038920  0.49254810  0.61597161  1
  O  O362  1  0.24685025  0.35954387  0.24449775  1
  O  O363  1  0.24437480  0.37539853  0.74425354  1
  O  O364  1  0.24484687  0.88069148  0.24386711  1
  O  O365  1  0.24547818  0.87875395  0.74384695  1
  O  O366  1  0.74540790  0.38132752  0.24470748  1
  O  O367  1  0.74518983  0.37628826  0.74384385  1
  O  O368  1  0.74388560  0.87981260  0.24369993  1
  O  O369  1  0.73535512  0.86553841  0.74756506  1
  O  O370  1  0.25468018  0.12000285  0.25581407  1
  O  O371  1  0.25432665  0.11985717  0.75403169  1
  O  O372  1  0.25888268  0.63055335  0.26136328  1
  O  O373  1  0.26002381  0.62641588  0.75700943  1
  O  O374  1  0.75024088  0.11761828  0.25982912  1
  O  O375  1  0.76184683  0.12691120  0.76149956  1
  O  O376  1  0.75873711  0.61990060  0.24869495  1
  O  O377  1  0.76244723  0.62402483  0.75751792  1
  O  O378  1  0.36983463  0.11743636  0.37050510  1
  O  O379  1  0.36800238  0.12300317  0.86816039  1
  O  O380  1  0.36703754  0.61883750  0.36827137  1
  O  O381  1  0.36688095  0.62705910  0.86222933  1
  O  O382  1  0.86449253  0.11932805  0.37355959  1
  O  O383  1  0.86921535  0.11706699  0.86934174  1
  O  O384  1  0.87312978  0.62564122  0.36239846  1
  O  O385  1  0.87015053  0.62057622  0.86701087  1
  O  O386  1  0.13031687  0.38366555  0.13044841  1
  O  O387  1  0.13478125  0.37512022  0.63436685  1
  O  O388  1  0.12961180  0.88188911  0.12968817  1
  O  O389  1  0.13089226  0.88082292  0.62954230  1
  O  O390  1  0.63059160  0.38018420  0.13042936  1
  O  O391  1  0.63244244  0.38345896  0.63031808  1
  O  O392  1  0.63017628  0.87990456  0.12880960  1
  O  O393  1  0.62551551  0.88130781  0.63234749  1
  O  O394  1  0.11523029  0.24995244  0.26008629  1
  O  O395  1  0.12782321  0.26170555  0.75814776  1
  O  O396  1  0.12443289  0.75808583  0.25669878  1
  O  O397  1  0.11525922  0.75535921  0.74680323  1
  O  O398  1  0.62525836  0.25578821  0.26053679  1
  O  O399  1  0.61799592  0.25655898  0.75435162  1
  O  O400  1  0.62459178  0.75591708  0.25888344  1
  O  O401  1  0.61821591  0.75341199  0.75213434  1
  O  O402  1  0.38013324  0.23888291  0.25041454  1
  O  O403  1  0.38228823  0.24191782  0.74789386  1
  O  O404  1  0.37492799  0.73926978  0.24356497  1
  O  O405  1  0.38290436  0.74477073  0.74368062  1
  O  O406  1  0.88206670  0.24854649  0.24327603  1
  O  O407  1  0.87627606  0.23472094  0.75626558  1
  O  O408  1  0.87328342  0.74238539  0.24263447  1
  O  O409  1  0.88212900  0.74312082  0.74387862  1
  O  O410  1  0.38125500  0.49682804  0.49425743  1
  O  O411  1  0.37960000  0.48750283  0.99466025  1
  O  O412  1  0.37888489  0.99280203  0.49375492  1
  O  O413  1  0.37877125  0.98975362  1.00046620  1
  O  O414  1  0.88244488  0.49322139  0.50061597  1
  O  O415  1  0.88216450  0.49417632  0.99400430  1
  O  O416  1  0.88133655  0.99763682  0.49342217  1
  O  O417  1  0.88112427  0.99443666  0.99113950  1
  O  O418  1  0.11989877  0.00524396  0.00472049  1
  O  O419  1  0.12033231  0.00550586  0.50430829  1
  O  O420  1  0.10948000  0.49820236  -0.00391280  1
  O  O421  1  0.11649865  0.50865634  0.50050542  1
  O  O422  1  0.61958152  0.00383557  0.00561338  1
  O  O423  1  0.61684338  -0.00146136  0.50854557  1
  O  O424  1  0.62401616  0.50764926  0.00719394  1
  O  O425  1  0.61692138  0.50097493  0.50701489  1
  O  O426  1  0.37541132  0.37333603  0.11315100  1
  O  O427  1  0.36561098  0.37374778  0.62034263  1
  O  O428  1  0.36884055  0.87053955  0.11716355  1
  O  O429  1  0.36998351  0.86870552  0.61769015  1
  O  O430  1  0.87096192  0.37116859  0.12063827  1
  O  O431  1  0.86460405  0.38091092  0.61798858  1
  O  O432  1  0.86935922  0.87142159  0.11887383  1
  O  O433  1  0.87212434  0.86234751  0.62460970  1
  O  O434  1  0.13075414  0.12966330  0.38131363  1
  O  O435  1  0.12936858  0.13002457  0.88015029  1
  O  O436  1  0.13178889  0.63045097  0.38283160  1
  O  O437  1  0.13982147  0.62853217  0.86573090  1
  O  O438  1  0.63394549  0.13123540  0.37568549  1
  O  O439  1  0.63492312  0.12137351  0.87901940  1
  O  O440  1  0.62362607  0.63772707  0.37511045  1
  O  O441  1  0.63044471  0.62946228  0.87926341  1
