# generated using pymatgen
data_V93Zn93O256
_symmetry_space_group_name_H-M   'P 1'
_cell_length_a   17.04809640
_cell_length_b   17.04910503
_cell_length_c   17.04760682
_cell_angle_alpha   90.00085001
_cell_angle_beta   90.03757960
_cell_angle_gamma   89.99334514
_symmetry_Int_Tables_number   1
_chemical_formula_structural   V93Zn93O256
_chemical_formula_sum   'V93 Zn93 O256'
_cell_volume   4954.96741352
_cell_formula_units_Z   1
loop_
 _symmetry_equiv_pos_site_id
 _symmetry_equiv_pos_as_xyz
  1  'x, y, z'
loop_
 _atom_site_type_symbol
 _atom_site_label
 _atom_site_symmetry_multiplicity
 _atom_site_fract_x
 _atom_site_fract_y
 _atom_site_fract_z
 _atom_site_occupancy
  V  V0  1  0.62543829  0.37627723  0.24868823  1
  V  V1  1  0.50160055  0.24798892  0.25207478  1
  V  V2  1  0.24237278  0.87832828  0.12574878  1
  V  V3  1  0.37623341  0.37458152  0.00001943  1
  V  V4  1  0.00423715  0.12213876  0.12617453  1
  V  V5  1  0.12319566  0.50255812  0.62249558  1
  V  V6  1  0.12451859  0.37557524  0.75060325  1
  V  V7  1  0.50023287  0.62458978  0.12398539  1
  V  V8  1  0.62727135  0.12403309  0.00105282  1
  V  V9  1  0.12016800  0.00862173  0.62634008  1
  V  V10  1  0.37729754  0.24786089  0.12821351  1
  V  V11  1  0.49783072  0.87607195  0.37429714  1
  V  V12  1  0.75110593  0.12460184  0.87577295  1
  V  V13  1  0.37615517  0.87570670  0.00024984  1
  V  V14  1  0.74977900  -0.00170846  0.75067242  1
  V  V15  1  0.12594040  0.24947778  0.37584031  1
  V  V16  1  0.50058233  -0.00009201  0.00179249  1
  V  V17  1  0.37541333  0.49938407  0.87338186  1
  V  V18  1  0.49908774  0.75199589  0.74929972  1
  V  V19  1  0.25008736  0.62457256  0.87437328  1
  V  V20  1  -0.00003576  0.87426924  0.87721030  1
  V  V21  1  0.37671962  -0.00028301  0.87609875  1
  V  V22  1  0.87709925  0.24936821  0.12464840  1
  V  V23  1  0.87472321  0.49808637  0.87402741  1
  V  V24  1  0.87537524  0.62512701  0.24970909  1
  V  V25  1  0.62509031  0.87515143  0.25009128  1
  V  V26  1  0.50142003  0.37432877  0.87396233  1
  V  V27  1  0.63144840  0.13143969  0.49704854  1
  V  V28  1  0.24914287  0.49985450  0.74838053  1
  V  V29  1  0.12986337  0.49974059  0.12805748  1
  V  V30  1  0.25217376  0.37749188  0.12907937  1
  V  V31  1  0.49851100  0.75044774  0.24991671  1
  V  V32  1  0.24956840  0.24894882  0.49920655  1
  V  V33  1  0.25029112  0.00019902  0.75001608  1
  V  V34  1  0.88046644  0.24685093  0.62387435  1
  V  V35  1  0.62280376  0.62562192  0.49915742  1
  V  V36  1  0.74801731  0.75028659  0.50102101  1
  V  V37  1  0.87378334  0.62315093  0.74967270  1
  V  V38  1  0.62272719  0.75113671  0.37615556  1
  V  V39  1  0.62488378  0.49965365  0.62531204  1
  V  V40  1  0.49768366  0.50063823  0.49767639  1
  V  V41  1  0.74880404  0.36824172  0.62252183  1
  V  V42  1  0.87512872  0.12369695  0.24988851  1
  V  V43  1  0.49787562  0.00088594  0.49960484  1
  V  V44  1  0.37592132  0.12514261  0.75068975  1
  V  V45  1  0.86852221  0.36877892  0.49811541  1
  V  V46  1  -0.00194530  0.74977547  0.74871947  1
  V  V47  1  0.88260298  0.12488754  0.74697802  1
  V  V48  1  0.12525319  0.74929272  0.87439789  1
  V  V49  1  0.00118472  0.37205089  0.87362051  1
  V  V50  1  0.87205633  0.87503398  0.50274555  1
  V  V51  1  0.24050766  0.75163935  0.49246573  1
  V  V52  1  0.12588197  0.62338430  -0.00011496  1
  V  V53  1  0.12723132  0.12094890  0.00493350  1
  V  V54  1  0.00177077  0.24849946  0.25005981  1
  V  V55  1  0.37302334  0.00794852  0.36973714  1
  V  V56  1  0.49919495  0.37639270  0.37338581  1
  V  V57  1  0.49957283  0.12543336  0.62469595  1
  V  V58  1  0.87659588  0.37298209  -0.00036246  1
  V  V59  1  0.62597883  0.74785268  0.87582164  1
  V  V60  1  0.37273236  0.87566078  0.49831513  1
  V  V61  1  0.62617192  0.24921023  0.87507527  1
  V  V62  1  0.75205670  0.37452968  0.12476526  1
  V  V63  1  0.37463125  0.75075007  0.12492898  1
  V  V64  1  0.50121307  0.25008018  0.75085235  1
  V  V65  1  0.00579248  0.87003923  0.37458513  1
  V  V66  1  0.37506691  0.37593237  0.49860354  1
  V  V67  1  0.87861254  0.74912733  0.12613467  1
  V  V68  1  0.74995807  0.49931519  0.24888612  1
  V  V69  1  0.87429353  0.49947930  0.37468069  1
  V  V70  1  0.24818542  0.87578585  0.62391151  1
  V  V71  1  -0.00087936  0.49988321  0.50036103  1
  V  V72  1  0.24090695  0.62308670  0.36965021  1
  V  V73  1  0.62426284  -0.00009467  0.62607770  1
  V  V74  1  -0.00143986  0.00802990  0.50522874  1
  V  V75  1  0.37254754  0.75045199  0.62359847  1
  V  V76  1  0.50177193  0.50155126  -0.00045582  1
  V  V77  1  0.87230157  0.00191802  0.37519390  1
  V  V78  1  0.24506638  0.00639867  0.24650718  1
  V  V79  1  0.25129279  0.12496034  0.87662931  1
  V  V80  1  0.00416852  -0.00186673  0.00637853  1
  V  V81  1  0.87631551  0.87407957  0.00084740  1
  V  V82  1  0.00228183  0.49841600  -0.00063063  1
  V  V83  1  0.25083451  0.75068812  -0.00033298  1
  V  V84  1  0.12649333  0.24935195  0.87502887  1
  V  V85  1  0.12441193  0.87522842  0.75057144  1
  V  V86  1  0.37183476  0.61886765  0.25105263  1
  V  V87  1  0.37320247  0.62581891  0.74794606  1
  V  V88  1  0.12724724  0.37647738  0.24948542  1
  V  V89  1  0.49973163  0.12400204  0.12944026  1
  V  V90  1  0.75016315  0.87528180  0.12659550  1
  V  V91  1  -0.00007256  0.37463041  0.37450050  1
  V  V92  1  0.37464960  0.25132426  0.62463258  1
  Zn  Zn93  1  0.12755767  0.87094102  0.25384883  1
  Zn  Zn94  1  0.75212986  0.24857233  -0.00002331  1
  Zn  Zn95  1  -0.00207583  0.62836697  0.62129422  1
  Zn  Zn96  1  0.50197494  0.87579253  0.87670948  1
  Zn  Zn97  1  0.62684146  0.50159489  0.12276440  1
  Zn  Zn98  1  0.62645497  0.00001497  0.12704931  1
  Zn  Zn99  1  0.74847501  0.62473917  0.37458777  1
  Zn  Zn100  1  0.74665805  0.87386738  0.62716457  1
  Zn  Zn101  1  0.00687761  0.74415160  0.25726300  1
  Zn  Zn102  1  0.75278537  0.13352381  0.37492035  1
  Zn  Zn103  1  0.11874907  0.63176544  0.49327630  1
  Zn  Zn104  1  0.87624041  -0.00002750  0.87560136  1
  Zn  Zn105  1  0.12010210  0.12953533  0.50273239  1
  Zn  Zn106  1  0.75019930  0.74720927  -0.00214045  1
  Zn  Zn107  1  0.87328173  0.74748167  0.62561206  1
  Zn  Zn108  1  0.62844766  0.62384004  0.00114644  1
  Zn  Zn109  1  0.00474962  0.24405825  0.74604781  1
  Zn  Zn110  1  0.25014909  0.12714720  0.37082453  1
  Zn  Zn111  1  0.25218012  0.24820911  0.00125405  1
  Zn  Zn112  1  0.00300907  0.62449457  0.12561591  1
  Zn  Zn113  1  0.62512255  0.87456088  0.75040579  1
  Zn  Zn114  1  0.74864371  0.62102243  0.87754856  1
  Zn  Zn115  1  0.63513813  0.25707080  0.38096729  1
  Zn  Zn116  1  0.24969667  0.37660124  0.62369658  1
  Zn  Zn117  1  0.36979053  0.49924182  0.37178373  1
  Zn  Zn118  1  0.49707043  0.62502945  0.62224707  1
  Zn  Zn119  1  0.62725005  0.37490138  0.75049845  1
  Zn  Zn120  1  0.74759315  0.00144456  0.25225798  1
  Zn  Zn121  1  0.74877982  0.49900334  0.75113246  1
  Zn  Zn122  1  0.18868824  0.18984982  0.18678828  1
  Zn  Zn123  1  0.19022564  0.18930919  0.68842266  1
  Zn  Zn124  1  0.18560408  0.69181241  0.18893821  1
  Zn  Zn125  1  0.18609531  0.68777161  0.68478885  1
  Zn  Zn126  1  0.68903943  0.18836223  0.18960455  1
  Zn  Zn127  1  0.69014353  0.18629215  0.68739192  1
  Zn  Zn128  1  0.68759230  0.68798342  0.18717558  1
  Zn  Zn129  1  0.68710489  0.68530452  0.68808244  1
  Zn  Zn130  1  0.31425669  0.31217088  0.31198959  1
  Zn  Zn131  1  0.31138337  0.31270714  0.81206699  1
  Zn  Zn132  1  0.31104715  0.81280312  0.31132636  1
  Zn  Zn133  1  0.31307784  0.81409201  0.81314611  1
  Zn  Zn134  1  0.81095448  0.30979095  0.31116696  1
  Zn  Zn135  1  0.81182238  0.31118402  0.80921879  1
  Zn  Zn136  1  0.81336890  0.81209539  0.31379235  1
  Zn  Zn137  1  0.81258986  0.81123254  0.81442263  1
  Zn  Zn138  1  0.18788332  0.43880546  0.43684795  1
  Zn  Zn139  1  0.19010271  0.43535647  0.93948021  1
  Zn  Zn140  1  0.18701098  0.94238055  0.43860644  1
  Zn  Zn141  1  0.18840616  0.93778861  0.93800866  1
  Zn  Zn142  1  0.68645794  0.43869450  0.43598861  1
  Zn  Zn143  1  0.68880306  0.43651614  0.93843327  1
  Zn  Zn144  1  0.68533615  0.94024117  0.43880213  1
  Zn  Zn145  1  0.68660139  0.93474652  0.93794466  1
  Zn  Zn146  1  0.31502374  0.06219611  0.06493418  1
  Zn  Zn147  1  0.31118029  0.06364287  0.56185308  1
  Zn  Zn148  1  0.31431465  0.56230375  0.06185410  1
  Zn  Zn149  1  0.30907682  0.56495884  0.55831215  1
  Zn  Zn150  1  0.81594033  0.06082290  0.06263033  1
  Zn  Zn151  1  0.81141169  0.06296164  0.56599721  1
  Zn  Zn152  1  0.81194540  0.56229660  0.06050055  1
  Zn  Zn153  1  0.81087066  0.56081405  0.56305556  1
  Zn  Zn154  1  0.43948048  0.43805020  0.18617585  1
  Zn  Zn155  1  0.43825829  0.43643546  0.68604396  1
  Zn  Zn156  1  0.43246360  0.93839490  0.18867232  1
  Zn  Zn157  1  0.43668065  0.93675409  0.68634044  1
  Zn  Zn158  1  0.94020302  0.43780451  0.18642013  1
  Zn  Zn159  1  0.93798039  0.43574975  0.68694455  1
  Zn  Zn160  1  0.93728407  0.93771619  0.18941794  1
  Zn  Zn161  1  0.93683807  0.93695358  0.68818967  1
  Zn  Zn162  1  0.06472354  0.06080401  0.31591487  1
  Zn  Zn163  1  0.06337396  0.06020980  0.81818493  1
  Zn  Zn164  1  0.06104441  0.56000980  0.31048778  1
  Zn  Zn165  1  0.05993369  0.56211146  0.81111139  1
  Zn  Zn166  1  0.56327739  0.06121847  0.31275680  1
  Zn  Zn167  1  0.56340921  0.06309417  0.81431777  1
  Zn  Zn168  1  0.56177552  0.56266079  0.31201695  1
  Zn  Zn169  1  0.56092691  0.56470656  0.81060088  1
  Zn  Zn170  1  0.43972643  0.18831125  0.43775983  1
  Zn  Zn171  1  0.44013216  0.18708382  0.94028046  1
  Zn  Zn172  1  0.43289002  0.68741345  0.43631014  1
  Zn  Zn173  1  0.43858021  0.68715456  0.93653095  1
  Zn  Zn174  1  0.93622483  0.18905163  0.43665946  1
  Zn  Zn175  1  0.93901561  0.18604454  0.93533492  1
  Zn  Zn176  1  0.93493887  0.68632932  0.43829628  1
  Zn  Zn177  1  0.93758888  0.68523860  0.93740094  1
  Zn  Zn178  1  0.06434671  0.30984520  0.06096927  1
  Zn  Zn179  1  0.06094279  0.31602111  0.56257204  1
  Zn  Zn180  1  0.06356650  0.80986171  0.06455946  1
  Zn  Zn181  1  0.05960495  0.81753763  0.56461106  1
  Zn  Zn182  1  0.56562897  0.31321371  0.06114479  1
  Zn  Zn183  1  0.56015473  0.31375576  0.56239602  1
  Zn  Zn184  1  0.56290780  0.81101312  0.06198660  1
  Zn  Zn185  1  0.56072732  0.81483863  0.56417115  1
  O  O186  1  0.12046438  0.13131437  0.11294089  1
  O  O187  1  0.12862498  0.11206980  0.62663294  1
  O  O188  1  0.12779338  0.61490095  0.11924472  1
  O  O189  1  0.12206975  0.61266929  0.62279570  1
  O  O190  1  0.61595789  0.12436572  0.12039978  1
  O  O191  1  0.61958338  0.12017415  0.61648092  1
  O  O192  1  0.61547436  0.62407353  0.12444740  1
  O  O193  1  0.62331447  0.61489935  0.61809256  1
  O  O194  1  0.38053228  0.37858010  0.37933203  1
  O  O195  1  0.38060844  0.37967935  0.87938076  1
  O  O196  1  0.37925290  0.88329284  0.37989054  1
  O  O197  1  0.37605089  0.88209730  0.88239863  1
  O  O198  1  0.87962179  0.37888067  0.38100046  1
  O  O199  1  0.88116593  0.37750082  0.87939238  1
  O  O200  1  0.87968731  0.88384639  0.38513147  1
  O  O201  1  0.88270519  0.87494591  0.88296349  1
  O  O202  1  0.25635544  0.00099276  0.36589608  1
  O  O203  1  0.25610326  0.00523770  0.86937249  1
  O  O204  1  0.25214971  0.51795008  0.38035688  1
  O  O205  1  0.25573778  0.50475900  0.86965756  1
  O  O206  1  0.76299844  0.00291415  0.37714556  1
  O  O207  1  0.75116723  0.00467150  0.86607396  1
  O  O208  1  0.75678585  0.50166355  0.36751198  1
  O  O209  1  0.75901882  0.49910689  0.87167029  1
  O  O210  1  0.24122274  0.48950838  0.11791565  1
  O  O211  1  0.24023674  0.49968398  0.62884030  1
  O  O212  1  0.25983883  0.99265557  0.13906889  1
  O  O213  1  0.24217590  0.99536326  0.62986641  1
  O  O214  1  0.75112240  0.49236772  0.13166717  1
  O  O215  1  0.73911798  0.49024865  0.62383982  1
  O  O216  1  0.75230225  0.98530384  0.12728015  1
  O  O217  1  0.74338111  0.99948150  0.63586458  1
  O  O218  1  0.00603312  0.36863152  0.25536517  1
  O  O219  1  0.00752543  0.37338457  0.75740136  1
  O  O220  1  -0.00188420  0.87911927  0.26805461  1
  O  O221  1  0.00466541  0.87070511  0.75701216  1
  O  O222  1  0.50531754  0.36803279  0.25285060  1
  O  O223  1  0.50163655  0.36766108  0.75622143  1
  O  O224  1  0.50351993  0.86967442  0.25410300  1
  O  O225  1  0.49825135  0.86262990  0.75145068  1
  O  O226  1  0.50744896  0.13503970  0.24037162  1
  O  O227  1  0.49458350  0.12982452  0.74492064  1
  O  O228  1  0.49112567  0.63156279  0.24548883  1
  O  O229  1  0.49146716  0.63617087  0.74638805  1
  O  O230  1  0.99723788  0.12806336  0.24571900  1
  O  O231  1  0.98658810  0.12183345  0.75633374  1
  O  O232  1  0.98715195  0.62408973  0.24758827  1
  O  O233  1  0.99042558  0.63138344  0.74902212  1
  O  O234  1  0.37774393  0.25641527  0.01149992  1
  O  O235  1  0.36865829  0.25529207  0.50401788  1
  O  O236  1  0.36950968  0.75474831  0.00417380  1
  O  O237  1  0.36515881  0.75674537  0.50440418  1
  O  O238  1  0.87700380  0.25489975  0.00703278  1
  O  O239  1  0.87995244  0.26123842  0.50697667  1
  O  O240  1  0.87601187  0.75501028  0.00983959  1
  O  O241  1  0.86471524  0.75808244  0.49954202  1
  O  O242  1  0.13236696  0.25221721  0.49640746  1
  O  O243  1  0.12765813  0.23798568  0.99391072  1
  O  O244  1  0.13648596  0.75114136  0.50726155  1
  O  O245  1  0.13108507  0.74355156  0.99436136  1
  O  O246  1  0.61773166  0.23458030  0.50102033  1
  O  O247  1  0.62755999  0.24228696  0.99320639  1
  O  O248  1  0.62957059  0.74719442  0.49595755  1
  O  O249  1  0.62405372  0.74759269  0.98802924  1
  O  O250  1  0.49573643  0.24457249  0.13164229  1
  O  O251  1  0.49374633  0.24510842  0.63067243  1
  O  O252  1  0.49337331  0.74525325  0.13031029  1
  O  O253  1  0.49208879  0.74961460  0.63258594  1
  O  O254  1  0.99721819  0.24363014  0.13138664  1
  O  O255  1  0.98586502  0.25660402  0.62787619  1
  O  O256  1  0.98715901  0.74886723  0.12710025  1
  O  O257  1  0.99596465  0.74991010  0.63258617  1
  O  O258  1  0.00545884  0.25573957  0.36981813  1
  O  O259  1  0.00908716  0.25490298  0.87277634  1
  O  O260  1  -0.00858964  0.76714684  0.37810797  1
  O  O261  1  0.00674738  0.75479193  0.87019772  1
  O  O262  1  0.49981058  0.25579966  0.36458451  1
  O  O263  1  0.50552792  0.25407033  0.87019315  1
  O  O264  1  0.50279763  0.75705985  0.37045494  1
  O  O265  1  0.50550903  0.75061360  0.86502148  1
  O  O266  1  0.24826332  0.13983200  0.49929624  1
  O  O267  1  0.24304714  0.12321915  0.99623897  1
  O  O268  1  0.24659166  0.63462737  0.48708220  1
  O  O269  1  0.24632987  0.63038069  0.99356035  1
  O  O270  1  0.73358369  0.11928317  0.50148459  1
  O  O271  1  0.74600833  0.12422475  0.99465574  1
  O  O272  1  0.74379553  0.63460068  0.49817435  1
  O  O273  1  0.74737918  0.62937133  0.99629811  1
  O  O274  1  0.25713492  0.37076964  0.01105127  1
  O  O275  1  0.25538662  0.36391902  0.49889149  1
  O  O276  1  0.25638301  0.87141355  0.00561871  1
  O  O277  1  0.25288552  0.87005627  0.50324378  1
  O  O278  1  0.75921732  0.37217573  0.00679214  1
  O  O279  1  0.76016087  0.38083930  0.50786915  1
  O  O280  1  0.75707918  0.87184858  0.00995251  1
  O  O281  1  0.75630406  0.86847267  0.49990077  1
  O  O282  1  0.11961557  0.49252936  0.23608931  1
  O  O283  1  0.12934762  0.49625526  0.74248166  1
  O  O284  1  0.14110176  0.99223431  0.25760574  1
  O  O285  1  0.12966156  0.99531550  0.74562305  1
  O  O286  1  0.63175709  0.49421896  0.24798858  1
  O  O287  1  0.62358151  0.49909587  0.73668248  1
  O  O288  1  0.62754310  0.99110763  0.24755644  1
  O  O289  1  0.63413655  1.00162494  0.74540248  1
  O  O290  1  0.36250228  -0.00557973  0.26163803  1
  O  O291  1  0.37004009  0.00564070  0.75472522  1
  O  O292  1  0.37746342  0.51497335  0.24813350  1
  O  O293  1  0.36989221  0.50522089  0.75351363  1
  O  O294  1  0.87556769  0.00489915  0.26132119  1
  O  O295  1  0.86681820  0.00700335  0.74965051  1
  O  O296  1  0.87140122  0.50647940  0.25376746  1
  O  O297  1  0.87668055  0.50756708  0.75501700  1
  O  O298  1  0.12011750  0.37065532  0.36920223  1
  O  O299  1  0.12185950  0.36961263  0.87106613  1
  O  O300  1  0.10705753  0.88148825  0.38089417  1
  O  O301  1  0.12108460  0.86882812  0.87038052  1
  O  O302  1  0.61683858  0.37500770  0.36841786  1
  O  O303  1  0.61889782  0.36787469  0.87328914  1
  O  O304  1  0.61748805  0.87150260  0.37084740  1
  O  O305  1  0.62132624  0.86391861  0.87114582  1
  O  O306  1  0.38808779  0.13641043  0.11877132  1
  O  O307  1  0.37971719  0.13029459  0.63073142  1
  O  O308  1  0.37752436  0.63127705  0.13198965  1
  O  O309  1  0.37306022  0.63219784  0.63032381  1
  O  O310  1  0.88419194  0.12911901  0.13009863  1
  O  O311  1  0.86767456  0.13581967  0.63404786  1
  O  O312  1  0.87626145  0.63247580  0.13321859  1
  O  O313  1  0.87649480  0.62463068  0.63532443  1
  O  O314  1  0.26153039  0.25681941  0.12413719  1
  O  O315  1  0.25578499  0.25278410  0.61616702  1
  O  O316  1  0.25578975  0.75836294  0.11818260  1
  O  O317  1  0.25355948  0.75644817  0.61721931  1
  O  O318  1  0.75969139  0.25618401  0.12484345  1
  O  O319  1  0.75994418  0.26104413  0.62861360  1
  O  O320  1  0.76116588  0.75935308  0.12634477  1
  O  O321  1  0.74924277  0.75257576  0.61270069  1
  O  O322  1  0.24585617  0.24941640  0.38179122  1
  O  O323  1  0.24576250  0.24254777  0.87802114  1
  O  O324  1  0.25452902  0.74122251  0.38436938  1
  O  O325  1  0.24481250  0.74498455  0.87967070  1
  O  O326  1  0.74706418  0.24612227  0.37424126  1
  O  O327  1  0.74431058  0.24261775  0.87559099  1
  O  O328  1  0.74273115  0.75056483  0.38594133  1
  O  O329  1  0.73782105  0.74782941  0.87436266  1
  O  O330  1  0.00782217  0.11659867  0.00444520  1
  O  O331  1  -0.00175577  0.11160018  0.49745814  1
  O  O332  1  0.00858249  0.61733009  0.00151005  1
  O  O333  1  0.00148483  0.61732272  0.50012087  1
  O  O334  1  0.50695165  0.11988699  0.00955974  1
  O  O335  1  0.50655700  0.11930906  0.50633452  1
  O  O336  1  0.49816307  0.61835039  0.00675822  1
  O  O337  1  0.50429647  0.62012223  0.50070006  1
  O  O338  1  0.49438034  0.37981309  0.49284068  1
  O  O339  1  0.49526799  0.38044076  0.99383389  1
  O  O340  1  0.49303988  0.88128195  0.49434998  1
  O  O341  1  0.49285736  0.88187096  1.00162032  1
  O  O342  1  0.98941045  0.38035390  0.49342361  1
  O  O343  1  0.99672526  0.37864563  0.99389316  1
  O  O344  1  0.99041577  0.88355510  0.49242865  1
  O  O345  1  0.99796871  0.88096183  0.99798845  1
  O  O346  1  0.49673209  0.49392560  0.38027869  1
  O  O347  1  0.49381399  0.49485592  0.87803261  1
  O  O348  1  0.49124144  0.99540379  0.37867294  1
  O  O349  1  0.49401155  0.99959575  0.88245233  1
  O  O350  1  0.99429134  0.49302382  0.37966639  1
  O  O351  1  0.99629562  0.49208007  0.88052956  1
  O  O352  1  0.98982823  0.99239637  0.38523160  1
  O  O353  1  0.99942282  0.99203526  0.88770249  1
  O  O354  1  -0.00308849  0.00400653  0.11426140  1
  O  O355  1  0.00883780  -0.00793573  0.61654439  1
  O  O356  1  0.01236559  0.49894939  0.11728151  1
  O  O357  1  0.00811605  0.49958855  0.61857190  1
  O  O358  1  0.49806394  0.00987593  0.12235518  1
  O  O359  1  0.50298654  0.00603374  0.62040406  1
  O  O360  1  0.50032625  0.50650042  0.11709110  1
  O  O361  1  0.50950989  0.49970555  0.61741219  1
  O  O362  1  0.24533992  0.36934564  0.23643066  1
  O  O363  1  0.24346600  0.38260299  0.74824892  1
  O  O364  1  0.24970842  0.88201256  0.24118690  1
  O  O365  1  0.24459790  0.88083125  0.74498930  1
  O  O366  1  0.74610886  0.38068682  0.24386433  1
  O  O367  1  0.74814535  0.37856474  0.73699563  1
  O  O368  1  0.74510947  0.87485753  0.24289499  1
  O  O369  1  0.75097820  0.88702313  0.74881900  1
  O  O370  1  0.24634635  0.11050459  0.24834397  1
  O  O371  1  0.25687390  0.11942117  0.75618675  1
  O  O372  1  0.25790389  0.63484120  0.26254097  1
  O  O373  1  0.25355434  0.62009565  0.75545704  1
  O  O374  1  0.75940318  0.11998544  0.25039334  1
  O  O375  1  0.75815050  0.11575557  0.75509440  1
  O  O376  1  0.76067402  0.62013158  0.25063076  1
  O  O377  1  0.76188068  0.62186168  0.75190977  1
  O  O378  1  0.37283939  0.11206738  0.38131784  1
  O  O379  1  0.37143986  0.11994875  0.87092690  1
  O  O380  1  0.36583678  0.62445185  0.36569820  1
  O  O381  1  0.36882400  0.61940803  0.86844273  1
  O  O382  1  0.87678541  0.11601374  0.36975649  1
  O  O383  1  0.86893711  0.12321104  0.86594291  1
  O  O384  1  0.87307402  0.61919681  0.36529083  1
  O  O385  1  0.87642555  0.61717150  0.86547527  1
  O  O386  1  0.13350631  0.37962533  0.12771634  1
  O  O387  1  0.12557726  0.38660727  0.63091619  1
  O  O388  1  0.14080300  0.87663371  0.11851910  1
  O  O389  1  0.12965965  0.88588842  0.63184930  1
  O  O390  1  0.63325794  0.37626112  0.13087742  1
  O  O391  1  0.63224782  0.38175833  0.62243409  1
  O  O392  1  0.63506600  0.87252843  0.13089166  1
  O  O393  1  0.62581106  0.88466883  0.62856118  1
  O  O394  1  0.12066525  0.25614476  0.25513354  1
  O  O395  1  0.12481432  0.25576276  0.75567174  1
  O  O396  1  0.11634914  0.75952343  0.24171227  1
  O  O397  1  0.12012918  0.75549166  0.75489724  1
  O  O398  1  0.61410155  0.25709690  0.25033942  1
  O  O399  1  0.61841039  0.24882257  0.75606808  1
  O  O400  1  0.61848237  0.75523577  0.25652913  1
  O  O401  1  0.61502820  0.74968270  0.75490418  1
  O  O402  1  0.38800224  0.25626184  0.23815134  1
  O  O403  1  0.38015861  0.24413197  0.74524247  1
  O  O404  1  0.38027754  0.74288181  0.24439176  1
  O  O405  1  0.37951622  0.74612903  0.74488758  1
  O  O406  1  0.88425604  0.24381736  0.24443973  1
  O  O407  1  0.87752091  0.24092924  0.74218487  1
  O  O408  1  0.87751278  0.74171386  0.24421786  1
  O  O409  1  0.87945229  0.74112203  0.74960376  1
  O  O410  1  0.38033477  0.49373931  0.49956893  1
  O  O411  1  0.38052450  0.49433100  0.99269982  1
  O  O412  1  0.37742833  0.99466135  0.49308467  1
  O  O413  1  0.38081808  0.99592729  0.99532856  1
  O  O414  1  0.87896534  0.49097384  0.49466609  1
  O  O415  1  0.88297495  0.49290421  0.99479316  1
  O  O416  1  0.87943814  0.99448912  0.49661024  1
  O  O417  1  0.88691405  0.99309816  0.99840462  1
  O  O418  1  0.11689057  0.01032308  -0.00529079  1
  O  O419  1  0.11646153  0.00255140  0.50980479  1
  O  O420  1  0.12225885  0.50354059  0.00737083  1
  O  O421  1  0.11801865  0.49906580  0.50802552  1
  O  O422  1  0.61886606  0.00523252  0.00408222  1
  O  O423  1  0.61697509  0.00834513  0.50557063  1
  O  O424  1  0.61602247  0.50158162  0.00126726  1
  O  O425  1  0.61884130  0.50519280  0.50624924  1
  O  O426  1  0.37002149  0.36883683  0.12082893  1
  O  O427  1  0.37335615  0.36849975  0.61730983  1
  O  O428  1  0.36636184  0.86944287  0.11918175  1
  O  O429  1  0.36707137  0.87144770  0.61827545  1
  O  O430  1  0.87291765  0.36905903  0.12003691  1
  O  O431  1  0.86770223  0.36920355  0.61715222  1
  O  O432  1  0.86978771  0.86713658  0.12285062  1
  O  O433  1  0.87221744  0.87444982  0.61168488  1
  O  O434  1  0.12784293  0.13440594  0.37986810  1
  O  O435  1  0.13163091  0.12889391  0.88365468  1
  O  O436  1  0.13673105  0.62340885  0.37146908  1
  O  O437  1  0.13082830  0.62943184  0.87912185  1
  O  O438  1  0.62349722  0.12381143  0.38994167  1
  O  O439  1  0.63103744  0.12975654  0.88155408  1
  O  O440  1  0.62559625  0.63331730  0.38063404  1
  O  O441  1  0.62518011  0.63529800  0.87483008  1
