# generated using pymatgen
data_V93Zn93O256
_symmetry_space_group_name_H-M   'P 1'
_cell_length_a   17.05301335
_cell_length_b   17.05202593
_cell_length_c   17.04836775
_cell_angle_alpha   89.98977651
_cell_angle_beta   90.04322646
_cell_angle_gamma   90.10437400
_symmetry_Int_Tables_number   1
_chemical_formula_structural   V93Zn93O256
_chemical_formula_sum   'V93 Zn93 O256'
_cell_volume   4957.45830536
_cell_formula_units_Z   1
loop_
 _symmetry_equiv_pos_site_id
 _symmetry_equiv_pos_as_xyz
  1  'x, y, z'
loop_
 _atom_site_type_symbol
 _atom_site_label
 _atom_site_symmetry_multiplicity
 _atom_site_fract_x
 _atom_site_fract_y
 _atom_site_fract_z
 _atom_site_occupancy
  V  V0  1  0.62401902  0.37641257  0.74929594  1
  V  V1  1  0.24848941  0.37383230  0.62420061  1
  V  V2  1  0.75012582  0.50034153  0.24957706  1
  V  V3  1  0.62429597  0.25103233  0.37275341  1
  V  V4  1  0.12486795  0.62201485  0.49884621  1
  V  V5  1  0.25064893  0.25054925  -0.00019481  1
  V  V6  1  0.00063986  0.25147825  0.75297388  1
  V  V7  1  0.74955817  0.12425820  0.37600957  1
  V  V8  1  0.12450901  0.87413785  0.75031659  1
  V  V9  1  0.87571618  0.62675923  0.74931474  1
  V  V10  1  0.00108930  0.00108798  0.00333183  1
  V  V11  1  0.50020940  0.87555396  0.87379321  1
  V  V12  1  0.62400416  -0.00185425  0.62832721  1
  V  V13  1  0.49988463  0.12792759  0.12529948  1
  V  V14  1  0.24935594  0.74910890  0.49785229  1
  V  V15  1  0.88177106  0.75163712  0.13017779  1
  V  V16  1  0.25006134  0.62612585  0.87422261  1
  V  V17  1  0.62622954  0.87558055  0.25022814  1
  V  V18  1  0.49814390  0.12483038  0.62423672  1
  V  V19  1  0.75723073  0.87457211  0.62059664  1
  V  V20  1  0.87633248  0.49913097  0.37387394  1
  V  V21  1  0.75000198  0.37673805  0.12562975  1
  V  V22  1  0.37595559  0.50118579  0.87447381  1
  V  V23  1  0.25099974  0.49804731  0.24997494  1
  V  V24  1  -0.00027168  0.62435966  0.62630486  1
  V  V25  1  0.87462813  0.50207150  0.87649275  1
  V  V26  1  0.00283941  0.36048032  0.37133680  1
  V  V27  1  0.12047079  0.87296737  0.25055558  1
  V  V28  1  0.74907755  0.12545336  0.87716613  1
  V  V29  1  0.87545513  0.37657822  0.00153910  1
  V  V30  1  0.74931104  0.50195868  0.75113889  1
  V  V31  1  0.50068992  0.00103755  -0.00036339  1
  V  V32  1  0.25005185  0.49871719  0.74773190  1
  V  V33  1  0.25077265  0.87703275  0.13040254  1
  V  V34  1  0.25053009  0.37441988  0.12488167  1
  V  V35  1  0.87581883  0.87563550  0.00174367  1
  V  V36  1  0.12629222  0.49974025  0.12575036  1
  V  V37  1  0.62688237  0.74911669  0.37428391  1
  V  V38  1  0.87521825  -0.00575858  0.38394248  1
  V  V39  1  0.62353190  0.12636582  0.49959177  1
  V  V40  1  0.00010947  0.49610029  0.49855468  1
  V  V41  1  0.62498550  0.50182459  0.62489053  1
  V  V42  1  0.37378185  0.24915859  0.62280768  1
  V  V43  1  0.24946101  0.87659304  0.62380560  1
  V  V44  1  0.11854576  0.74631137  0.36766621  1
  V  V45  1  0.75432613  0.00173515  0.24985075  1
  V  V46  1  0.74864231  0.74714098  0.00153345  1
  V  V47  1  0.00025292  0.37557055  0.87549566  1
  V  V48  1  -0.00005362  0.87547048  0.87498841  1
  V  V49  1  0.49880313  0.25126778  0.74880177  1
  V  V50  1  0.74977410  0.25203258  0.00014033  1
  V  V51  1  0.24135010  0.11821281  0.37043790  1
  V  V52  1  0.24183791  0.24706458  0.49283341  1
  V  V53  1  0.75001971  0.37580592  0.62507242  1
  V  V54  1  0.62738832  0.62597605  0.49908314  1
  V  V55  1  0.24965420  0.12499760  0.87518195  1
  V  V56  1  0.37636172  0.74757828  0.12577925  1
  V  V57  1  0.24923415  0.74965870  -0.00001113  1
  V  V58  1  0.87185916  0.25131039  0.62427919  1
  V  V59  1  0.75128729  0.62479922  0.37609216  1
  V  V60  1  0.25081587  0.62310579  0.37334953  1
  V  V61  1  0.88096628  0.24975410  0.13164752  1
  V  V62  1  0.50564753  0.50820676  -0.00004814  1
  V  V63  1  0.49992889  0.37648366  0.87478726  1
  V  V64  1  0.62704029  0.50873293  0.12141292  1
  V  V65  1  0.49653879  -0.00144296  0.49734890  1
  V  V66  1  0.37333639  0.37350915  0.49780152  1
  V  V67  1  0.50001644  0.37395037  0.37351480  1
  V  V68  1  0.37385668  0.11831452  0.25106907  1
  V  V69  1  0.49990915  0.62673464  0.62394809  1
  V  V70  1  0.00115710  0.12313609  0.62402897  1
  V  V71  1  0.12849860  -0.00118241  0.13001020  1
  V  V72  1  0.62526901  0.25106632  0.87510795  1
  V  V73  1  0.49955997  0.49997567  0.49848619  1
  V  V74  1  0.49987432  0.87396373  0.37360197  1
  V  V75  1  0.88045357  0.62694007  0.25061788  1
  V  V76  1  0.37251465  0.12548393  0.74970034  1
  V  V77  1  0.62582060  0.00069902  0.12585239  1
  V  V78  1  0.00063862  0.50134031  0.00086058  1
  V  V79  1  -0.00361456  0.87098146  0.38130848  1
  V  V80  1  0.87328721  0.00125341  0.87904697  1
  V  V81  1  0.74817766  0.62685634  0.87708840  1
  V  V82  1  0.62432107  0.74710360  0.87869908  1
  V  V83  1  0.37470703  0.74945630  0.62329051  1
  V  V84  1  0.37493647  0.37603908  0.00060397  1
  V  V85  1  0.12182867  0.36168331  0.25273880  1
  V  V86  1  0.37448503  0.49886430  0.37310484  1
  V  V87  1  0.87306374  0.12511782  0.75431601  1
  V  V88  1  0.37460417  0.00086272  0.87434583  1
  V  V89  1  0.00165374  0.62655563  0.12930372  1
  V  V90  1  0.12623594  0.12391889  0.00082877  1
  V  V91  1  0.37497420  0.62593248  0.74786966  1
  V  V92  1  0.12606629  0.62481650  0.00031575  1
  Zn  Zn93  1  0.74828624  0.25219291  0.49976641  1
  Zn  Zn94  1  0.00486758  0.13217804  0.13245499  1
  Zn  Zn95  1  0.11987693  0.12323106  0.49426041  1
  Zn  Zn96  1  0.62473477  0.12683122  0.00090881  1
  Zn  Zn97  1  0.50512281  0.62906114  0.12390778  1
  Zn  Zn98  1  0.50085777  0.75158799  0.74849065  1
  Zn  Zn99  1  0.49798741  0.25160118  0.24890343  1
  Zn  Zn100  1  0.74879006  -0.00067969  0.75337495  1
  Zn  Zn101  1  0.37907873  0.62379187  0.24901660  1
  Zn  Zn102  1  0.12487532  0.25038918  0.87638030  1
  Zn  Zn103  1  -0.00165570  0.74932201  0.75234989  1
  Zn  Zn104  1  0.36795820  -0.00527152  0.36846723  1
  Zn  Zn105  1  -0.00204790  -0.00657785  0.50438327  1
  Zn  Zn106  1  0.87996593  0.75578078  0.62063597  1
  Zn  Zn107  1  0.50207769  0.74733662  0.24706829  1
  Zn  Zn108  1  0.12388832  0.00018689  0.62248921  1
  Zn  Zn109  1  0.12517309  0.49630269  0.62581389  1
  Zn  Zn110  1  0.88652452  0.13308829  0.25641774  1
  Zn  Zn111  1  0.12314600  0.74989960  0.87589166  1
  Zn  Zn112  1  0.62320244  0.37680287  0.24868887  1
  Zn  Zn113  1  0.62704663  0.87381429  0.75033392  1
  Zn  Zn114  1  0.87416675  0.37273252  0.49654290  1
  Zn  Zn115  1  0.12569563  0.37588119  0.75060588  1
  Zn  Zn116  1  0.24808053  0.00126616  0.74940131  1
  Zn  Zn117  1  0.75766564  0.75665913  0.49584296  1
  Zn  Zn118  1  0.37291695  0.87326648  0.49670802  1
  Zn  Zn119  1  0.75142250  0.87533860  0.12563431  1
  Zn  Zn120  1  0.37594766  0.25089419  0.12633428  1
  Zn  Zn121  1  0.37261352  0.87590682  -0.00042609  1
  Zn  Zn122  1  0.19129329  0.18500987  0.18677991  1
  Zn  Zn123  1  0.18648932  0.18916061  0.68618641  1
  Zn  Zn124  1  0.19063216  0.68648798  0.18793690  1
  Zn  Zn125  1  0.18569431  0.68779805  0.68681656  1
  Zn  Zn126  1  0.69046506  0.18796171  0.18801719  1
  Zn  Zn127  1  0.68656671  0.18644332  0.68969140  1
  Zn  Zn128  1  0.69216811  0.68895159  0.18984052  1
  Zn  Zn129  1  0.68616561  0.69101689  0.69061705  1
  Zn  Zn130  1  0.31171021  0.30653376  0.31014624  1
  Zn  Zn131  1  0.31203885  0.31257042  0.81305697  1
  Zn  Zn132  1  0.31120637  0.81068406  0.31052321  1
  Zn  Zn133  1  0.31284178  0.81191476  0.81090731  1
  Zn  Zn134  1  0.81168031  0.31502676  0.31272310  1
  Zn  Zn135  1  0.81263501  0.31425025  0.81297954  1
  Zn  Zn136  1  0.81293648  0.81292199  0.31166671  1
  Zn  Zn137  1  0.81227134  0.81419571  0.80726203  1
  Zn  Zn138  1  0.18500859  0.43369610  0.43463310  1
  Zn  Zn139  1  0.18687996  0.43703598  0.93518934  1
  Zn  Zn140  1  0.18096129  0.93915968  0.44066319  1
  Zn  Zn141  1  0.18823647  0.93776345  0.93942654  1
  Zn  Zn142  1  0.68848185  0.43740965  0.43866266  1
  Zn  Zn143  1  0.68735517  0.43801858  0.93862501  1
  Zn  Zn144  1  0.68558313  0.93865625  0.43850522  1
  Zn  Zn145  1  0.68706085  0.93578383  0.94082710  1
  Zn  Zn146  1  0.31386912  0.06169105  0.06133946  1
  Zn  Zn147  1  0.31111277  0.06211822  0.55842530  1
  Zn  Zn148  1  0.31397498  0.56200701  0.06135669  1
  Zn  Zn149  1  0.31182767  0.56110129  0.56083688  1
  Zn  Zn150  1  0.81307554  0.06691357  0.06431202  1
  Zn  Zn151  1  0.81021562  0.06335358  0.56336283  1
  Zn  Zn152  1  0.81406927  0.56546105  0.06387718  1
  Zn  Zn153  1  0.81434344  0.56345658  0.56131180  1
  Zn  Zn154  1  0.44002810  0.43796878  0.18660345  1
  Zn  Zn155  1  0.43549702  0.43806359  0.68517926  1
  Zn  Zn156  1  0.43804506  0.93756276  0.18652127  1
  Zn  Zn157  1  0.43496164  0.93715938  0.68864306  1
  Zn  Zn158  1  0.93956765  0.43687710  0.18973971  1
  Zn  Zn159  1  0.93578917  0.43856345  0.68810925  1
  Zn  Zn160  1  0.94107343  0.93841499  0.19205548  1
  Zn  Zn161  1  0.93603667  0.94045987  0.69307961  1
  Zn  Zn162  1  0.05951612  0.05746859  0.31071274  1
  Zn  Zn163  1  0.06288993  0.06091183  0.81246877  1
  Zn  Zn164  1  0.06310570  0.55568877  0.31066974  1
  Zn  Zn165  1  0.06506554  0.56094364  0.81236794  1
  Zn  Zn166  1  0.56274188  0.06298705  0.31062231  1
  Zn  Zn167  1  0.56117391  0.06525839  0.81284680  1
  Zn  Zn168  1  0.56228112  0.56352373  0.30848136  1
  Zn  Zn169  1  0.56239296  0.56600900  0.81213728  1
  Zn  Zn170  1  0.43345680  0.18650337  0.43454600  1
  Zn  Zn171  1  0.43671054  0.18877631  0.93833167  1
  Zn  Zn172  1  0.43750649  0.68729593  0.43684571  1
  Zn  Zn173  1  0.43521380  0.68968122  0.93834511  1
  Zn  Zn174  1  0.93289632  0.18213166  0.43976636  1
  Zn  Zn175  1  0.93804547  0.18733748  0.94400044  1
  Zn  Zn176  1  0.93553191  0.68761534  0.44146508  1
  Zn  Zn177  1  0.93753722  0.68965175  0.93964210  1
  Zn  Zn178  1  0.06465565  0.31355691  0.06251014  1
  Zn  Zn179  1  0.06279062  0.31134065  0.56229990  1
  Zn  Zn180  1  0.06256292  0.81268256  0.06098017  1
  Zn  Zn181  1  0.06584004  0.80789473  0.56082061  1
  Zn  Zn182  1  0.56398896  0.31730704  0.06191549  1
  Zn  Zn183  1  0.56188630  0.31366934  0.56059056  1
  Zn  Zn184  1  0.56316466  0.81544202  0.06098908  1
  Zn  Zn185  1  0.56602340  0.81189443  0.55996546  1
  O  O186  1  0.12943534  0.11310956  0.12036942  1
  O  O187  1  0.11027404  0.12399969  0.62898655  1
  O  O188  1  0.12196224  0.61941630  0.12055825  1
  O  O189  1  0.11638600  0.62131123  0.61846582  1
  O  O190  1  0.61569345  0.12013034  0.12561376  1
  O  O191  1  0.61833982  0.11845971  0.62063076  1
  O  O192  1  0.62888411  0.61243679  0.12685606  1
  O  O193  1  0.62058892  0.62070099  0.62052946  1
  O  O194  1  0.37938314  0.37843915  0.37928447  1
  O  O195  1  0.38105656  0.38204712  0.87942724  1
  O  O196  1  0.38471040  0.87648879  0.37456484  1
  O  O197  1  0.38369222  0.88053772  0.87528799  1
  O  O198  1  0.88385179  0.38197623  0.37540905  1
  O  O199  1  0.87936272  0.38268552  0.88130955  1
  O  O200  1  0.88581211  0.88120406  0.36784034  1
  O  O201  1  0.87937841  0.88127466  0.88088159  1
  O  O202  1  0.25269173  0.01380702  0.38401504  1
  O  O203  1  0.25700313  0.00652022  0.87437139  1
  O  O204  1  0.25534062  0.50317014  0.37050588  1
  O  O205  1  0.25724533  0.50567597  0.86940002  1
  O  O206  1  0.75527034  0.00249834  0.36921515  1
  O  O207  1  0.75489585  0.00688597  0.87749685  1
  O  O208  1  0.75628067  0.50421747  0.37013174  1
  O  O209  1  0.75419530  0.50634858  0.87119632  1
  O  O210  1  0.24582995  0.49397362  0.12906576  1
  O  O211  1  0.25030385  0.49196448  0.62924541  1
  O  O212  1  0.24002896  0.98806877  0.11726043  1
  O  O213  1  0.25006116  0.98753175  0.62493668  1
  O  O214  1  0.74530182  0.49696024  0.12775262  1
  O  O215  1  0.74441973  0.49632699  0.63153231  1
  O  O216  1  0.74587166  1.00042798  0.13450709  1
  O  O217  1  0.73992859  0.99330485  0.62584617  1
  O  O218  1  0.01007752  0.38152833  0.26008006  1
  O  O219  1  -0.00248961  0.36623482  0.75614165  1
  O  O220  1  0.01305129  0.87579412  0.26171885  1
  O  O221  1  0.00804932  0.87417362  0.75510994  1
  O  O222  1  0.50276649  0.37178576  0.25753421  1
  O  O223  1  0.50406247  0.37119761  0.75409334  1
  O  O224  1  0.50701611  0.87636314  0.26012403  1
  O  O225  1  0.50124432  0.87439667  0.76255461  1
  O  O226  1  0.49396509  0.12571352  0.24033554  1
  O  O227  1  0.49316400  0.13241307  0.74384182  1
  O  O228  1  0.49643100  0.62919405  0.24358636  1
  O  O229  1  0.49284675  0.62637871  0.74180080  1
  O  O230  1  0.99660939  0.11636788  0.24319080  1
  O  O231  1  0.99291589  0.13311585  0.74574569  1
  O  O232  1  0.99304310  0.61637137  0.24193013  1
  O  O233  1  0.99601250  0.62285448  0.74147059  1
  O  O234  1  0.36929870  0.25866580  0.00108367  1
  O  O235  1  0.36722231  0.25450558  0.50460265  1
  O  O236  1  0.36771229  0.75301970  0.00903748  1
  O  O237  1  0.36706558  0.75083225  0.50491890  1
  O  O238  1  0.86824156  0.25822781  0.00697609  1
  O  O239  1  0.87130691  0.25025975  0.51477098  1
  O  O240  1  0.86826092  0.75618107  0.00911805  1
  O  O241  1  0.86849842  0.74272392  0.50923500  1
  O  O242  1  0.13807637  0.24386281  0.50531300  1
  O  O243  1  0.13196305  0.24258926  0.99957023  1
  O  O244  1  0.13107096  0.74116180  0.48892837  1
  O  O245  1  0.13200974  0.74221185  1.00038348  1
  O  O246  1  0.62449510  0.24472168  0.49037674  1
  O  O247  1  0.63157476  0.25251650  0.99207322  1
  O  O248  1  0.63044992  0.74274337  0.49243070  1
  O  O249  1  0.63743591  0.75784662  0.99081120  1
  O  O250  1  0.50068395  0.23951497  0.12415681  1
  O  O251  1  0.49423533  0.24518532  0.62867618  1
  O  O252  1  0.49060134  0.75045888  0.12226691  1
  O  O253  1  0.49435716  0.74449721  0.62397427  1
  O  O254  1  0.98559679  0.25213073  0.11745898  1
  O  O255  1  0.99043303  0.24489953  0.63364421  1
  O  O256  1  0.98898327  0.74364512  0.11846904  1
  O  O257  1  1.00182105  0.73444732  0.62522147  1
  O  O258  1  -0.00794975  0.26246928  0.38306545  1
  O  O259  1  -0.00329273  0.25528907  0.86703225  1
  O  O260  1  0.01198969  0.75334939  0.37937824  1
  O  O261  1  0.00204471  0.75922273  0.87435597  1
  O  O262  1  0.50895717  0.25475004  0.37564101  1
  O  O263  1  0.50425840  0.25681003  0.86881197  1
  O  O264  1  0.50619564  0.76032365  0.37486794  1
  O  O265  1  0.50751689  0.75813491  0.87806588  1
  O  O266  1  0.25014710  0.13127985  0.48898494  1
  O  O267  1  0.24623560  0.13033314  0.99495461  1
  O  O268  1  0.24393031  0.62807896  0.49327168  1
  O  O269  1  0.24512501  0.62895675  0.99411114  1
  O  O270  1  0.74095976  0.12654572  0.49393366  1
  O  O271  1  0.74696371  0.13382319  0.99442132  1
  O  O272  1  0.74241841  0.62126234  0.49247816  1
  O  O273  1  0.75877652  0.63943112  0.99302142  1
  O  O274  1  0.25505070  0.37157795  0.00452557  1
  O  O275  1  0.25408112  0.36621487  0.50203078  1
  O  O276  1  0.24893987  0.86771783  0.01164784  1
  O  O277  1  0.24869910  0.86850145  0.50821609  1
  O  O278  1  0.75706709  0.37198764  0.00496940  1
  O  O279  1  0.75370879  0.37327626  0.50947210  1
  O  O280  1  0.75802474  0.86516036  0.00268363  1
  O  O281  1  0.74314702  0.87735074  0.51629888  1
  O  O282  1  0.13327295  0.49199305  0.24311625  1
  O  O283  1  0.13451892  0.49690822  0.74718085  1
  O  O284  1  0.12467218  0.98672639  0.23881843  1
  O  O285  1  0.12642947  0.98728061  0.74528973  1
  O  O286  1  0.63262775  0.49924048  0.24049046  1
  O  O287  1  0.62950010  0.49607424  0.74488348  1
  O  O288  1  0.63483399  0.99572146  0.24680584  1
  O  O289  1  0.62345375  1.00239278  0.73734752  1
  O  O290  1  0.37818828  0.01272841  0.24970538  1
  O  O291  1  0.37314323  0.00857287  0.75603518  1
  O  O292  1  0.36823209  0.49886267  0.25605568  1
  O  O293  1  0.37052605  0.50588985  0.75470231  1
  O  O294  1  0.86399170  -0.00204840  0.25884895  1
  O  O295  1  0.87312170  0.00876288  0.76193435  1
  O  O296  1  0.86936191  0.50622791  0.25436840  1
  O  O297  1  0.86820550  0.50519395  0.75752329  1
  O  O298  1  0.11545349  0.37751150  0.36440803  1
  O  O299  1  0.11601873  0.37168500  0.87247030  1
  O  O300  1  0.12036782  0.86629857  0.36802880  1
  O  O301  1  0.12016711  0.87578097  0.86645049  1
  O  O302  1  0.61965595  0.36631324  0.37617364  1
  O  O303  1  0.61986693  0.37128088  0.86796186  1
  O  O304  1  0.61815317  0.87022635  0.37086729  1
  O  O305  1  0.61629451  0.86835497  0.87434529  1
  O  O306  1  0.38373672  0.12457954  0.13121266  1
  O  O307  1  0.37920571  0.12952400  0.62885221  1
  O  O308  1  0.37460492  0.63710361  0.12488437  1
  O  O309  1  0.37992441  0.62963795  0.62760035  1
  O  O310  1  0.87617559  0.13822109  0.12697614  1
  O  O311  1  0.87914298  0.13347763  0.63233331  1
  O  O312  1  0.88149055  0.63299083  0.13029023  1
  O  O313  1  0.88622962  0.61946887  0.63268942  1
  O  O314  1  0.25273591  0.25691487  0.11700827  1
  O  O315  1  0.25611062  0.25302640  0.61631518  1
  O  O316  1  0.25689598  0.75688609  0.12005310  1
  O  O317  1  0.25374555  0.75684570  0.61832094  1
  O  O318  1  0.75502854  0.25745742  0.11898540  1
  O  O319  1  0.75763651  0.25541855  0.62796396  1
  O  O320  1  0.75995127  0.75098097  0.11673762  1
  O  O321  1  0.74546424  0.76804472  0.62664531  1
  O  O322  1  0.25625012  0.23587880  0.38504325  1
  O  O323  1  0.24869409  0.24345114  0.88134881  1
  O  O324  1  0.24122792  0.74360751  0.37845196  1
  O  O325  1  0.24996181  0.74380877  0.88199700  1
  O  O326  1  0.74137479  0.24462399  0.37686734  1
  O  O327  1  0.74512133  0.24674092  0.87973492  1
  O  O328  1  0.74461341  0.74313476  0.37468397  1
  O  O329  1  0.74416847  0.74786147  0.88187322  1
  O  O330  1  0.00807119  0.11834461  0.00621116  1
  O  O331  1  -0.00020193  0.12660627  0.51386826  1
  O  O332  1  0.00582372  0.61959690  0.00685175  1
  O  O333  1  0.00527324  0.61419507  0.50679808  1
  O  O334  1  0.50061611  0.12047976  0.00932588  1
  O  O335  1  0.50302723  0.11693603  0.50427062  1
  O  O336  1  0.49550284  0.61115555  0.00015403  1
  O  O337  1  0.50653829  0.61907208  0.50414783  1
  O  O338  1  0.49334213  0.38098166  0.49450419  1
  O  O339  1  0.49498186  0.38485586  0.99325661  1
  O  O340  1  0.50085977  0.88238573  0.49016051  1
  O  O341  1  0.49830791  0.88211591  0.98842209  1
  O  O342  1  1.00020227  0.38262423  0.49303507  1
  O  O343  1  0.99492396  0.38256711  0.99526953  1
  O  O344  1  1.00688362  0.87317101  0.48574031  1
  O  O345  1  0.99528809  0.88117904  0.99454610  1
  O  O346  1  0.49510749  0.49453047  0.38006815  1
  O  O347  1  0.49711178  0.49611331  0.88059954  1
  O  O348  1  0.50333541  0.99060534  0.38315277  1
  O  O349  1  0.49604407  0.99434905  0.87896988  1
  O  O350  1  0.99529458  0.49414786  0.38435831  1
  O  O351  1  0.99387888  0.49661949  0.88130558  1
  O  O352  1  0.99063244  0.98948125  0.37825631  1
  O  O353  1  0.99356554  0.99573433  0.88310652  1
  O  O354  1  0.01408294  -0.00563585  0.11894373  1
  O  O355  1  -0.00563622  0.01225477  0.62486830  1
  O  O356  1  0.00637390  0.50547862  0.11890990  1
  O  O357  1  0.00062234  0.50540294  0.61595545  1
  O  O358  1  0.50530171  0.00830264  0.12008935  1
  O  O359  1  0.50494371  0.00364158  0.61748211  1
  O  O360  1  0.50963673  0.50097832  0.11603259  1
  O  O361  1  0.50498192  0.50563186  0.61838588  1
  O  O362  1  0.24344693  0.37855113  0.24545610  1
  O  O363  1  0.25118152  0.38016593  0.74263343  1
  O  O364  1  0.23921080  0.86955406  0.23800493  1
  O  O365  1  0.24244933  0.87500297  0.74047448  1
  O  O366  1  0.74826282  0.38444316  0.24356319  1
  O  O367  1  0.74359190  0.38230827  0.74577640  1
  O  O368  1  0.74423218  0.88607036  0.24940326  1
  O  O369  1  0.74539099  0.88148489  0.73899342  1
  O  O370  1  0.25738918  0.12905678  0.26390201  1
  O  O371  1  0.25534307  0.12522154  0.75545524  1
  O  O372  1  0.25249418  0.61610081  0.25632478  1
  O  O373  1  0.25565221  0.61979847  0.75360883  1
  O  O374  1  0.74992529  0.11362563  0.25754178  1
  O  O375  1  0.75558796  0.12399040  0.75884298  1
  O  O376  1  0.75885791  0.61887384  0.25680727  1
  O  O377  1  0.75486791  0.62028189  0.75574505  1
  O  O378  1  0.36912817  0.11954192  0.36659581  1
  O  O379  1  0.37028664  0.12109892  0.86906390  1
  O  O380  1  0.36838866  0.61720922  0.37442083  1
  O  O381  1  0.36998528  0.62042460  0.86847374  1
  O  O382  1  0.86781318  0.11399812  0.37356741  1
  O  O383  1  0.86925252  0.12106461  0.87438261  1
  O  O384  1  0.87146410  0.61875414  0.36940530  1
  O  O385  1  0.86977789  0.62082765  0.86987949  1
  O  O386  1  0.13037680  0.38153691  0.13109505  1
  O  O387  1  0.13303339  0.37537397  0.62831390  1
  O  O388  1  0.13056882  0.87770329  0.13193346  1
  O  O389  1  0.13318493  0.87259122  0.63228008  1
  O  O390  1  0.63261035  0.38622109  0.12656822  1
  O  O391  1  0.62867359  0.38160248  0.63014493  1
  O  O392  1  0.62650529  0.88297371  0.13222911  1
  O  O393  1  0.62854475  0.88601720  0.62684339  1
  O  O394  1  0.12901975  0.26328744  0.24237619  1
  O  O395  1  0.11001864  0.25094569  0.75208649  1
  O  O396  1  0.12968315  0.75640858  0.25984565  1
  O  O397  1  0.12280361  0.76182046  0.75281703  1
  O  O398  1  0.62405772  0.25096623  0.26298045  1
  O  O399  1  0.61800399  0.25689839  0.75407627  1
  O  O400  1  0.62537776  0.75760677  0.25572436  1
  O  O401  1  0.62118254  0.75372760  0.76382413  1
  O  O402  1  0.37825856  0.23580133  0.24607862  1
  O  O403  1  0.38028077  0.24561784  0.74335092  1
  O  O404  1  0.37673319  0.74930900  0.23731398  1
  O  O405  1  0.37665691  0.74285341  0.74176087  1
  O  O406  1  0.86637842  0.25020267  0.23636401  1
  O  O407  1  0.88194494  0.24611949  0.74382401  1
  O  O408  1  0.86873441  0.74355317  0.23716340  1
  O  O409  1  0.87766048  0.74224743  0.74253850  1
  O  O410  1  0.37995273  0.49335017  0.49324077  1
  O  O411  1  0.38348748  0.49508439  0.99370222  1
  O  O412  1  0.38866415  0.99704663  0.49829758  1
  O  O413  1  0.38266507  0.99804547  0.99238159  1
  O  O414  1  0.88604494  0.49828419  0.49412291  1
  O  O415  1  0.88055872  0.49652732  0.99600426  1
  O  O416  1  0.87404343  1.00195285  0.48717227  1
  O  O417  1  0.88006221  0.99530404  0.99861146  1
  O  O418  1  0.12066278  0.00393444  0.00883135  1
  O  O419  1  0.11632476  0.00595956  0.50591583  1
  O  O420  1  0.12088729  0.50535761  0.00593533  1
  O  O421  1  0.11510104  0.50349946  0.49947194  1
  O  O422  1  0.61871210  0.00249630  0.00757845  1
  O  O423  1  0.61453663  0.00569881  0.50828634  1
  O  O424  1  0.61647150  0.49508501  0.00805415  1
  O  O425  1  0.61878186  0.50525215  0.50557754  1
  O  O426  1  0.36875698  0.37513040  0.11834839  1
  O  O427  1  0.36960584  0.36883676  0.61717037  1
  O  O428  1  0.36659371  0.86835540  0.12445193  1
  O  O429  1  0.36520482  0.86874749  0.62356823  1
  O  O430  1  0.86998671  0.37095162  0.12042102  1
  O  O431  1  0.86925307  0.36561154  0.62625970  1
  O  O432  1  0.87676642  0.86690835  0.12181364  1
  O  O433  1  0.85997721  0.87949660  0.62981862  1
  O  O434  1  0.13883643  0.11941436  0.37178165  1
  O  O435  1  0.13132051  0.12497353  0.88237348  1
  O  O436  1  0.12924117  0.62954777  0.37721563  1
  O  O437  1  0.13228517  0.62587052  0.88194706  1
  O  O438  1  0.62838082  0.13197435  0.37966908  1
  O  O439  1  0.62961838  0.13381822  0.87628865  1
  O  O440  1  0.63089100  0.62922310  0.37903062  1
  O  O441  1  0.63142810  0.63788309  0.87132778  1
