# generated using pymatgen
data_V93Zn93O256
_symmetry_space_group_name_H-M   'P 1'
_cell_length_a   17.05704359
_cell_length_b   17.06029781
_cell_length_c   17.06357824
_cell_angle_alpha   90.01218932
_cell_angle_beta   89.97085139
_cell_angle_gamma   89.94069792
_symmetry_Int_Tables_number   1
_chemical_formula_structural   V93Zn93O256
_chemical_formula_sum   'V93 Zn93 O256'
_cell_volume   4965.46787908
_cell_formula_units_Z   1
loop_
 _symmetry_equiv_pos_site_id
 _symmetry_equiv_pos_as_xyz
  1  'x, y, z'
loop_
 _atom_site_type_symbol
 _atom_site_label
 _atom_site_symmetry_multiplicity
 _atom_site_fract_x
 _atom_site_fract_y
 _atom_site_fract_z
 _atom_site_occupancy
  V  V0  1  0.24931459  0.74917839  -0.00027109  1
  V  V1  1  0.25213469  0.25159138  -0.00187925  1
  V  V2  1  0.62570702  0.74903394  0.37529405  1
  V  V3  1  0.12969098  0.87828815  0.25137949  1
  V  V4  1  0.12198210  0.87414719  0.75582318  1
  V  V5  1  0.12478702  0.24998764  0.36951233  1
  V  V6  1  0.74859577  0.12450590  0.37397996  1
  V  V7  1  0.25358665  0.37170212  0.12344218  1
  V  V8  1  0.87458484  0.75024274  0.62521630  1
  V  V9  1  0.87332653  0.25020426  0.62414926  1
  V  V10  1  0.25002513  0.25138705  0.50097401  1
  V  V11  1  0.62525134  0.62383996  0.50012610  1
  V  V12  1  0.00042498  0.75308627  0.75650951  1
  V  V13  1  0.74921712  0.24884326  0.00050476  1
  V  V14  1  0.12454245  0.50070529  0.12585354  1
  V  V15  1  0.12415082  0.12445554  -0.00193973  1
  V  V16  1  0.25038620  0.49964280  0.25030679  1
  V  V17  1  0.74947295  0.49884299  0.25121009  1
  V  V18  1  -0.00081386  0.62495365  0.12592458  1
  V  V19  1  0.75045556  0.87533803  0.62455823  1
  V  V20  1  0.87523469  0.87428869  0.49984421  1
  V  V21  1  0.50071285  0.00688485  0.00343360  1
  V  V22  1  0.00145613  0.49795644  0.50124246  1
  V  V23  1  0.00036111  0.87398408  0.37469167  1
  V  V24  1  0.87539839  0.62475917  0.24977848  1
  V  V25  1  0.24872582  0.62589916  0.87536033  1
  V  V26  1  0.87808882  0.12562739  0.24892236  1
  V  V27  1  0.37537499  0.25002274  0.62551881  1
  V  V28  1  0.74988641  0.62448023  0.37637424  1
  V  V29  1  0.49995853  0.37467858  0.87462234  1
  V  V30  1  0.87541485  0.24897658  0.12607859  1
  V  V31  1  0.62497874  0.37505873  0.74972309  1
  V  V32  1  0.24273422  0.50075198  0.74612078  1
  V  V33  1  0.37510733  0.74939406  0.62499204  1
  V  V34  1  0.24982079  0.87558831  0.12755681  1
  V  V35  1  0.37394611  0.62475958  0.74964756  1
  V  V36  1  0.49961627  0.87452106  0.87466320  1
  V  V37  1  0.61563585  0.25199744  0.37483815  1
  V  V38  1  0.37448640  0.87378962  -0.00024751  1
  V  V39  1  0.24956374  0.12636678  0.87215749  1
  V  V40  1  0.37525643  0.87458661  0.49889876  1
  V  V41  1  0.74937342  0.25092163  0.49949242  1
  V  V42  1  0.24974543  0.62442552  0.37618243  1
  V  V43  1  0.12784219  -0.00062068  0.12614961  1
  V  V44  1  0.74970058  0.50001398  0.74970926  1
  V  V45  1  0.49932436  0.75016224  0.75066443  1
  V  V46  1  -0.00038404  0.12466568  0.62481247  1
  V  V47  1  0.49853292  0.12334962  0.62454479  1
  V  V48  1  0.75032830  0.00147472  0.75291734  1
  V  V49  1  0.50080463  0.87424377  0.37609218  1
  V  V50  1  0.12556381  0.62066544  0.50302503  1
  V  V51  1  0.12561842  0.37465155  0.25117080  1
  V  V52  1  -0.00088115  0.49952047  -0.00006358  1
  V  V53  1  0.38098693  0.37608220  0.49779674  1
  V  V54  1  0.49245933  0.24589748  0.23663692  1
  V  V55  1  0.87471626  -0.00049657  0.37461648  1
  V  V56  1  0.61799517  0.37466159  0.25434201  1
  V  V57  1  0.24741964  0.87614878  0.62553735  1
  V  V58  1  0.62440705  -0.00062728  0.62479803  1
  V  V59  1  0.49900885  -0.00135388  0.49940533  1
  V  V60  1  0.38144811  0.49584980  0.37577562  1
  V  V61  1  0.62678806  0.87441452  0.24859673  1
  V  V62  1  0.87554578  0.37461135  0.00103969  1
  V  V63  1  0.12487986  0.62607574  0.00075924  1
  V  V64  1  0.50011408  0.49991345  0.00047774  1
  V  V65  1  0.62136391  0.00660468  0.12567855  1
  V  V66  1  0.24416990  0.37950579  0.62565030  1
  V  V67  1  0.87456264  0.62426682  0.75102936  1
  V  V68  1  0.87848881  0.87538933  -0.00821588  1
  V  V69  1  0.37453634  0.49975488  0.87457692  1
  V  V70  1  0.62452074  0.49935308  0.62503542  1
  V  V71  1  0.00358100  0.61976183  0.62683486  1
  V  V72  1  0.74900865  0.62509376  0.87496169  1
  V  V73  1  0.24916921  0.74814317  0.49979890  1
  V  V74  1  0.12365296  0.25189713  0.87352652  1
  V  V75  1  0.37378175  0.12466792  0.74877759  1
  V  V76  1  0.74965169  0.37475738  0.12576516  1
  V  V77  1  0.25541121  0.11751056  0.37004947  1
  V  V78  1  0.87388710  0.75315578  0.12514432  1
  V  V79  1  0.37386202  0.37265830  0.00086256  1
  V  V80  1  0.62433311  0.50038936  0.12522167  1
  V  V81  1  0.00011512  -0.00373953  -0.00745261  1
  V  V82  1  0.62362510  0.74946050  0.87597628  1
  V  V83  1  0.62543162  0.62483683  0.00056012  1
  V  V84  1  0.12454558  0.12405324  0.50130397  1
  V  V85  1  0.37501632  0.62499350  0.24956619  1
  V  V86  1  0.87593735  0.49920515  0.37580941  1
  V  V87  1  -0.00044800  0.25154954  0.74992465  1
  V  V88  1  0.37503534  0.74792806  0.12560416  1
  V  V89  1  -0.00040498  0.37485102  0.87562456  1
  V  V90  1  0.62606051  0.24688460  0.87539146  1
  V  V91  1  0.50015369  0.62370100  0.62394124  1
  V  V92  1  0.37441221  0.00080371  0.87382174  1
  Zn  Zn93  1  0.75005247  -0.00003227  0.24637858  1
  Zn  Zn94  1  0.50074162  0.74755416  0.24870610  1
  Zn  Zn95  1  0.87560014  0.37522824  0.49804612  1
  Zn  Zn96  1  0.12478776  0.74937757  0.37357205  1
  Zn  Zn97  1  0.37190466  -0.00427050  0.36524057  1
  Zn  Zn98  1  0.74917618  0.75288901  -0.00100198  1
  Zn  Zn99  1  0.87792751  -0.00036409  0.87296437  1
  Zn  Zn100  1  0.62527265  0.87433772  0.75076090  1
  Zn  Zn101  1  0.62205325  0.12453873  0.49915780  1
  Zn  Zn102  1  -0.00117336  0.37351115  0.37457847  1
  Zn  Zn103  1  0.75038472  0.87736020  0.12271717  1
  Zn  Zn104  1  0.39201609  0.10599243  0.21750906  1
  Zn  Zn105  1  0.50324252  0.49600670  0.49720654  1
  Zn  Zn106  1  0.00083879  0.74954049  0.25080590  1
  Zn  Zn107  1  0.24720131  -0.00013363  0.75008453  1
  Zn  Zn108  1  0.87396621  0.49926359  0.87534900  1
  Zn  Zn109  1  0.74965900  0.37530942  0.62483274  1
  Zn  Zn110  1  0.75032459  0.74932778  0.50129743  1
  Zn  Zn111  1  0.00465507  0.12662363  0.12562869  1
  Zn  Zn112  1  0.12272099  -0.00172281  0.62646185  1
  Zn  Zn113  1  -0.00053724  -0.00145022  0.50174086  1
  Zn  Zn114  1  0.50041689  0.24910187  0.74983082  1
  Zn  Zn115  1  0.12112338  0.37979259  0.74620450  1
  Zn  Zn116  1  0.62242211  0.12818383  0.00631178  1
  Zn  Zn117  1  0.75231719  0.12192755  0.87934469  1
  Zn  Zn118  1  0.87492718  0.12465113  0.75495555  1
  Zn  Zn119  1  0.50054788  0.62620630  0.12558218  1
  Zn  Zn120  1  0.00027082  0.25236854  0.24911950  1
  Zn  Zn121  1  0.12087472  0.75420411  0.87946055  1
  Zn  Zn122  1  0.22462709  0.16503922  0.16713260  1
  Zn  Zn123  1  0.18756497  0.19140042  0.68825857  1
  Zn  Zn124  1  0.18722365  0.69026285  0.18938933  1
  Zn  Zn125  1  0.18550987  0.68907866  0.68788658  1
  Zn  Zn126  1  0.68630688  0.18874123  0.18937911  1
  Zn  Zn127  1  0.68550203  0.18439723  0.68866575  1
  Zn  Zn128  1  0.68921717  0.68736620  0.18741761  1
  Zn  Zn129  1  0.68675703  0.68773048  0.68806830  1
  Zn  Zn130  1  0.31101556  0.31105966  0.31435645  1
  Zn  Zn131  1  0.31257478  0.31333803  0.81122572  1
  Zn  Zn132  1  0.31261090  0.81131287  0.31283762  1
  Zn  Zn133  1  0.31086938  0.81253181  0.81311597  1
  Zn  Zn134  1  0.81115404  0.31334485  0.31323697  1
  Zn  Zn135  1  0.81223794  0.31297041  0.81260365  1
  Zn  Zn136  1  0.81133803  0.81081898  0.31237097  1
  Zn  Zn137  1  0.81101833  0.81246449  0.81182552  1
  Zn  Zn138  1  0.18983015  0.43780081  0.43775195  1
  Zn  Zn139  1  0.18578945  0.43895256  0.93582219  1
  Zn  Zn140  1  0.18575429  0.93811948  0.44004536  1
  Zn  Zn141  1  0.18880389  0.93848286  0.93826341  1
  Zn  Zn142  1  0.68711943  0.43622297  0.43729376  1
  Zn  Zn143  1  0.68792649  0.43699419  0.93670643  1
  Zn  Zn144  1  0.68708596  0.93726177  0.43855284  1
  Zn  Zn145  1  0.68767147  0.93485621  0.93985183  1
  Zn  Zn146  1  0.31252306  0.05991798  0.05727691  1
  Zn  Zn147  1  0.31314151  0.06063891  0.55918459  1
  Zn  Zn148  1  0.31246959  0.56096192  0.06284712  1
  Zn  Zn149  1  0.31368347  0.56057567  0.56248230  1
  Zn  Zn150  1  0.80965691  0.06081721  0.06287138  1
  Zn  Zn151  1  0.81207255  0.06140498  0.56188630  1
  Zn  Zn152  1  0.81125052  0.56296643  0.06242086  1
  Zn  Zn153  1  0.81327409  0.56279727  0.56357277  1
  Zn  Zn154  1  0.43757179  0.43648816  0.18730880  1
  Zn  Zn155  1  0.43639393  0.43703977  0.68706109  1
  Zn  Zn156  1  0.44004027  0.93226433  0.18770905  1
  Zn  Zn157  1  0.43651419  0.93744562  0.68785957  1
  Zn  Zn158  1  0.93860267  0.43656848  0.18872332  1
  Zn  Zn159  1  0.93497947  0.43639118  0.68737269  1
  Zn  Zn160  1  0.94152805  0.93920619  0.18577234  1
  Zn  Zn161  1  0.93638850  0.93729659  0.68851451  1
  Zn  Zn162  1  0.06362057  0.06094521  0.31307835  1
  Zn  Zn163  1  0.06377250  0.06238560  0.81003123  1
  Zn  Zn164  1  0.06254337  0.56205208  0.31452020  1
  Zn  Zn165  1  0.06176719  0.56409985  0.81603511  1
  Zn  Zn166  1  0.55844987  0.06212724  0.31101629  1
  Zn  Zn167  1  0.56192013  0.06195321  0.81177681  1
  Zn  Zn168  1  0.56119576  0.56424328  0.31152085  1
  Zn  Zn169  1  0.56261330  0.56256746  0.81230879  1
  Zn  Zn170  1  0.43629480  0.18717014  0.43875594  1
  Zn  Zn171  1  0.43597135  0.18889902  0.93724166  1
  Zn  Zn172  1  0.43900068  0.68661348  0.43686146  1
  Zn  Zn173  1  0.43742093  0.68598008  0.93843789  1
  Zn  Zn174  1  0.93794410  0.18787146  0.43691056  1
  Zn  Zn175  1  0.93692674  0.18413406  0.93783352  1
  Zn  Zn176  1  0.93717818  0.68784623  0.43826264  1
  Zn  Zn177  1  0.93495598  0.68668338  0.93865892  1
  Zn  Zn178  1  0.06371161  0.31094180  0.06385906  1
  Zn  Zn179  1  0.06309275  0.31108463  0.56063999  1
  Zn  Zn180  1  0.06014515  0.81318378  0.06366960  1
  Zn  Zn181  1  0.06169913  0.80783309  0.56386203  1
  Zn  Zn182  1  0.56184532  0.31405108  0.06265340  1
  Zn  Zn183  1  0.56282424  0.31053589  0.56431457  1
  Zn  Zn184  1  0.56069287  0.81390163  0.06275363  1
  Zn  Zn185  1  0.56439099  0.81171392  0.56270244  1
  O  O186  1  0.13051429  0.11431505  0.11717663  1
  O  O187  1  0.11658041  0.12945439  0.61648641  1
  O  O188  1  0.12002916  0.62012010  0.12093478  1
  O  O189  1  0.11434241  0.62985089  0.61570635  1
  O  O190  1  0.62672143  0.11115636  0.12781780  1
  O  O191  1  0.61690243  0.11802697  0.62260445  1
  O  O192  1  0.62511420  0.61777414  0.11959508  1
  O  O193  1  0.61975833  0.61945341  0.62015714  1
  O  O194  1  0.36433405  0.38508243  0.38705346  1
  O  O195  1  0.37994944  0.38132474  0.87937213  1
  O  O196  1  0.38132344  0.87324496  0.38226615  1
  O  O197  1  0.37874100  0.88030000  0.88026843  1
  O  O198  1  0.87736674  0.38257211  0.37738652  1
  O  O199  1  0.88167610  0.37548223  0.88293783  1
  O  O200  1  0.88192823  0.87898748  0.37833065  1
  O  O201  1  0.87264270  0.87572821  0.88796869  1
  O  O202  1  0.25039732  0.01429004  0.38484736  1
  O  O203  1  0.25701840  0.00795737  0.87463528  1
  O  O204  1  0.25829078  0.50560993  0.36972745  1
  O  O205  1  0.25527127  0.50554652  0.86695614  1
  O  O206  1  0.75411798  0.01123914  0.37421478  1
  O  O207  1  0.74792434  -0.00064240  0.86371789  1
  O  O208  1  0.75537722  0.50474291  0.37015264  1
  O  O209  1  0.75029885  0.50667103  0.86775027  1
  O  O210  1  0.24327018  0.49247997  0.13012873  1
  O  O211  1  0.25683623  0.49167630  0.63522833  1
  O  O212  1  0.23426357  0.98887604  0.11299631  1
  O  O213  1  0.24881844  0.98591740  0.62471039  1
  O  O214  1  0.74432516  0.49464285  0.13204427  1
  O  O215  1  0.74330173  0.49873285  0.63118969  1
  O  O216  1  0.73776369  0.99618049  0.12768379  1
  O  O217  1  0.74533161  0.99564966  0.63171993  1
  O  O218  1  0.01023517  0.37377238  0.25330410  1
  O  O219  1  0.00112873  0.37028202  0.75532756  1
  O  O220  1  0.00835229  0.87439660  0.25958182  1
  O  O221  1  0.00971621  0.86357216  0.73995657  1
  O  O222  1  0.51253076  0.36637085  0.24555255  1
  O  O223  1  0.50593571  0.37374076  0.75695293  1
  O  O224  1  0.51299354  0.87021451  0.25698180  1
  O  O225  1  0.49946623  0.86774975  0.75663692  1
  O  O226  1  0.49730647  0.14094863  0.25348370  1
  O  O227  1  0.49160711  0.12510167  0.74261194  1
  O  O228  1  0.49109230  0.62715578  0.24648623  1
  O  O229  1  0.49302561  0.62990582  0.74478854  1
  O  O230  1  0.98827165  0.12664699  0.25055159  1
  O  O231  1  0.99978740  0.13200897  0.73884695  1
  O  O232  1  0.99365432  0.62475826  0.24402652  1
  O  O233  1  0.99683600  0.62993750  0.74288233  1
  O  O234  1  0.36503593  0.26062797  -0.00903240  1
  O  O235  1  0.36930104  0.25844976  0.50444092  1
  O  O236  1  0.36895754  0.75412366  0.00486549  1
  O  O237  1  0.36921127  0.75413383  0.50625325  1
  O  O238  1  0.86954118  0.25546632  0.00668422  1
  O  O239  1  0.86670307  0.25023781  0.50614894  1
  O  O240  1  0.87644138  0.75809520  0.00860174  1
  O  O241  1  0.87390544  0.75559361  0.50764730  1
  O  O242  1  0.12952559  0.24230175  0.49186365  1
  O  O243  1  0.13021804  0.24476777  0.99260725  1
  O  O244  1  0.13008586  0.73777780  0.49818587  1
  O  O245  1  0.13018693  0.74473292  1.00030526  1
  O  O246  1  0.63254464  0.24861745  0.49228617  1
  O  O247  1  0.62938842  0.25076828  0.99210928  1
  O  O248  1  0.62779482  0.74210419  0.49390114  1
  O  O249  1  0.62518015  0.74355492  0.99426613  1
  O  O250  1  0.50381712  0.25051009  0.13736891  1
  O  O251  1  0.49297601  0.24198836  0.62632261  1
  O  O252  1  0.48989375  0.74780539  0.12617340  1
  O  O253  1  0.49434714  0.74420012  0.63049536  1
  O  O254  1  0.99242468  0.24613882  0.12815769  1
  O  O255  1  0.99261146  0.24381583  0.62752274  1
  O  O256  1  0.98942549  0.74335883  0.12657175  1
  O  O257  1  0.99446637  0.73865702  0.63334356  1
  O  O258  1  0.01165158  0.25185721  0.37516137  1
  O  O259  1  0.00397131  0.25531239  0.86976552  1
  O  O260  1  0.00096405  0.76238815  0.37423873  1
  O  O261  1  0.00032187  0.74315697  0.86009523  1
  O  O262  1  0.51337213  0.24525257  0.37256346  1
  O  O263  1  0.50980649  0.25647801  0.87473680  1
  O  O264  1  0.50788665  0.75614718  0.37390316  1
  O  O265  1  0.50300585  0.75430330  0.87012149  1
  O  O266  1  0.24034333  0.13137073  0.49714586  1
  O  O267  1  0.24238548  0.13136427  0.98907457  1
  O  O268  1  0.24254413  0.62708920  0.49810540  1
  O  O269  1  0.24448237  0.62918294  0.99561487  1
  O  O270  1  0.74955416  0.13417759  0.49008438  1
  O  O271  1  0.74485150  0.13385875  0.99945728  1
  O  O272  1  0.74367531  0.62514690  0.49383870  1
  O  O273  1  0.74330562  0.62638533  0.99300624  1
  O  O274  1  0.25354435  0.37319501  0.00526358  1
  O  O275  1  0.25760630  0.37250817  0.50847947  1
  O  O276  1  0.25548000  0.86830221  0.00516634  1
  O  O277  1  0.25283707  0.86847321  0.50756321  1
  O  O278  1  0.75519164  0.36999874  0.00661362  1
  O  O279  1  0.75124780  0.36126803  0.50139762  1
  O  O280  1  0.76201144  0.87248487  0.00382634  1
  O  O281  1  0.75746081  0.87326175  0.50626118  1
  O  O282  1  0.13144102  0.49532395  0.24624373  1
  O  O283  1  0.13890400  0.50069126  0.75446265  1
  O  O284  1  0.11845481  0.98990349  0.23859653  1
  O  O285  1  0.12646514  0.98963044  0.74528977  1
  O  O286  1  0.62886645  0.49228127  0.24746538  1
  O  O287  1  0.63008162  0.49537124  0.74463878  1
  O  O288  1  0.62282273  0.99126051  0.24276363  1
  O  O289  1  0.63276733  0.99756129  0.74354020  1
  O  O290  1  0.38323425  0.00097980  0.25345836  1
  O  O291  1  0.37172616  0.00592779  0.75631466  1
  O  O292  1  0.36950683  0.50271444  0.25745563  1
  O  O293  1  0.36625565  0.50595604  0.75547793  1
  O  O294  1  0.87337990  0.00909194  0.25506440  1
  O  O295  1  0.86482694  0.00073935  0.75165299  1
  O  O296  1  0.86895064  0.50488345  0.25474476  1
  O  O297  1  0.86825342  0.50670308  0.75105905  1
  O  O298  1  0.12816423  0.36573741  0.37077703  1
  O  O299  1  0.11727138  0.36928381  0.87358597  1
  O  O300  1  0.11794791  0.87660272  0.36867902  1
  O  O301  1  0.13286498  0.87269364  0.86017098  1
  O  O302  1  0.63201590  0.36473454  0.36401430  1
  O  O303  1  0.61976116  0.36702935  0.87040069  1
  O  O304  1  0.62143229  0.86963298  0.36863578  1
  O  O305  1  0.61702252  0.86730990  0.87454759  1
  O  O306  1  0.33197685  0.13830957  0.13203239  1
  O  O307  1  0.37793465  0.12986886  0.62843915  1
  O  O308  1  0.37389823  0.62980838  0.13157170  1
  O  O309  1  0.37938262  0.63049152  0.62969245  1
  O  O310  1  0.87309996  0.12958550  0.13621080  1
  O  O311  1  0.88392983  0.13507364  0.62258721  1
  O  O312  1  0.87940348  0.63205244  0.12950381  1
  O  O313  1  0.88379122  0.63019812  0.63110490  1
  O  O314  1  0.23757123  0.26848562  0.11508309  1
  O  O315  1  0.25640231  0.25853881  0.62032461  1
  O  O316  1  0.25514304  0.75547907  0.11876243  1
  O  O317  1  0.25490302  0.75718564  0.62015580  1
  O  O318  1  0.75403283  0.25603277  0.12087735  1
  O  O319  1  0.75675373  0.24611699  0.61565000  1
  O  O320  1  0.76363731  0.75033157  0.12292664  1
  O  O321  1  0.75711497  0.75637345  0.62600553  1
  O  O322  1  0.24224125  0.24117376  0.38235765  1
  O  O323  1  0.24318436  0.24639256  0.87799178  1
  O  O324  1  0.24914474  0.74204459  0.38326514  1
  O  O325  1  0.24917911  0.74263269  0.88222471  1
  O  O326  1  0.74316983  0.24224551  0.38133782  1
  O  O327  1  0.73992633  0.25180857  0.88151365  1
  O  O328  1  0.74418996  0.74150428  0.37710907  1
  O  O329  1  0.74202163  0.74268004  0.87478965  1
  O  O330  1  0.00726160  0.11627170  0.00363807  1
  O  O331  1  0.00820908  0.12638573  0.50794582  1
  O  O332  1  0.00456142  0.61977639  0.00617294  1
  O  O333  1  0.00606175  0.61848974  0.50716936  1
  O  O334  1  0.50004663  0.11066973  -0.00536389  1
  O  O335  1  0.49975350  0.11733031  0.50661092  1
  O  O336  1  0.50670944  0.61672178  0.00093114  1
  O  O337  1  0.50675110  0.62228451  0.50686786  1
  O  O338  1  0.48477669  0.37533006  0.50620640  1
  O  O339  1  0.49408992  0.38071262  0.99464919  1
  O  O340  1  0.49477430  0.87832128  0.49609015  1
  O  O341  1  0.49292810  0.88278646  0.99323161  1
  O  O342  1  1.00099771  0.38751415  0.50026904  1
  O  O343  1  0.99509247  0.37988050  0.99615066  1
  O  O344  1  0.99601680  0.87530082  0.49203969  1
  O  O345  1  0.99149874  0.88481276  1.00576897  1
  O  O346  1  0.48521147  0.50264258  0.37565508  1
  O  O347  1  0.49463397  0.49458108  0.88013103  1
  O  O348  1  0.50091081  0.99183435  0.38360532  1
  O  O349  1  0.49480925  0.99415958  0.88207659  1
  O  O350  1  0.99444683  0.50014416  0.38602327  1
  O  O351  1  0.99793741  0.49384367  0.88240404  1
  O  O352  1  0.99450295  0.98949263  0.37726939  1
  O  O353  1  1.00082944  1.00417417  0.88863993  1
  O  O354  1  0.01235086  0.00305392  0.11559324  1
  O  O355  1  -0.00041332  0.01361073  0.62377744  1
  O  O356  1  0.00512824  0.50534024  0.11976352  1
  O  O357  1  -0.00647325  0.51123864  0.61665225  1
  O  O358  1  0.50826527  -0.00789009  0.11283558  1
  O  O359  1  0.50399257  0.00325659  0.61943498  1
  O  O360  1  0.50691943  0.49993838  0.11815742  1
  O  O361  1  0.50618561  0.50679387  0.62460350  1
  O  O362  1  0.24573689  0.37936041  0.24196725  1
  O  O363  1  0.24989798  0.38426148  0.74225471  1
  O  O364  1  0.23768549  0.86982272  0.24488163  1
  O  O365  1  0.24208875  0.87280309  0.73960774  1
  O  O366  1  0.74042886  0.37919353  0.24501173  1
  O  O367  1  0.74321916  0.38161747  0.74818182  1
  O  O368  1  0.73772364  0.87772073  0.25087663  1
  O  O369  1  0.74903518  0.88429364  0.74306415  1
  O  O370  1  0.24262611  0.12689918  0.27256135  1
  O  O371  1  0.25483584  0.12357218  0.75435561  1
  O  O372  1  0.25427163  0.61881316  0.25571559  1
  O  O373  1  0.25426276  0.61947990  0.75310480  1
  O  O374  1  0.75889976  0.12629126  0.26038362  1
  O  O375  1  0.75179679  0.11253368  0.75019002  1
  O  O376  1  0.75533771  0.61757377  0.25614668  1
  O  O377  1  0.75495843  0.61972768  0.75482903  1
  O  O378  1  0.35875259  0.12580994  0.38061330  1
  O  O379  1  0.36932551  0.12057301  0.86859134  1
  O  O380  1  0.36876290  0.61651169  0.37123002  1
  O  O381  1  0.36865955  0.61929772  0.86943919  1
  O  O382  1  0.86809391  0.12164253  0.36861448  1
  O  O383  1  0.87031772  0.11985178  0.87214587  1
  O  O384  1  0.87045811  0.61967788  0.36976559  1
  O  O385  1  0.86784141  0.62308856  0.86845995  1
  O  O386  1  0.13171346  0.38312708  0.13003648  1
  O  O387  1  0.14026812  0.36934658  0.62483508  1
  O  O388  1  0.12811911  0.88000679  0.13294801  1
  O  O389  1  0.13345281  0.87271993  0.63139969  1
  O  O390  1  0.63091127  0.38061305  0.13374617  1
  O  O391  1  0.62627398  0.38039513  0.63151664  1
  O  O392  1  0.62564956  0.88111560  0.13424192  1
  O  O393  1  0.63183172  0.88113524  0.62686954  1
  O  O394  1  0.12623944  0.25499956  0.26317264  1
  O  O395  1  0.11726388  0.25382575  0.75593736  1
  O  O396  1  0.12058043  0.76178384  0.25236366  1
  O  O397  1  0.11647589  0.75642942  0.75144367  1
  O  O398  1  0.61681523  0.25648663  0.25628320  1
  O  O399  1  0.62449078  0.25584835  0.75893060  1
  O  O400  1  0.62573628  0.75767871  0.25557501  1
  O  O401  1  0.61636979  0.75030919  0.75702110  1
  O  O402  1  0.39378322  0.26003412  0.25570182  1
  O  O403  1  0.37632164  0.24340246  0.74341327  1
  O  O404  1  0.37452397  0.74279620  0.24328202  1
  O  O405  1  0.37903885  0.74388517  0.74475557  1
  O  O406  1  0.87476135  0.24142457  0.24605685  1
  O  O407  1  0.87938225  0.24837247  0.73928513  1
  O  O408  1  0.87649288  0.74378639  0.24154909  1
  O  O409  1  0.88258986  0.74525902  0.74493370  1
  O  O410  1  0.37597062  0.49299587  0.49235752  1
  O  O411  1  0.37944377  0.49430530  0.99318840  1
  O  O412  1  0.38178760  0.99077885  0.49717926  1
  O  O413  1  0.38195907  0.99390527  0.99447819  1
  O  O414  1  0.88488425  0.49999840  0.49524395  1
  O  O415  1  0.88130319  0.49278165  1.00067194  1
  O  O416  1  0.87689512  0.99334545  0.49258389  1
  O  O417  1  0.88338603  0.99184858  1.00206100  1
  O  O418  1  0.11764473  0.00251096  0.00518436  1
  O  O419  1  0.12157575  0.01262760  0.50483024  1
  O  O420  1  0.11930615  0.50632191  0.00609359  1
  O  O421  1  0.11619381  0.51114536  0.49508624  1
  O  O422  1  0.61671742  0.00021953  0.00783210  1
  O  O423  1  0.61821486  0.00156134  0.50695005  1
  O  O424  1  0.62023345  0.50381485  0.00550836  1
  O  O425  1  0.62303350  0.50418185  0.50535901  1
  O  O426  1  0.36118185  0.38381325  0.11736074  1
  O  O427  1  0.36581849  0.37055392  0.61791751  1
  O  O428  1  0.36901445  0.86824632  0.11876066  1
  O  O429  1  0.36643346  0.86865350  0.62029575  1
  O  O430  1  0.86906934  0.36945762  0.12162910  1
  O  O431  1  0.87275824  0.36134672  0.62115518  1
  O  O432  1  0.87575963  0.86619383  0.12055720  1
  O  O433  1  0.87085994  0.86975019  0.61909017  1
  O  O434  1  0.13023206  0.13012939  0.38450024  1
  O  O435  1  0.12952624  0.13175136  0.87804818  1
  O  O436  1  0.13094194  0.62639789  0.38487565  1
  O  O437  1  0.13137324  0.62772718  0.88351646  1
  O  O438  1  0.63466074  0.13288605  0.37387817  1
  O  O439  1  0.62552652  0.13833687  0.87574818  1
  O  O440  1  0.63030961  0.62842342  0.37963852  1
  O  O441  1  0.62903864  0.62982651  0.88064704  1
