# generated using pymatgen
data_V93Zn93O256
_symmetry_space_group_name_H-M   'P 1'
_cell_length_a   17.04995500
_cell_length_b   17.04819337
_cell_length_c   17.05259836
_cell_angle_alpha   89.98123085
_cell_angle_beta   89.97617434
_cell_angle_gamma   89.90467699
_symmetry_Int_Tables_number   1
_chemical_formula_structural   V93Zn93O256
_chemical_formula_sum   'V93 Zn93 O256'
_cell_volume   4956.68706703
_cell_formula_units_Z   1
loop_
 _symmetry_equiv_pos_site_id
 _symmetry_equiv_pos_as_xyz
  1  'x, y, z'
loop_
 _atom_site_type_symbol
 _atom_site_label
 _atom_site_symmetry_multiplicity
 _atom_site_fract_x
 _atom_site_fract_y
 _atom_site_fract_z
 _atom_site_occupancy
  V  V0  1  0.25022716  0.12341578  0.87543013  1
  V  V1  1  0.37502140  0.62403375  0.75025634  1
  V  V2  1  0.62443449  0.74994134  0.37522307  1
  V  V3  1  0.37476543  0.62556807  0.25027902  1
  V  V4  1  0.50064728  0.50140236  -0.00065084  1
  V  V5  1  0.50114477  -0.00027173  -0.00092322  1
  V  V6  1  0.37263312  0.75249388  0.62645802  1
  V  V7  1  0.74965928  0.37363427  0.62270381  1
  V  V8  1  -0.00156247  0.62560880  0.62703835  1
  V  V9  1  0.24988531  0.24974402  -0.00000218  1
  V  V10  1  0.13077617  0.49601273  0.62481038  1
  V  V11  1  0.50079583  0.25194246  0.24983021  1
  V  V12  1  -0.00054505  0.50048673  0.50035920  1
  V  V13  1  0.12818428  0.87356861  0.74437072  1
  V  V14  1  -0.00026034  -0.00265426  0.49988682  1
  V  V15  1  0.37306378  0.12442592  0.25041393  1
  V  V16  1  -0.00388540  0.50319513  -0.00358568  1
  V  V17  1  0.75034834  -0.00292269  0.24899440  1
  V  V18  1  0.24864279  0.37590817  0.12386495  1
  V  V19  1  0.62499825  0.24803754  0.87481552  1
  V  V20  1  0.87378423  0.38050661  -0.00345785  1
  V  V21  1  0.87596269  0.00012712  0.37578747  1
  V  V22  1  0.75226375  0.75035422  0.50374319  1
  V  V23  1  0.87351885  0.62643114  0.24952641  1
  V  V24  1  0.49880583  0.49928451  0.49945521  1
  V  V25  1  0.75088709  0.12505144  0.37489353  1
  V  V26  1  0.13178442  0.37506353  0.74610653  1
  V  V27  1  0.62498456  0.49819567  0.62439135  1
  V  V28  1  0.49939455  0.75033852  0.24994497  1
  V  V29  1  0.00113635  0.12424598  0.62601106  1
  V  V30  1  0.87901249  -0.00412489  0.87483413  1
  V  V31  1  0.75896200  0.49975563  0.75540549  1
  V  V32  1  0.62534425  0.37364702  0.74865320  1
  V  V33  1  0.62573955  0.12393011  0.50006904  1
  V  V34  1  0.24916166  0.75476270  0.50599930  1
  V  V35  1  0.50033707  0.24844965  0.74961108  1
  V  V36  1  0.50065377  -0.00084929  0.50078887  1
  V  V37  1  0.37510577  0.12367312  0.74944433  1
  V  V38  1  0.49958324  0.87480735  0.37608731  1
  V  V39  1  -0.00034524  0.12571452  0.12365988  1
  V  V40  1  -0.00349510  0.38107739  0.87348875  1
  V  V41  1  0.62452663  0.62415275  0.50059248  1
  V  V42  1  0.86686004  0.75636979  0.12726469  1
  V  V43  1  0.12095946  0.75610357  0.87581019  1
  V  V44  1  0.87369196  0.25153046  0.12248987  1
  V  V45  1  0.75150153  -0.00195852  0.75080362  1
  V  V46  1  0.75039208  0.12411148  0.87505727  1
  V  V47  1  0.12465956  0.24954618  0.87400047  1
  V  V48  1  0.62728538  0.86847311  0.75407858  1
  V  V49  1  0.37397975  0.75062437  0.12571377  1
  V  V50  1  0.12317538  0.62761758  -0.00133055  1
  V  V51  1  -0.00054860  0.75174360  0.25098061  1
  V  V52  1  0.74872001  0.49984749  0.24792591  1
  V  V53  1  0.87494802  0.12590818  0.24879288  1
  V  V54  1  -0.00102590  0.75467008  0.75411337  1
  V  V55  1  0.49961113  0.37442539  0.87426979  1
  V  V56  1  0.12410479  0.50140970  0.12392144  1
  V  V57  1  0.50024606  0.12526644  0.12460696  1
  V  V58  1  0.62564164  0.12525914  -0.00074183  1
  V  V59  1  0.87265809  0.87708854  0.00508181  1
  V  V60  1  0.50357006  0.86898815  0.87623867  1
  V  V61  1  0.74957457  0.24936937  0.49939324  1
  V  V62  1  0.00116941  -0.00381317  -0.00270686  1
  V  V63  1  0.36850048  0.37513394  0.50269283  1
  V  V64  1  0.74956936  0.62435576  0.37512045  1
  V  V65  1  0.24821627  0.87794235  0.12717124  1
  V  V66  1  0.12436745  0.12409578  -0.00005408  1
  V  V67  1  0.62802140  0.87572130  0.24958099  1
  V  V68  1  0.63088056  -0.00359266  0.12579581  1
  V  V69  1  0.62388214  0.50256890  0.12281275  1
  V  V70  1  0.37199478  0.50015442  0.87440298  1
  V  V71  1  0.74410831  0.75329267  -0.00539139  1
  V  V72  1  0.00035145  0.37643191  0.37283494  1
  V  V73  1  0.37653701  -0.00109528  0.87466363  1
  V  V74  1  0.87560938  0.24798996  0.62506352  1
  V  V75  1  0.37350687  0.87495917  0.50475430  1
  V  V76  1  0.62475842  0.25021662  0.37356354  1
  V  V77  1  0.62665156  -0.00165400  0.62632309  1
  V  V78  1  0.12626786  0.25114575  0.37367449  1
  V  V79  1  0.25011103  0.62620144  0.37438680  1
  V  V80  1  0.12725488  0.12533901  0.49994077  1
  V  V81  1  0.37472512  0.00083501  0.37558057  1
  V  V82  1  0.25058909  -0.00626580  0.74380391  1
  V  V83  1  0.12359589  0.75132902  0.37508344  1
  V  V84  1  0.24886804  0.75063627  0.00026794  1
  V  V85  1  -0.00101255  0.62759726  0.12367685  1
  V  V86  1  0.37404570  0.50038146  0.37509317  1
  V  V87  1  0.87497606  0.37450955  0.49851247  1
  V  V88  1  0.50247993  0.74773204  0.75317856  1
  V  V89  1  0.00012050  0.24881648  0.74934602  1
  V  V90  1  0.36867306  0.25356792  0.62443246  1
  V  V91  1  0.49947092  0.62424191  0.62608998  1
  V  V92  1  0.50081421  0.12437829  0.62492895  1
  Zn  Zn93  1  0.24844544  0.62568874  0.87307798  1
  Zn  Zn94  1  0.49870622  0.62694564  0.12324340  1
  Zn  Zn95  1  0.24871660  0.49984478  0.24983272  1
  Zn  Zn96  1  0.12490373  0.00162589  0.12821566  1
  Zn  Zn97  1  0.88144184  0.61998819  0.76142445  1
  Zn  Zn98  1  0.25277050  0.49816758  0.74527781  1
  Zn  Zn99  1  0.24595127  0.00091611  0.25190512  1
  Zn  Zn100  1  0.87692918  0.12302139  0.75141633  1
  Zn  Zn101  1  0.75293272  0.87356016  0.62652203  1
  Zn  Zn102  1  0.12249690  0.87988437  0.25073964  1
  Zn  Zn103  1  0.74901628  0.37572171  0.12273595  1
  Zn  Zn104  1  0.49941943  0.37569482  0.37415205  1
  Zn  Zn105  1  -0.00140087  0.87492988  0.37451827  1
  Zn  Zn106  1  0.75052270  0.62551326  0.87633573  1
  Zn  Zn107  1  0.37413108  0.37353617  -0.00051401  1
  Zn  Zn108  1  0.12514973  0.62471522  0.50104033  1
  Zn  Zn109  1  0.24808138  0.25297290  0.50231651  1
  Zn  Zn110  1  0.25032757  0.12532750  0.37486553  1
  Zn  Zn111  1  0.37491008  0.25160345  0.12344436  1
  Zn  Zn112  1  0.87478709  0.50012408  0.37398524  1
  Zn  Zn113  1  -0.00027878  0.25151578  0.24827942  1
  Zn  Zn114  1  0.62457384  0.37559669  0.24927476  1
  Zn  Zn115  1  0.37497145  0.87466762  0.00017825  1
  Zn  Zn116  1  0.62174719  0.63440808  -0.00877914  1
  Zn  Zn117  1  0.12917789  -0.00566356  0.62141226  1
  Zn  Zn118  1  0.12433249  0.37697626  0.24845806  1
  Zn  Zn119  1  0.87550285  0.87324768  0.50246496  1
  Zn  Zn120  1  0.74894301  0.25248048  -0.00169199  1
  Zn  Zn121  1  0.87418748  0.75067456  0.62998915  1
  Zn  Zn122  1  0.18611931  0.18956567  0.18701014  1
  Zn  Zn123  1  0.18740625  0.18415351  0.68846842  1
  Zn  Zn124  1  0.18731774  0.68912611  0.18838008  1
  Zn  Zn125  1  0.18697797  0.68307335  0.68876230  1
  Zn  Zn126  1  0.68849323  0.18554330  0.18607939  1
  Zn  Zn127  1  0.68948487  0.18493719  0.68856704  1
  Zn  Zn128  1  0.68505017  0.68623109  0.18457912  1
  Zn  Zn129  1  0.68675068  0.68392664  0.68838693  1
  Zn  Zn130  1  0.31201556  0.31416138  0.31248750  1
  Zn  Zn131  1  0.31321809  0.31147944  0.81307476  1
  Zn  Zn132  1  0.31131638  0.81360467  0.31402312  1
  Zn  Zn133  1  0.31310092  0.81144856  0.81449989  1
  Zn  Zn134  1  0.81256196  0.31351374  0.31063269  1
  Zn  Zn135  1  0.81247660  0.31188256  0.81156979  1
  Zn  Zn136  1  0.81238645  0.81540777  0.31665184  1
  Zn  Zn137  1  0.81692605  0.81361219  0.81599547  1
  Zn  Zn138  1  0.18751661  0.43926376  0.43852499  1
  Zn  Zn139  1  0.18443571  0.43736016  0.93778131  1
  Zn  Zn140  1  0.18905947  0.93706051  0.43524836  1
  Zn  Zn141  1  0.18770025  0.93587109  0.93577670  1
  Zn  Zn142  1  0.68548284  0.43618499  0.43434234  1
  Zn  Zn143  1  0.68561634  0.43661886  0.93688170  1
  Zn  Zn144  1  0.68856282  0.93611727  0.43614973  1
  Zn  Zn145  1  0.69037746  0.93588472  0.93837111  1
  Zn  Zn146  1  0.31417159  0.06145425  0.06298452  1
  Zn  Zn147  1  0.31341831  0.06426590  0.56240205  1
  Zn  Zn148  1  0.31124510  0.56430519  0.06164087  1
  Zn  Zn149  1  0.31193659  0.56638707  0.56037371  1
  Zn  Zn150  1  0.81174337  0.06461807  0.06140540  1
  Zn  Zn151  1  0.81375987  0.06190924  0.56464804  1
  Zn  Zn152  1  0.81228173  0.56734325  0.06221950  1
  Zn  Zn153  1  0.81456540  0.56194800  0.56598934  1
  Zn  Zn154  1  0.43423409  0.43816613  0.18631266  1
  Zn  Zn155  1  0.43801597  0.43593120  0.68697391  1
  Zn  Zn156  1  0.43829028  0.93763095  0.18711723  1
  Zn  Zn157  1  0.43905267  0.93499351  0.68822187  1
  Zn  Zn158  1  0.93709055  0.43918820  0.18496470  1
  Zn  Zn159  1  0.94099657  0.43405640  0.68416421  1
  Zn  Zn160  1  0.93922589  0.93855780  0.18777568  1
  Zn  Zn161  1  0.93859598  0.93376481  0.68473361  1
  Zn  Zn162  1  0.06152570  0.06385191  0.31132582  1
  Zn  Zn163  1  0.06415485  0.06020073  0.81270621  1
  Zn  Zn164  1  0.06354066  0.56427877  0.31028955  1
  Zn  Zn165  1  0.06546731  0.56416225  0.81157550  1
  Zn  Zn166  1  0.56175920  0.06327710  0.31270299  1
  Zn  Zn167  1  0.56373148  0.05915875  0.81227291  1
  Zn  Zn168  1  0.56084455  0.56372925  0.31243962  1
  Zn  Zn169  1  0.56868778  0.56362328  0.81480354  1
  Zn  Zn170  1  0.43808206  0.18829886  0.43713286  1
  Zn  Zn171  1  0.43663979  0.18695312  0.93822569  1
  Zn  Zn172  1  0.43615588  0.68757427  0.43829811  1
  Zn  Zn173  1  0.43508572  0.68677957  0.93858834  1
  Zn  Zn174  1  0.93934084  0.18712288  0.43735142  1
  Zn  Zn175  1  0.93748133  0.18781695  0.93664863  1
  Zn  Zn176  1  0.93663000  0.68487065  0.43768759  1
  Zn  Zn177  1  0.93071463  0.68709076  0.93483926  1
  Zn  Zn178  1  0.06163808  0.31323856  0.06023060  1
  Zn  Zn179  1  0.06161615  0.31240822  0.56162311  1
  Zn  Zn180  1  0.06058547  0.81462859  0.06425332  1
  Zn  Zn181  1  0.06434007  0.81147876  0.56537046  1
  Zn  Zn182  1  0.56288069  0.31512246  0.06284736  1
  Zn  Zn183  1  0.55873917  0.31243025  0.56103993  1
  Zn  Zn184  1  0.56061110  0.81597935  0.06583797  1
  Zn  Zn185  1  0.56250300  0.81187347  0.56610081  1
  O  O186  1  0.11822726  0.12566584  0.11700260  1
  O  O187  1  0.11958885  0.12463754  0.61454536  1
  O  O188  1  0.11834463  0.62299494  0.11855736  1
  O  O189  1  0.11380140  0.61547836  0.62521905  1
  O  O190  1  0.61939540  0.11669388  0.11969436  1
  O  O191  1  0.62042905  0.11924175  0.61977730  1
  O  O192  1  0.62108263  0.61361627  0.11872649  1
  O  O193  1  0.61810707  0.61796051  0.61960566  1
  O  O194  1  0.37711172  0.38096448  0.38367447  1
  O  O195  1  0.38105733  0.38369653  0.87458986  1
  O  O196  1  0.38140973  0.88025035  0.38252354  1
  O  O197  1  0.38690377  0.88091846  0.87522058  1
  O  O198  1  0.88430913  0.37559380  0.37974473  1
  O  O199  1  0.88655692  0.36696007  0.88420941  1
  O  O200  1  0.87817740  0.88428944  0.38199794  1
  O  O201  1  0.87284227  0.88856942  0.88788073  1
  O  O202  1  0.25942345  0.00347532  0.37241270  1
  O  O203  1  0.25643338  0.00464351  0.86748847  1
  O  O204  1  0.25555779  0.50807497  0.37450493  1
  O  O205  1  0.26245002  0.50005754  0.87601573  1
  O  O206  1  0.75536978  0.00716494  0.37085907  1
  O  O207  1  0.75884235  0.00419771  0.87107527  1
  O  O208  1  0.74928608  0.50565164  0.36441139  1
  O  O209  1  0.74801784  0.49001331  0.85564548  1
  O  O210  1  0.24275131  0.49150326  0.12203946  1
  O  O211  1  0.23450443  0.50672236  0.62352935  1
  O  O212  1  0.24923090  0.99001414  0.12589137  1
  O  O213  1  0.24905242  1.00685652  0.63984013  1
  O  O214  1  0.74153403  0.50288667  0.13216661  1
  O  O215  1  0.74373963  0.49173469  0.62997085  1
  O  O216  1  0.73814841  1.00814266  0.13173700  1
  O  O217  1  0.74411367  0.99866443  0.63218659  1
  O  O218  1  0.00013867  0.37493571  0.26107089  1
  O  O219  1  0.00740178  0.36942277  0.75707630  1
  O  O220  1  0.00160254  0.86698707  0.25324460  1
  O  O221  1  0.01105503  0.86260229  0.74569449  1
  O  O222  1  0.49893319  0.36227171  0.24960814  1
  O  O223  1  0.50600279  0.36812241  0.75426094  1
  O  O224  1  0.50608565  0.87001957  0.25706258  1
  O  O225  1  0.50814445  0.86934956  0.75806662  1
  O  O226  1  0.49311059  0.13286054  0.24564928  1
  O  O227  1  0.49512226  0.12834927  0.74515767  1
  O  O228  1  0.49311951  0.63322424  0.24858478  1
  O  O229  1  0.49600996  0.62822042  0.74548480  1
  O  O230  1  0.99149171  0.12761411  0.24228227  1
  O  O231  1  1.00148328  0.13089233  0.74437678  1
  O  O232  1  0.99291410  0.63155890  0.24393551  1
  O  O233  1  1.00214511  0.63366788  0.74325605  1
  O  O234  1  0.36661587  0.25190815  0.00180821  1
  O  O235  1  0.37534430  0.25678365  0.50728572  1
  O  O236  1  0.36763911  0.75147441  0.00715568  1
  O  O237  1  0.36784914  0.75456289  0.50544289  1
  O  O238  1  0.87492104  0.25960539  0.00727458  1
  O  O239  1  0.86905900  0.25389434  0.50448999  1
  O  O240  1  0.86885991  0.76018528  0.00827314  1
  O  O241  1  0.86256961  0.74811598  0.50079598  1
  O  O242  1  0.12506229  0.24262662  0.49290553  1
  O  O243  1  0.12918465  0.24399284  0.99286745  1
  O  O244  1  0.13222096  0.74915807  0.49325288  1
  O  O245  1  0.12617391  0.74783579  0.99269802  1
  O  O246  1  0.62968619  0.24372065  0.49520127  1
  O  O247  1  0.62495179  0.24407336  0.99324335  1
  O  O248  1  0.63091109  0.74364225  0.49594632  1
  O  O249  1  0.64182725  0.75570582  1.01229878  1
  O  O250  1  0.49990935  0.24438053  0.13343464  1
  O  O251  1  0.49252759  0.24326356  0.63055456  1
  O  O252  1  0.49291350  0.75035600  0.13182311  1
  O  O253  1  0.49439165  0.74258237  0.63210787  1
  O  O254  1  0.98951464  0.24558120  0.12383388  1
  O  O255  1  0.99478769  0.24466786  0.62925415  1
  O  O256  1  0.99031358  0.74608482  0.13019073  1
  O  O257  1  1.00237223  0.74028466  0.63421734  1
  O  O258  1  0.00815614  0.25998248  0.37582477  1
  O  O259  1  0.00591150  0.25797263  0.86989385  1
  O  O260  1  0.00818297  0.74903030  0.37162700  1
  O  O261  1  0.01063245  0.74408841  0.86573623  1
  O  O262  1  0.50647616  0.24844745  0.36471803  1
  O  O263  1  0.50455916  0.25352695  0.86851549  1
  O  O264  1  0.50527632  0.75499050  0.37090112  1
  O  O265  1  0.49461917  0.76120058  0.87058107  1
  O  O266  1  0.23800776  0.12629193  0.49814657  1
  O  O267  1  0.24471505  0.12865613  0.99462449  1
  O  O268  1  0.24856348  0.63683727  0.49201458  1
  O  O269  1  0.24091840  0.63321259  0.99908786  1
  O  O270  1  0.74514843  0.13009682  0.49507204  1
  O  O271  1  0.74277165  0.12714269  0.99239576  1
  O  O272  1  0.74444669  0.63008757  0.49625550  1
  O  O273  1  0.75116173  0.64437994  1.00277202  1
  O  O274  1  0.24845478  0.36886048  0.00744786  1
  O  O275  1  0.26411617  0.37395008  0.49774493  1
  O  O276  1  0.25150501  0.86961740  0.00884216  1
  O  O277  1  0.25686860  0.86258484  0.49517246  1
  O  O278  1  0.76086226  0.37435162  0.00007840  1
  O  O279  1  0.75435426  0.36885578  0.50317955  1
  O  O280  1  0.76133452  0.86747190  0.00171612  1
  O  O281  1  0.74755344  0.86151532  0.50153602  1
  O  O282  1  0.12747949  0.49904812  0.23982070  1
  O  O283  1  0.12584221  0.49112065  0.74240896  1
  O  O284  1  0.12782259  0.99852725  0.24694314  1
  O  O285  1  0.13281354  0.99037128  0.75117705  1
  O  O286  1  0.63168100  0.50196943  0.24137203  1
  O  O287  1  0.63287159  0.49140943  0.74211942  1
  O  O288  1  0.62911039  0.99743926  0.24366590  1
  O  O289  1  0.63076285  0.99037012  0.74561247  1
  O  O290  1  0.37849389  0.01107863  0.25631998  1
  O  O291  1  0.36946748  0.00372094  0.75379593  1
  O  O292  1  0.37314880  0.50721011  0.25688689  1
  O  O293  1  0.37537936  0.50337453  0.75797105  1
  O  O294  1  0.87024263  0.00615584  0.25477322  1
  O  O295  1  0.87254507  -0.00240285  0.76015110  1
  O  O296  1  0.86440862  0.50748248  0.24750296  1
  O  O297  1  0.86123107  0.49438393  0.74211427  1
  O  O298  1  0.11650895  0.36801120  0.37650466  1
  O  O299  1  0.11572658  0.36954555  0.86747868  1
  O  O300  1  0.12338532  0.86180975  0.37410768  1
  O  O301  1  0.12789236  0.86301132  0.86523406  1
  O  O302  1  0.62063528  0.36627190  0.37035088  1
  O  O303  1  0.61854564  0.36780989  0.86861836  1
  O  O304  1  0.61810366  0.86937905  0.37020589  1
  O  O305  1  0.61506842  0.88218485  0.86521503  1
  O  O306  1  0.38184086  0.12614106  0.13427105  1
  O  O307  1  0.38241996  0.13215531  0.62973190  1
  O  O308  1  0.37502343  0.63225578  0.13185152  1
  O  O309  1  0.38138085  0.63037801  0.63044189  1
  O  O310  1  0.87897566  0.13377027  0.12746404  1
  O  O311  1  0.88264433  0.13085539  0.62751940  1
  O  O312  1  0.88039735  0.63601162  0.13025080  1
  O  O313  1  0.88863142  0.62503532  0.63189104  1
  O  O314  1  0.24903582  0.25970422  0.11836147  1
  O  O315  1  0.26520381  0.24236568  0.62450010  1
  O  O316  1  0.25385189  0.75856983  0.12031743  1
  O  O317  1  0.25520698  0.74141262  0.61333287  1
  O  O318  1  0.76120392  0.25175332  0.12215961  1
  O  O319  1  0.75461310  0.25367033  0.61900832  1
  O  O320  1  0.76283935  0.74751260  0.12070864  1
  O  O321  1  0.75027453  0.74725042  0.61479900  1
  O  O322  1  0.23764612  0.24943034  0.37757252  1
  O  O323  1  0.24447292  0.24334791  0.87905479  1
  O  O324  1  0.24266066  0.74581126  0.38309284  1
  O  O325  1  0.24074498  0.74894197  0.88206078  1
  O  O326  1  0.74561789  0.24460156  0.37953495  1
  O  O327  1  0.74270430  0.24318556  0.87436693  1
  O  O328  1  0.74357826  0.74374232  0.38330192  1
  O  O329  1  0.75208323  0.75584055  0.89289571  1
  O  O330  1  0.00443845  0.11770051  0.00408862  1
  O  O331  1  0.00886673  0.11770475  0.50435632  1
  O  O332  1  0.00293230  0.62274944  0.00457452  1
  O  O333  1  0.00103816  0.61953702  0.51005275  1
  O  O334  1  0.50621183  0.11929630  0.00390282  1
  O  O335  1  0.50619399  0.11903732  0.50500532  1
  O  O336  1  0.50148259  0.61344337  0.00059093  1
  O  O337  1  0.50470257  0.61983351  0.50597381  1
  O  O338  1  0.48932741  0.38135892  0.49784965  1
  O  O339  1  0.49788080  0.38502147  0.99336557  1
  O  O340  1  0.49578543  0.87991713  0.49538525  1
  O  O341  1  0.50065210  0.88069361  0.99071399  1
  O  O342  1  0.99464148  0.37949529  0.49133951  1
  O  O343  1  0.99374156  0.38139281  0.99118851  1
  O  O344  1  1.00268221  0.88806471  0.50059911  1
  O  O345  1  0.98945296  0.88735164  1.00523763  1
  O  O346  1  0.49275072  0.50037103  0.38201386  1
  O  O347  1  0.49254875  0.49455423  0.88083773  1
  O  O348  1  0.49583684  0.99493030  0.38188018  1
  O  O349  1  0.49588411  0.99147855  0.87897784  1
  O  O350  1  1.00017727  0.49176723  0.37995641  1
  O  O351  1  1.00581992  0.48789035  0.87858237  1
  O  O352  1  0.99476925  1.00145985  0.38526404  1
  O  O353  1  0.99039936  1.00737376  0.88648190  1
  O  O354  1  -0.00073416  0.00782511  0.11338157  1
  O  O355  1  0.00364133  0.00573136  0.61591077  1
  O  O356  1  0.00434375  0.50784724  0.11769329  1
  O  O357  1  0.00795345  0.50638292  0.62107230  1
  O  O358  1  0.50896862  0.00582337  0.11970874  1
  O  O359  1  0.50597969  0.00522562  0.62056133  1
  O  O360  1  0.50561570  0.50007205  0.11601785  1
  O  O361  1  0.50520207  0.50471948  0.61967447  1
  O  O362  1  0.24714616  0.37663532  0.23724177  1
  O  O363  1  0.23512892  0.37580360  0.75553114  1
  O  O364  1  0.24884229  0.87612724  0.23916307  1
  O  O365  1  0.24367776  0.88481592  0.75652848  1
  O  O366  1  0.74940868  0.38833409  0.24689139  1
  O  O367  1  0.74530719  0.38016002  0.74178931  1
  O  O368  1  0.74072486  0.88444975  0.25875324  1
  O  O369  1  0.74162288  0.87837022  0.75240436  1
  O  O370  1  0.26293621  0.12630468  0.25004822  1
  O  O371  1  0.25498634  0.11611782  0.75698432  1
  O  O372  1  0.25706359  0.62566015  0.25699757  1
  O  O373  1  0.25907723  0.62011817  0.75322022  1
  O  O374  1  0.75560355  0.11871409  0.25605336  1
  O  O375  1  0.75259383  0.11602340  0.75703788  1
  O  O376  1  0.75281895  0.61811211  0.25439964  1
  O  O377  1  0.75073189  0.60612871  0.74500157  1
  O  O378  1  0.37548231  0.12032533  0.36686832  1
  O  O379  1  0.37075546  0.11908705  0.86804088  1
  O  O380  1  0.36960760  0.62073118  0.37055168  1
  O  O381  1  0.37536080  0.61468918  0.86876620  1
  O  O382  1  0.87014384  0.12140479  0.36926324  1
  O  O383  1  0.86957096  0.11415683  0.87535065  1
  O  O384  1  0.86776339  0.62234242  0.36715942  1
  O  O385  1  0.86393995  0.62458794  0.87241457  1
  O  O386  1  0.13150111  0.38129676  0.12343557  1
  O  O387  1  0.11584900  0.38345369  0.63506510  1
  O  O388  1  0.13572306  0.87654674  0.12642561  1
  O  O389  1  0.12738002  0.87479176  0.63939292  1
  O  O390  1  0.62788960  0.38808007  0.12740673  1
  O  O391  1  0.62942937  0.37755559  0.62837806  1
  O  O392  1  0.61871838  0.88996180  0.13327896  1
  O  O393  1  0.62553027  0.88072265  0.63700368  1
  O  O394  1  0.12050267  0.25221065  0.26133085  1
  O  O395  1  0.12040633  0.25638030  0.75331937  1
  O  O396  1  0.11826729  0.75001648  0.26025186  1
  O  O397  1  0.12147453  0.75511732  0.75665506  1
  O  O398  1  0.61638202  0.24825700  0.25378932  1
  O  O399  1  0.61973636  0.25345376  0.75413602  1
  O  O400  1  0.62038206  0.75457674  0.25486577  1
  O  O401  1  0.61956587  0.76054663  0.74450670  1
  O  O402  1  0.38401361  0.24122180  0.25008946  1
  O  O403  1  0.38021425  0.24457596  0.74351998  1
  O  O404  1  0.38044256  0.74587067  0.24657406  1
  O  O405  1  0.38119628  0.74409589  0.74622217  1
  O  O406  1  0.87538018  0.24544267  0.23925756  1
  O  O407  1  0.88210714  0.24844824  0.74304525  1
  O  O408  1  0.87752707  0.74708560  0.24487933  1
  O  O409  1  0.88760572  0.74989612  0.75143362  1
  O  O410  1  0.37906465  0.49374451  0.49701827  1
  O  O411  1  0.38360529  0.50005617  0.99121661  1
  O  O412  1  0.38127890  0.99595320  0.49666590  1
  O  O413  1  0.38357981  0.99912017  0.99281044  1
  O  O414  1  0.88075735  0.49249204  0.49836436  1
  O  O415  1  0.88052216  0.48865183  1.00829703  1
  O  O416  1  0.88562738  1.00303838  0.49482070  1
  O  O417  1  0.88026634  0.99525411  0.99598167  1
  O  O418  1  0.11546068  0.00505403  -0.00226596  1
  O  O419  1  0.11869012  0.00804284  0.49935047  1
  O  O420  1  0.11649162  0.50763153  0.00353792  1
  O  O421  1  0.11763830  0.50042033  0.50847774  1
  O  O422  1  0.62192794  0.00415102  0.00734454  1
  O  O423  1  0.62056697  0.00450253  0.50507656  1
  O  O424  1  0.61581048  0.49798820  0.00704087  1
  O  O425  1  0.61994956  0.50446986  0.50438708  1
  O  O426  1  0.36211333  0.37434374  0.12109363  1
  O  O427  1  0.38153629  0.36396913  0.61675943  1
  O  O428  1  0.36666751  0.86978299  0.12387905  1
  O  O429  1  0.38284471  0.86536193  0.61759366  1
  O  O430  1  0.87595719  0.36687199  0.11522356  1
  O  O431  1  0.87072643  0.36710453  0.61732401  1
  O  O432  1  0.87869306  0.86734460  0.11755964  1
  O  O433  1  0.87057143  0.86926555  0.61978950  1
  O  O434  1  0.12300130  0.13497063  0.38388034  1
  O  O435  1  0.13064644  0.13016868  0.87969627  1
  O  O436  1  0.12979237  0.63560271  0.37695528  1
  O  O437  1  0.12680777  0.63554631  0.88065496  1
  O  O438  1  0.63107966  0.12940072  0.38082702  1
  O  O439  1  0.62940408  0.12821701  0.87949216  1
  O  O440  1  0.62961356  0.63074135  0.38108640  1
  O  O441  1  0.63729722  0.61988832  0.88027495  1
