# generated using pymatgen
data_V93Zn93O256
_symmetry_space_group_name_H-M   'P 1'
_cell_length_a   17.04853535
_cell_length_b   17.04593810
_cell_length_c   17.05128840
_cell_angle_alpha   90.00735202
_cell_angle_beta   89.99411388
_cell_angle_gamma   90.03476905
_symmetry_Int_Tables_number   1
_chemical_formula_structural   V93Zn93O256
_chemical_formula_sum   'V93 Zn93 O256'
_cell_volume   4955.24458434
_cell_formula_units_Z   1
loop_
 _symmetry_equiv_pos_site_id
 _symmetry_equiv_pos_as_xyz
  1  'x, y, z'
loop_
 _atom_site_type_symbol
 _atom_site_label
 _atom_site_symmetry_multiplicity
 _atom_site_fract_x
 _atom_site_fract_y
 _atom_site_fract_z
 _atom_site_occupancy
  V  V0  1  0.24942132  0.37590501  0.12623376  1
  V  V1  1  -0.00033115  0.25156977  0.24866651  1
  V  V2  1  0.12634359  0.62808709  0.50023816  1
  V  V3  1  0.37704499  0.75128435  0.62930839  1
  V  V4  1  0.00043677  0.62790628  0.62525605  1
  V  V5  1  0.87499898  0.50206048  0.37274738  1
  V  V6  1  0.37629616  0.62855641  0.75512152  1
  V  V7  1  0.75102849  0.75186371  0.50038226  1
  V  V8  1  0.87734448  0.12632254  0.74751245  1
  V  V9  1  0.12708519  0.50294129  0.62478321  1
  V  V10  1  0.37467703  0.50183041  0.87576107  1
  V  V11  1  0.00053900  0.50130768  0.49968789  1
  V  V12  1  0.50463823  0.36489419  0.37277527  1
  V  V13  1  0.37482127  0.87419181  0.50040255  1
  V  V14  1  0.50060298  0.49807939  0.00232657  1
  V  V15  1  0.37369296  -0.00082385  0.87453341  1
  V  V16  1  0.37474362  0.37410001  0.00102719  1
  V  V17  1  0.50035532  0.74981858  0.25089810  1
  V  V18  1  0.74393765  0.13027971  0.37324408  1
  V  V19  1  0.37368617  0.87254648  -0.00035077  1
  V  V20  1  0.12440184  0.12501712  0.00002257  1
  V  V21  1  0.00051690  -0.00077606  0.00017999  1
  V  V22  1  0.74947710  0.74851689  -0.00090171  1
  V  V23  1  0.25511762  0.37745509  0.61959387  1
  V  V24  1  0.12751192  0.75136285  0.37619790  1
  V  V25  1  0.37584195  0.24984300  0.12879452  1
  V  V26  1  0.00285957  0.87293426  0.87461858  1
  V  V27  1  0.37476282  0.25491887  0.61924666  1
  V  V28  1  0.75049011  0.49918643  0.74955011  1
  V  V29  1  0.62550822  0.37448540  0.75084639  1
  V  V30  1  0.49879203  0.87133755  0.87193069  1
  V  V31  1  0.75008150  0.37315324  0.12601105  1
  V  V32  1  0.37480453  0.00085584  0.37514084  1
  V  V33  1  0.62381262  0.75012015  0.37394300  1
  V  V34  1  -0.00216770  0.74923296  0.24877209  1
  V  V35  1  0.49886001  -0.00191572  -0.00039590  1
  V  V36  1  0.12421257  0.25269979  0.37573867  1
  V  V37  1  0.24968639  0.87416769  0.12384172  1
  V  V38  1  0.12618498  -0.00017662  0.62734158  1
  V  V39  1  0.62509089  0.12703082  0.49824727  1
  V  V40  1  0.75036457  0.62471672  0.37493744  1
  V  V41  1  0.74866080  0.87308751  0.12414310  1
  V  V42  1  0.49923188  0.00147821  0.49941663  1
  V  V43  1  0.75098165  0.37422678  0.62402108  1
  V  V44  1  0.62445201  0.49719792  0.12680422  1
  V  V45  1  0.12415225  0.00027517  0.12448653  1
  V  V46  1  0.12492005  0.87606505  0.25090574  1
  V  V47  1  0.87580053  0.37356314  -0.00081089  1
  V  V48  1  0.87532953  -0.00140691  0.87413895  1
  V  V49  1  0.24946658  0.50021383  0.25141197  1
  V  V50  1  0.62354576  -0.00000926  0.62485354  1
  V  V51  1  0.24977348  0.12669875  0.37402658  1
  V  V52  1  0.24979725  0.00059021  0.24921725  1
  V  V53  1  0.62050180  0.87243830  0.74986068  1
  V  V54  1  0.12443301  0.50737359  0.12246233  1
  V  V55  1  0.24849741  0.25073050  -0.00031195  1
  V  V56  1  0.87538242  0.62532754  0.74799340  1
  V  V57  1  0.49866892  0.24989841  0.74949267  1
  V  V58  1  0.37564157  0.49377857  0.37886358  1
  V  V59  1  0.37658738  0.12816776  0.24916064  1
  V  V60  1  0.49601867  0.49351210  0.50037995  1
  V  V61  1  0.87522069  0.37541204  0.49965678  1
  V  V62  1  0.74993152  0.87491894  0.62352923  1
  V  V63  1  0.00366026  0.50678349  -0.00049755  1
  V  V64  1  0.62482378  0.49999836  0.62533384  1
  V  V65  1  0.25023400  0.12473882  0.87343467  1
  V  V66  1  0.50014101  0.62851140  0.62932451  1
  V  V67  1  0.12805860  0.73588384  0.87927937  1
  V  V68  1  0.25150748  0.50609858  0.75550749  1
  V  V69  1  0.49883465  0.12778248  0.12783078  1
  V  V70  1  0.87492645  0.12658459  0.24679410  1
  V  V71  1  0.37603488  0.62351640  0.25280486  1
  V  V72  1  0.74738537  -0.00089901  0.24810022  1
  V  V73  1  0.87500184  0.49896818  0.87456634  1
  V  V74  1  0.62441553  0.24746532  0.87518755  1
  V  V75  1  0.49893248  0.12671823  0.62536562  1
  V  V76  1  0.61937719  0.74856110  0.87040204  1
  V  V77  1  0.24583867  0.73505058  -0.00203893  1
  V  V78  1  0.87465017  0.87365889  -0.00125683  1
  V  V79  1  0.74903785  -0.00128800  0.74929100  1
  V  V80  1  0.62233121  0.36135979  0.25389401  1
  V  V81  1  0.12384072  0.12538988  0.50085309  1
  V  V82  1  0.74859100  0.62467966  0.87457648  1
  V  V83  1  0.12464406  0.37509107  0.75153503  1
  V  V84  1  0.62368665  0.12262476  -0.00137927  1
  V  V85  1  0.62476241  0.62523754  0.50016050  1
  V  V86  1  0.50009282  0.37380937  0.87622651  1
  V  V87  1  0.87605147  -0.00142828  0.37664470  1
  V  V88  1  0.74852369  0.12283876  0.87507488  1
  V  V89  1  0.37407779  0.74868428  0.12563449  1
  V  V90  1  0.00181120  0.75052535  0.75108090  1
  V  V91  1  0.74652853  0.25098336  0.49696792  1
  V  V92  1  0.50132750  0.62259500  0.12647260  1
  Zn  Zn93  1  0.62526091  0.62305599  0.00060435  1
  Zn  Zn94  1  -0.00016250  0.37758479  0.37500715  1
  Zn  Zn95  1  0.25013265  0.87535408  0.62870775  1
  Zn  Zn96  1  0.00051089  0.87747517  0.37740959  1
  Zn  Zn97  1  0.62218969  -0.00151083  0.12361267  1
  Zn  Zn98  1  0.12246054  0.25118884  0.87483939  1
  Zn  Zn99  1  0.50142688  0.87619150  0.37251368  1
  Zn  Zn100  1  0.87526073  0.74502647  0.12374359  1
  Zn  Zn101  1  0.87359244  0.62488799  0.24664246  1
  Zn  Zn102  1  0.00054312  0.37374316  0.87415206  1
  Zn  Zn103  1  0.00015698  0.12747117  0.62436521  1
  Zn  Zn104  1  0.87656771  0.24893923  0.12048957  1
  Zn  Zn105  1  0.25092579  -0.00226665  0.74962674  1
  Zn  Zn106  1  0.25085084  0.75020817  0.50158527  1
  Zn  Zn107  1  -0.00112952  0.62688981  0.12274584  1
  Zn  Zn108  1  0.00047453  0.25181387  0.74881895  1
  Zn  Zn109  1  -0.00004808  0.12565755  0.12198838  1
  Zn  Zn110  1  0.12276389  0.37831180  0.25024879  1
  Zn  Zn111  1  0.87869204  0.24977388  0.62346273  1
  Zn  Zn112  1  0.74923054  0.50002832  0.25092819  1
  Zn  Zn113  1  0.62269757  0.87423097  0.24986190  1
  Zn  Zn114  1  0.12910972  0.87368091  0.75171815  1
  Zn  Zn115  1  0.87665678  0.75327872  0.62401119  1
  Zn  Zn116  1  0.37306032  0.12490421  0.74844615  1
  Zn  Zn117  1  -0.00156284  -0.00012962  0.50173904  1
  Zn  Zn118  1  0.87745538  0.87498700  0.50179212  1
  Zn  Zn119  1  0.75147511  0.24681930  -0.00100976  1
  Zn  Zn120  1  0.25282862  0.25636025  0.49769415  1
  Zn  Zn121  1  0.25317642  0.62463237  0.37869561  1
  Zn  Zn122  1  0.18792920  0.18792183  0.18674712  1
  Zn  Zn123  1  0.18834561  0.18983281  0.68639262  1
  Zn  Zn124  1  0.18862038  0.68693219  0.19015890  1
  Zn  Zn125  1  0.18961923  0.69074127  0.68959167  1
  Zn  Zn126  1  0.68595767  0.18687882  0.18300257  1
  Zn  Zn127  1  0.68923697  0.18801573  0.68605268  1
  Zn  Zn128  1  0.68747139  0.68514497  0.18919438  1
  Zn  Zn129  1  0.68851762  0.68886049  0.68740023  1
  Zn  Zn130  1  0.31392156  0.31450189  0.31168723  1
  Zn  Zn131  1  0.31172329  0.31306976  0.81002456  1
  Zn  Zn132  1  0.31308180  0.81389360  0.31236271  1
  Zn  Zn133  1  0.30785838  0.81123101  0.81422904  1
  Zn  Zn134  1  0.81230328  0.31469957  0.31205971  1
  Zn  Zn135  1  0.81163773  0.30980777  0.81365689  1
  Zn  Zn136  1  0.81156851  0.81250737  0.31358928  1
  Zn  Zn137  1  0.81120627  0.81147239  0.81103611  1
  Zn  Zn138  1  0.18629697  0.43936075  0.43734601  1
  Zn  Zn139  1  0.18753897  0.44007142  0.93803116  1
  Zn  Zn140  1  0.18895201  0.93885310  0.43972359  1
  Zn  Zn141  1  0.18740448  0.93347944  0.93761411  1
  Zn  Zn142  1  0.68524029  0.43768653  0.43636102  1
  Zn  Zn143  1  0.68803468  0.43643270  0.93888156  1
  Zn  Zn144  1  0.68719195  0.93727344  0.43667428  1
  Zn  Zn145  1  0.68595100  0.93611612  0.93678986  1
  Zn  Zn146  1  0.31191692  0.06173544  0.06070225  1
  Zn  Zn147  1  0.31027520  0.06574974  0.56240136  1
  Zn  Zn148  1  0.31508270  0.55966668  0.06621479  1
  Zn  Zn149  1  0.31261922  0.56476938  0.56325436  1
  Zn  Zn150  1  0.81203634  0.06017344  0.06110698  1
  Zn  Zn151  1  0.81083754  0.06254113  0.56260425  1
  Zn  Zn152  1  0.81362362  0.56177998  0.06272222  1
  Zn  Zn153  1  0.81315961  0.56377337  0.56125800  1
  Zn  Zn154  1  0.43890531  0.43462608  0.19245432  1
  Zn  Zn155  1  0.43766224  0.43847162  0.68877943  1
  Zn  Zn156  1  0.43681903  0.93780036  0.18737355  1
  Zn  Zn157  1  0.43690559  0.93881434  0.69013245  1
  Zn  Zn158  1  0.93858316  0.43746580  0.18549840  1
  Zn  Zn159  1  0.93842537  0.43921351  0.68435652  1
  Zn  Zn160  1  0.93759193  0.93405850  0.18673879  1
  Zn  Zn161  1  0.94055731  0.93840363  0.68647518  1
  Zn  Zn162  1  0.06137675  0.06487846  0.31186014  1
  Zn  Zn163  1  0.06305218  0.06177850  0.81275667  1
  Zn  Zn164  1  0.06343645  0.56642072  0.31176031  1
  Zn  Zn165  1  0.06016401  0.56054861  0.81198023  1
  Zn  Zn166  1  0.56121282  0.06405775  0.31178363  1
  Zn  Zn167  1  0.56000910  0.06032096  0.81139883  1
  Zn  Zn168  1  0.56453083  0.55720948  0.31175364  1
  Zn  Zn169  1  0.56130502  0.56139488  0.81362927  1
  Zn  Zn170  1  0.43522323  0.18648823  0.43921192  1
  Zn  Zn171  1  0.43593639  0.18674790  0.93977460  1
  Zn  Zn172  1  0.43915233  0.68533280  0.43923259  1
  Zn  Zn173  1  0.43773483  0.68669542  0.94117071  1
  Zn  Zn174  1  0.93597759  0.18731042  0.43610675  1
  Zn  Zn175  1  0.94050950  0.18851659  0.93181810  1
  Zn  Zn176  1  0.93826282  0.68934417  0.43704262  1
  Zn  Zn177  1  0.93626755  0.68772240  0.93488328  1
  Zn  Zn178  1  0.06342392  0.31580599  0.06315084  1
  Zn  Zn179  1  0.06165456  0.31374304  0.56598870  1
  Zn  Zn180  1  0.06453073  0.81071935  0.06128295  1
  Zn  Zn181  1  0.06002812  0.81743976  0.56139859  1
  Zn  Zn182  1  0.56397773  0.30959058  0.06328375  1
  Zn  Zn183  1  0.56351790  0.31242639  0.56149733  1
  Zn  Zn184  1  0.56311222  0.80997768  0.06104383  1
  Zn  Zn185  1  0.56185005  0.81319999  0.56095291  1
  O  O186  1  0.12480394  0.11765238  0.11823152  1
  O  O187  1  0.12710946  0.12049303  0.61532984  1
  O  O188  1  0.12373277  0.61053594  0.13018212  1
  O  O189  1  0.12087593  0.62192874  0.62082499  1
  O  O190  1  0.61546851  0.12213309  0.11845001  1
  O  O191  1  0.61980957  0.11976773  0.61896994  1
  O  O192  1  0.61915519  0.61594849  0.12417167  1
  O  O193  1  0.61738734  0.62040732  0.62227374  1
  O  O194  1  0.38531776  0.38819443  0.36880911  1
  O  O195  1  0.38074535  0.38012032  0.88053177  1
  O  O196  1  0.37632055  0.88166685  0.38416478  1
  O  O197  1  0.37987431  0.87768592  0.88062346  1
  O  O198  1  0.87543900  0.38520242  0.38155851  1
  O  O199  1  0.87238984  0.38094486  0.88363798  1
  O  O200  1  0.87330363  0.88912975  0.37479079  1
  O  O201  1  0.88023432  0.87956082  0.87925120  1
  O  O202  1  0.25507387  0.00658517  0.36886740  1
  O  O203  1  0.25519365  0.00969344  0.87831478  1
  O  O204  1  0.25982418  0.49920367  0.37149428  1
  O  O205  1  0.25816226  0.49493448  0.86305234  1
  O  O206  1  0.75633915  0.00880187  0.36609596  1
  O  O207  1  0.75492019  0.00301243  0.86870835  1
  O  O208  1  0.76013996  0.50591641  0.37792229  1
  O  O209  1  0.75400237  0.50434432  0.86902623  1
  O  O210  1  0.24339723  0.49529101  0.13019506  1
  O  O211  1  0.24825714  0.49528813  0.63401976  1
  O  O212  1  0.24492858  0.99430405  0.12976389  1
  O  O213  1  0.23990656  1.00112636  0.62625778  1
  O  O214  1  0.74456688  0.48689246  0.12419478  1
  O  O215  1  0.74406505  0.49508282  0.62935324  1
  O  O216  1  0.74947225  0.99153671  0.13276974  1
  O  O217  1  0.74190399  0.99553257  0.62959997  1
  O  O218  1  0.00002015  0.36309550  0.25252926  1
  O  O219  1  0.01398329  0.38078264  0.74876897  1
  O  O220  1  0.00685983  0.86707558  0.25255788  1
  O  O221  1  0.00112332  0.86757438  0.75771966  1
  O  O222  1  0.51030847  0.37866894  0.26057923  1
  O  O223  1  0.50619331  0.37076564  0.75635699  1
  O  O224  1  0.50139603  0.86717734  0.25117121  1
  O  O225  1  0.50841032  0.88011790  0.75878264  1
  O  O226  1  0.49289319  0.11690754  0.23652587  1
  O  O227  1  0.49958055  0.13243162  0.74276258  1
  O  O228  1  0.49534883  0.62858704  0.24534132  1
  O  O229  1  0.49108953  0.61578704  0.73709559  1
  O  O230  1  0.99015539  0.13307883  0.24869354  1
  O  O231  1  0.98638380  0.12439069  0.75171966  1
  O  O232  1  0.99834960  0.63838031  0.24918099  1
  O  O233  1  0.99454593  0.62955123  0.74419916  1
  O  O234  1  0.36855451  0.25588190  0.00733813  1
  O  O235  1  0.37253035  0.24807112  0.51506576  1
  O  O236  1  0.36718282  0.75364376  0.00599348  1
  O  O237  1  0.37617489  0.75783278  0.50774823  1
  O  O238  1  0.87491369  0.26069032  -0.00057599  1
  O  O239  1  0.86440652  0.25513655  0.49939393  1
  O  O240  1  0.86733580  0.75675868  -0.00114107  1
  O  O241  1  0.86630554  0.75242871  0.50149794  1
  O  O242  1  0.12514661  0.24383353  0.49083744  1
  O  O243  1  0.13113034  0.24482351  0.99958718  1
  O  O244  1  0.12528750  0.74757244  0.49110091  1
  O  O245  1  0.13445050  0.75310805  0.99250862  1
  O  O246  1  0.63857207  0.24371866  0.50522609  1
  O  O247  1  0.62588975  0.24110546  0.99218226  1
  O  O248  1  0.62941411  0.74401100  0.49457731  1
  O  O249  1  0.63155326  0.74727251  0.98909868  1
  O  O250  1  0.49220271  0.23544698  0.11685255  1
  O  O251  1  0.49375832  0.24777756  0.62885508  1
  O  O252  1  0.49391533  0.74326447  0.12954901  1
  O  O253  1  0.49125565  0.73798222  0.61897970  1
  O  O254  1  0.99819843  0.24744771  0.13593285  1
  O  O255  1  0.99618092  0.24590546  0.63085343  1
  O  O256  1  1.00033865  0.74903065  0.13509145  1
  O  O257  1  1.00019815  0.74477577  0.63227957  1
  O  O258  1  0.00764922  0.25002016  0.36631406  1
  O  O259  1  0.00478611  0.25670104  0.86687487  1
  O  O260  1  0.01103027  0.75231010  0.36703008  1
  O  O261  1  0.00782446  0.75373776  0.87160980  1
  O  O262  1  0.49375939  0.26668662  0.38508736  1
  O  O263  1  0.50405427  0.25443989  0.87038291  1
  O  O264  1  0.50576981  0.74928746  0.36917082  1
  O  O265  1  0.51173413  0.75482286  0.88241620  1
  O  O266  1  0.23984243  0.12982381  0.49226067  1
  O  O267  1  0.24488987  0.13036337  0.99271495  1
  O  O268  1  0.24231688  0.62864405  0.49881688  1
  O  O269  1  0.25559821  0.63625297  1.00614827  1
  O  O270  1  0.74585071  0.13156926  0.49168458  1
  O  O271  1  0.74334198  0.12332812  0.99314805  1
  O  O272  1  0.74321977  0.63076374  0.49577059  1
  O  O273  1  0.74839702  0.62932262  0.99199790  1
  O  O274  1  0.25607834  0.37122823  0.00582533  1
  O  O275  1  0.24419624  0.37685741  0.51585787  1
  O  O276  1  0.25644880  0.86796739  0.00721007  1
  O  O277  1  0.26505052  0.87501144  0.50380672  1
  O  O278  1  0.75888286  0.37389899  0.00778637  1
  O  O279  1  0.75294251  0.36795673  0.50325988  1
  O  O280  1  0.75435155  0.87060766  0.00627480  1
  O  O281  1  0.75017215  0.86994383  0.50644681  1
  O  O282  1  0.13005119  0.49857241  0.24357873  1
  O  O283  1  0.13453565  0.49754734  0.74512326  1
  O  O284  1  0.13029653  0.99680193  0.24567742  1
  O  O285  1  0.12686031  1.00083233  0.73888971  1
  O  O286  1  0.62856780  0.48938009  0.24232651  1
  O  O287  1  0.63035906  0.49404591  0.74533501  1
  O  O288  1  0.63822232  0.99952123  0.24793825  1
  O  O289  1  0.62974378  0.99402333  0.74408343  1
  O  O290  1  0.36832618  0.00613139  0.25524826  1
  O  O291  1  0.37265860  0.00490518  0.75907113  1
  O  O292  1  0.37055004  0.50468184  0.25879314  1
  O  O293  1  0.36937713  0.50752696  0.75476350  1
  O  O294  1  0.86615557  0.00787846  0.25444365  1
  O  O295  1  0.86883520  0.00645729  0.75522455  1
  O  O296  1  0.87482298  0.49918454  0.26285321  1
  O  O297  1  0.86944094  0.50441931  0.75440292  1
  O  O298  1  0.12264403  0.36435636  0.37383763  1
  O  O299  1  0.12659903  0.37643424  0.86262155  1
  O  O300  1  0.12655036  0.86824700  0.36939919  1
  O  O301  1  0.11705724  0.86700156  0.87434998  1
  O  O302  1  0.61725156  0.38077877  0.36556289  1
  O  O303  1  0.62021592  0.36866327  0.87018115  1
  O  O304  1  0.62261690  0.86716560  0.37213960  1
  O  O305  1  0.62001195  0.86672215  0.87032167  1
  O  O306  1  0.38028763  0.12877608  0.12820851  1
  O  O307  1  0.38048420  0.13501224  0.62646754  1
  O  O308  1  0.38158334  0.62892159  0.13315917  1
  O  O309  1  0.38285009  0.63139789  0.63235431  1
  O  O310  1  0.87411117  0.12567754  0.13603102  1
  O  O311  1  0.87477880  0.12349156  0.63605855  1
  O  O312  1  0.87834263  0.62715181  0.12933995  1
  O  O313  1  0.88224801  0.62572692  0.63089635  1
  O  O314  1  0.25473077  0.25591807  0.11924690  1
  O  O315  1  0.25810801  0.26039917  0.62502097  1
  O  O316  1  0.25386079  0.75472797  0.11959637  1
  O  O317  1  0.26451219  0.75150372  0.62241986  1
  O  O318  1  0.75315508  0.26087012  0.12092884  1
  O  O319  1  0.75353810  0.25573392  0.61483341  1
  O  O320  1  0.74941209  0.75846654  0.11943454  1
  O  O321  1  0.75001523  0.75681864  0.61835833  1
  O  O322  1  0.24097974  0.24712281  0.37582096  1
  O  O323  1  0.25024043  0.24179547  0.88157885  1
  O  O324  1  0.23865212  0.74927776  0.37544171  1
  O  O325  1  0.24067155  0.75293167  0.88685559  1
  O  O326  1  0.75641914  0.23944927  0.38303109  1
  O  O327  1  0.74163489  0.24088577  0.87596345  1
  O  O328  1  0.74403742  0.74445499  0.38034826  1
  O  O329  1  0.74111093  0.74473774  0.87962313  1
  O  O330  1  0.00517338  0.11758029  -0.00015381  1
  O  O331  1  0.01277299  0.12414507  0.49817845  1
  O  O332  1  -0.00762626  0.60973945  0.00043918  1
  O  O333  1  0.00668976  0.62142260  0.50574169  1
  O  O334  1  0.50312612  0.11740884  0.00676531  1
  O  O335  1  0.50573086  0.12106805  0.50514608  1
  O  O336  1  0.50056957  0.61587096  0.00909576  1
  O  O337  1  0.50509134  0.61536371  0.51066046  1
  O  O338  1  0.50948334  0.38869962  0.49308949  1
  O  O339  1  0.49423417  0.37805548  0.99580954  1
  O  O340  1  0.48975627  0.88244617  0.49857969  1
  O  O341  1  0.49314539  0.87802659  0.99466623  1
  O  O342  1  0.99416209  0.38332336  0.49957553  1
  O  O343  1  0.98943550  0.38351036  1.00029351  1
  O  O344  1  0.99462791  0.88224290  0.49419049  1
  O  O345  1  0.99381117  0.87942053  0.99509286  1
  O  O346  1  0.49372983  0.49489332  0.38385004  1
  O  O347  1  0.49528229  0.49254002  0.88154550  1
  O  O348  1  0.49246389  1.00147828  0.38153908  1
  O  O349  1  0.49361099  0.99290226  0.88104730  1
  O  O350  1  0.99211115  0.50126434  0.38089479  1
  O  O351  1  0.99354713  0.49660694  0.88276362  1
  O  O352  1  0.98675680  1.00209963  0.37242078  1
  O  O353  1  0.99488117  0.99330356  0.88084614  1
  O  O354  1  0.00573519  0.00037358  0.11875538  1
  O  O355  1  0.01187751  0.00612647  0.62260717  1
  O  O356  1  0.00818077  0.49997055  0.11751805  1
  O  O357  1  0.00752997  0.50798671  0.61903338  1
  O  O358  1  0.49896082  0.00856323  0.11760043  1
  O  O359  1  0.50444622  0.00686002  0.61923688  1
  O  O360  1  0.50421970  0.50236847  0.12131479  1
  O  O361  1  0.50392349  0.50569430  0.61830465  1
  O  O362  1  0.24857650  0.38310013  0.24357758  1
  O  O363  1  0.24421136  0.38598969  0.74182634  1
  O  O364  1  0.24569829  0.88122835  0.24348141  1
  O  O365  1  0.24727742  0.87934144  0.74648982  1
  O  O366  1  0.74425425  0.37624006  0.24116794  1
  O  O367  1  0.74504145  0.37991066  0.74485993  1
  O  O368  1  0.75019217  0.88338334  0.24095354  1
  O  O369  1  0.74207135  0.88031298  0.74436958  1
  O  O370  1  0.25505369  0.11904310  0.25463507  1
  O  O371  1  0.24985266  0.12556355  0.76372113  1
  O  O372  1  0.25812124  0.61774380  0.25403926  1
  O  O373  1  0.26255609  0.61445500  0.74318201  1
  O  O374  1  0.75519013  0.11971062  0.25423293  1
  O  O375  1  0.75574717  0.11801196  0.75455380  1
  O  O376  1  0.75276518  0.62111594  0.25974099  1
  O  O377  1  0.75473734  0.61817997  0.75396919  1
  O  O378  1  0.36941160  0.12087637  0.37003560  1
  O  O379  1  0.36532214  0.11927424  0.87678715  1
  O  O380  1  0.37639326  0.61290772  0.37090344  1
  O  O381  1  0.38652327  0.61873697  0.86236613  1
  O  O382  1  0.86526696  0.11860709  0.36446218  1
  O  O383  1  0.86852232  0.11796859  0.86749849  1
  O  O384  1  0.86965602  0.61579571  0.37555555  1
  O  O385  1  0.86806335  0.61838449  0.86776971  1
  O  O386  1  0.13209436  0.38516499  0.12818537  1
  O  O387  1  0.13412019  0.38347524  0.63294168  1
  O  O388  1  0.13058102  0.88110791  0.13113585  1
  O  O389  1  0.12733903  0.88756897  0.62477167  1
  O  O390  1  0.63128990  0.37680051  0.13127793  1
  O  O391  1  0.63054585  0.38052817  0.63117260  1
  O  O392  1  0.63649976  0.87693884  0.12551257  1
  O  O393  1  0.62819991  0.88051068  0.62946552  1
  O  O394  1  0.11670804  0.24814313  0.25934960  1
  O  O395  1  0.12720330  0.26460556  0.74987170  1
  O  O396  1  0.11931514  0.75557226  0.25718795  1
  O  O397  1  0.11988525  0.75083881  0.75936584  1
  O  O398  1  0.62940210  0.26191027  0.24729374  1
  O  O399  1  0.61949325  0.25517441  0.75458946  1
  O  O400  1  0.61815441  0.74971413  0.25644097  1
  O  O401  1  0.63034229  0.75558846  0.76247708  1
  O  O402  1  0.36737563  0.24066537  0.24138260  1
  O  O403  1  0.38141319  0.24862754  0.74038807  1
  O  O404  1  0.37943210  0.74413913  0.24514637  1
  O  O405  1  0.37077578  0.73952519  0.74192320  1
  O  O406  1  0.88217509  0.24149531  0.25132677  1
  O  O407  1  0.87236914  0.23726453  0.74829574  1
  O  O408  1  0.88677994  0.75157016  0.25028777  1
  O  O409  1  0.88215967  0.74221789  0.75003985  1
  O  O410  1  0.38570013  0.50630139  0.49237035  1
  O  O411  1  0.38019391  0.49318455  0.99585280  1
  O  O412  1  0.37943310  0.99449059  0.49590860  1
  O  O413  1  0.37929218  0.99217748  0.99462527  1
  O  O414  1  0.88030100  0.49616241  0.49195523  1
  O  O415  1  0.88148420  0.49064347  0.99478002  1
  O  O416  1  0.87401968  1.00362407  0.48700019  1
  O  O417  1  0.87990220  0.99392593  0.99333618  1
  O  O418  1  0.11973736  0.00408670  0.00537236  1
  O  O419  1  0.12588792  0.01093908  0.50607594  1
  O  O420  1  0.11482537  0.49266256  0.00908352  1
  O  O421  1  0.12023017  0.50738914  0.50505418  1
  O  O422  1  0.61714669  0.00495432  -0.00030063  1
  O  O423  1  0.61978497  0.00655619  0.50512859  1
  O  O424  1  0.61774942  0.49823570  0.00778034  1
  O  O425  1  0.61741018  0.50653278  0.50640813  1
  O  O426  1  0.37015639  0.37044329  0.12090867  1
  O  O427  1  0.36637989  0.36791045  0.63275763  1
  O  O428  1  0.36923362  0.86779708  0.12019878  1
  O  O429  1  0.38006555  0.86625814  0.61815692  1
  O  O430  1  0.86659788  0.37498794  0.11664644  1
  O  O431  1  0.86747089  0.37652502  0.61737274  1
  O  O432  1  0.86346137  0.87322061  0.11813348  1
  O  O433  1  0.86517672  0.87520021  0.62430347  1
  O  O434  1  0.12969057  0.13320759  0.38058492  1
  O  O435  1  0.13435187  0.12555905  0.88175084  1
  O  O436  1  0.12714519  0.63568374  0.38131869  1
  O  O437  1  0.12091951  0.63674696  0.87211513  1
  O  O438  1  0.63763939  0.11916872  0.37977818  1
  O  O439  1  0.62856238  0.12764914  0.87872305  1
  O  O440  1  0.62974062  0.62856647  0.38116717  1
  O  O441  1  0.62919678  0.63190503  0.87489300  1
