# generated using pymatgen
data_V93Zn93O256
_symmetry_space_group_name_H-M   'P 1'
_cell_length_a   17.05880751
_cell_length_b   17.05500949
_cell_length_c   17.06210103
_cell_angle_alpha   89.97240954
_cell_angle_beta   90.07063045
_cell_angle_gamma   90.01194869
_symmetry_Int_Tables_number   1
_chemical_formula_structural   V93Zn93O256
_chemical_formula_sum   'V93 Zn93 O256'
_cell_volume   4964.01121126
_cell_formula_units_Z   1
loop_
 _symmetry_equiv_pos_site_id
 _symmetry_equiv_pos_as_xyz
  1  'x, y, z'
loop_
 _atom_site_type_symbol
 _atom_site_label
 _atom_site_symmetry_multiplicity
 _atom_site_fract_x
 _atom_site_fract_y
 _atom_site_fract_z
 _atom_site_occupancy
  V  V0  1  0.00036701  0.00011128  0.49968384  1
  V  V1  1  0.75121140  0.62480784  0.87482372  1
  V  V2  1  0.74978064  0.24825629  -0.00013916  1
  V  V3  1  0.62449146  0.50081451  0.62717883  1
  V  V4  1  0.37513868  0.12532432  0.74908509  1
  V  V5  1  0.12863769  0.49836306  0.62682152  1
  V  V6  1  0.74867298  0.87645742  0.62709971  1
  V  V7  1  0.12531821  0.87453599  0.25104463  1
  V  V8  1  0.00093925  0.37549452  0.37499709  1
  V  V9  1  0.50135548  0.12435187  0.62243942  1
  V  V10  1  0.25028322  0.49878547  0.25079068  1
  V  V11  1  0.24982890  0.75062146  0.50023491  1
  V  V12  1  0.37448901  0.50096018  0.87418059  1
  V  V13  1  0.62395355  0.12661004  0.49655251  1
  V  V14  1  0.62628107  0.37565464  0.75059986  1
  V  V15  1  0.12551090  0.62588071  0.50009686  1
  V  V16  1  0.37254883  0.62478685  0.24846143  1
  V  V17  1  0.87706117  0.37289091  -0.00123597  1
  V  V18  1  0.24988011  0.87423795  0.62491365  1
  V  V19  1  0.37447024  0.74947629  0.62477635  1
  V  V20  1  0.25088481  0.13032997  0.37825969  1
  V  V21  1  0.62465119  0.75094690  0.87375570  1
  V  V22  1  0.74618673  0.38191424  0.12917632  1
  V  V23  1  0.50031463  0.25107947  0.74928517  1
  V  V24  1  0.37926293  0.49541949  0.37376388  1
  V  V25  1  0.49698992  0.87631600  0.37687708  1
  V  V26  1  0.87538681  0.24904075  0.12547457  1
  V  V27  1  0.75008541  0.74998633  0.00016154  1
  V  V28  1  0.49852483  0.62572319  0.12284330  1
  V  V29  1  0.12829754  0.12944168  0.50040499  1
  V  V30  1  0.37581281  0.12575322  0.25069785  1
  V  V31  1  0.50038717  0.12415355  0.12609072  1
  V  V32  1  0.37341110  0.00208898  0.87473418  1
  V  V33  1  0.24942052  0.00140145  0.25068344  1
  V  V34  1  -0.00006141  0.62570144  0.62629984  1
  V  V35  1  0.75114782  0.74996856  0.50008432  1
  V  V36  1  0.00591002  0.36732869  0.87366557  1
  V  V37  1  -0.00168635  -0.00114087  0.00022095  1
  V  V38  1  0.12476947  0.87214968  0.75492401  1
  V  V39  1  0.87493621  0.87533908  0.49981545  1
  V  V40  1  0.37331653  0.62482095  0.75120856  1
  V  V41  1  0.24993448  0.87061313  0.12014079  1
  V  V42  1  0.12744323  0.13080173  -0.00657431  1
  V  V43  1  0.37441372  0.37384812  -0.00059139  1
  V  V44  1  0.00104349  0.49996704  0.49982281  1
  V  V45  1  0.62469143  0.74957081  0.37569959  1
  V  V46  1  0.24728701  0.63693479  0.87916355  1
  V  V47  1  0.87390207  0.74923189  0.12491673  1
  V  V48  1  0.87478783  -0.00054400  0.37554043  1
  V  V49  1  0.50076057  0.49466001  0.49779978  1
  V  V50  1  0.87717467  0.37377570  0.50166474  1
  V  V51  1  0.00262080  0.74791062  0.75264532  1
  V  V52  1  0.50095658  0.50009847  0.00062306  1
  V  V53  1  0.36949859  0.25165228  0.61939377  1
  V  V54  1  0.74967843  0.62235400  0.37305879  1
  V  V55  1  0.12563644  0.75022318  0.37543594  1
  V  V56  1  0.74935317  0.87281178  0.12558010  1
  V  V57  1  0.75132523  0.25017982  0.49969060  1
  V  V58  1  0.12550923  0.37543525  0.24996172  1
  V  V59  1  0.49790778  0.75036805  0.24907332  1
  V  V60  1  -0.00005160  0.24945094  0.25006362  1
  V  V61  1  0.49997801  0.37532785  0.87582036  1
  V  V62  1  0.87097773  0.61993004  0.24982624  1
  V  V63  1  0.62363344  0.12512424  -0.00048917  1
  V  V64  1  0.00560436  0.50036869  -0.00115834  1
  V  V65  1  0.00109342  0.62458975  0.12328783  1
  V  V66  1  0.37219862  0.87298855  0.00026057  1
  V  V67  1  0.62528977  0.87412714  0.24974623  1
  V  V68  1  0.12477145  0.00021864  0.12568870  1
  V  V69  1  0.12691890  0.36792868  0.75281903  1
  V  V70  1  0.50802407  0.26034962  0.25405845  1
  V  V71  1  0.49950371  0.75038250  0.74987392  1
  V  V72  1  0.12799478  0.64015453  -0.00386338  1
  V  V73  1  0.36963544  0.37326578  0.49844855  1
  V  V74  1  0.87585160  0.50077865  0.87192494  1
  V  V75  1  0.62456331  0.62559943  0.50187063  1
  V  V76  1  0.74986073  -0.00126725  0.24956475  1
  V  V77  1  0.49936537  0.87479615  0.87506106  1
  V  V78  1  0.87353794  0.12396174  0.75022940  1
  V  V79  1  0.37168422  0.75012671  0.12086858  1
  V  V80  1  0.24991451  0.37252616  0.12320353  1
  V  V81  1  0.75177130  0.37472198  0.62733079  1
  V  V82  1  0.49847815  0.00069738  0.00005771  1
  V  V83  1  0.62519392  0.24970959  0.87602052  1
  V  V84  1  0.00104457  0.74969704  0.25074563  1
  V  V85  1  0.74827435  0.12641138  0.37460572  1
  V  V86  1  0.87346161  0.49978577  0.37326137  1
  V  V87  1  0.62384020  0.62431500  -0.00028690  1
  V  V88  1  0.87539456  0.12452155  0.24977797  1
  V  V89  1  0.00131413  0.87069365  0.87659846  1
  V  V90  1  0.12433800  0.00062463  0.62447311  1
  V  V91  1  0.24987393  0.00034779  0.75069123  1
  V  V92  1  0.12778423  0.25089956  0.37713014  1
  Zn  Zn93  1  0.87293378  0.87512956  -0.00096199  1
  Zn  Zn94  1  0.68398244  0.44047524  0.29086591  1
  Zn  Zn95  1  0.49878629  -0.00068452  0.49940047  1
  Zn  Zn96  1  0.62476037  0.87823791  0.74981111  1
  Zn  Zn97  1  0.00030182  0.87493678  0.37544862  1
  Zn  Zn98  1  0.62325085  0.27152385  0.37370927  1
  Zn  Zn99  1  0.37470362  0.87627330  0.50036942  1
  Zn  Zn100  1  0.62581979  -0.00183683  0.12399635  1
  Zn  Zn101  1  0.37512730  0.24983069  0.12305189  1
  Zn  Zn102  1  0.62532787  0.00030664  0.62660214  1
  Zn  Zn103  1  0.87557863  0.74900965  0.62501703  1
  Zn  Zn104  1  0.25033007  0.62499588  0.37500628  1
  Zn  Zn105  1  0.87801586  0.25030425  0.62671125  1
  Zn  Zn106  1  0.25067630  0.49947595  0.75198507  1
  Zn  Zn107  1  0.74907501  0.12085853  0.87580993  1
  Zn  Zn108  1  0.87130645  -0.00205619  0.87498863  1
  Zn  Zn109  1  0.62415229  0.50056075  0.13040719  1
  Zn  Zn110  1  0.12678210  0.50184987  0.12549465  1
  Zn  Zn111  1  0.00112746  0.12511050  0.12507528  1
  Zn  Zn112  1  0.87380929  0.62652451  0.74818896  1
  Zn  Zn113  1  0.75002901  0.50150779  0.74972534  1
  Zn  Zn114  1  0.49865094  0.62510789  0.62539548  1
  Zn  Zn115  1  0.37428262  0.00034324  0.37875354  1
  Zn  Zn116  1  0.74672214  -0.00119287  0.75395250  1
  Zn  Zn117  1  0.24766637  0.25463465  -0.00958737  1
  Zn  Zn118  1  0.24481249  0.13313229  0.86841758  1
  Zn  Zn119  1  0.24814128  0.37135010  0.62469364  1
  Zn  Zn120  1  0.00350367  0.24616591  0.74964211  1
  Zn  Zn121  1  -0.00038269  0.12723521  0.62531079  1
  Zn  Zn122  1  0.18553878  0.18775754  0.18547122  1
  Zn  Zn123  1  0.18880765  0.18678372  0.68595863  1
  Zn  Zn124  1  0.18604671  0.68589575  0.18569475  1
  Zn  Zn125  1  0.18873537  0.68624018  0.68999440  1
  Zn  Zn126  1  0.68770785  0.18954874  0.18624673  1
  Zn  Zn127  1  0.68968555  0.18902741  0.68655558  1
  Zn  Zn128  1  0.68532195  0.68470606  0.18799118  1
  Zn  Zn129  1  0.68793489  0.68852001  0.68864719  1
  Zn  Zn130  1  0.31630953  0.31175919  0.31083070  1
  Zn  Zn131  1  0.31023404  0.31154947  0.81116410  1
  Zn  Zn132  1  0.31102006  0.81141684  0.31099751  1
  Zn  Zn133  1  0.31407683  0.81346667  0.81201539  1
  Zn  Zn134  1  0.81390570  0.30970982  0.31440047  1
  Zn  Zn135  1  0.81320409  0.30981336  0.81288182  1
  Zn  Zn136  1  0.81340981  0.81030969  0.31283886  1
  Zn  Zn137  1  0.81574205  0.81191055  0.81210745  1
  Zn  Zn138  1  0.19025550  0.43853989  0.43733893  1
  Zn  Zn139  1  0.18980579  0.44197719  0.93469298  1
  Zn  Zn140  1  0.18804623  0.93942731  0.43710747  1
  Zn  Zn141  1  0.18659376  0.94183295  0.93722351  1
  Zn  Zn142  1  0.69122992  0.43961037  0.45034904  1
  Zn  Zn143  1  0.68844716  0.43698009  0.94079151  1
  Zn  Zn144  1  0.68581117  0.93940852  0.43959792  1
  Zn  Zn145  1  0.68644370  0.93821629  0.93763431  1
  Zn  Zn146  1  0.31106778  0.06044996  0.06334739  1
  Zn  Zn147  1  0.31388473  0.05941998  0.56156800  1
  Zn  Zn148  1  0.31019715  0.56116533  0.05990233  1
  Zn  Zn149  1  0.31292934  0.56394250  0.56145326  1
  Zn  Zn150  1  0.81181724  0.06207686  0.06402518  1
  Zn  Zn151  1  0.81209713  0.06204019  0.56423131  1
  Zn  Zn152  1  0.81577816  0.56306080  0.05860755  1
  Zn  Zn153  1  0.81319830  0.56197831  0.56269763  1
  Zn  Zn154  1  0.43607406  0.43935482  0.18431458  1
  Zn  Zn155  1  0.43819596  0.43815062  0.68604519  1
  Zn  Zn156  1  0.43596406  0.93850497  0.18914368  1
  Zn  Zn157  1  0.43678956  0.93712126  0.68803544  1
  Zn  Zn158  1  0.93644838  0.43673484  0.18574737  1
  Zn  Zn159  1  0.94132151  0.43625779  0.68827194  1
  Zn  Zn160  1  0.93686129  0.93610351  0.18722296  1
  Zn  Zn161  1  0.93611577  0.93960689  0.68557688  1
  Zn  Zn162  1  0.06199039  0.06221698  0.31396799  1
  Zn  Zn163  1  0.05815570  0.05907053  0.81310507  1
  Zn  Zn164  1  0.06245164  0.56309161  0.31253158  1
  Zn  Zn165  1  0.06673931  0.56163283  0.81395917  1
  Zn  Zn166  1  0.56423960  0.06156839  0.31212497  1
  Zn  Zn167  1  0.56296583  0.06107808  0.81134174  1
  Zn  Zn168  1  0.55890498  0.56524282  0.31276887  1
  Zn  Zn169  1  0.56148410  0.56377924  0.81256866  1
  Zn  Zn170  1  0.43921243  0.19205437  0.43475573  1
  Zn  Zn171  1  0.43407307  0.18970972  0.93682844  1
  Zn  Zn172  1  0.43607368  0.68488358  0.43796438  1
  Zn  Zn173  1  0.43511417  0.68841247  0.93709835  1
  Zn  Zn174  1  0.93892095  0.18708894  0.43746605  1
  Zn  Zn175  1  0.93743891  0.18437231  0.93658681  1
  Zn  Zn176  1  0.93827844  0.68807136  0.43730699  1
  Zn  Zn177  1  0.93845897  0.68809898  0.93737877  1
  Zn  Zn178  1  0.06240154  0.31291529  0.06399967  1
  Zn  Zn179  1  0.06097129  0.31002606  0.56543689  1
  Zn  Zn180  1  0.06105865  0.81401463  0.06566383  1
  Zn  Zn181  1  0.06205636  0.81322692  0.56434285  1
  Zn  Zn182  1  0.56290419  0.31124723  0.06509847  1
  Zn  Zn183  1  0.56244355  0.31278510  0.56166604  1
  Zn  Zn184  1  0.56151991  0.81159116  0.06123250  1
  Zn  Zn185  1  0.56300485  0.81107208  0.56344518  1
  O  O186  1  0.12268488  0.11717653  0.11654045  1
  O  O187  1  0.12706862  0.11910070  0.61482147  1
  O  O188  1  0.11922578  0.62157520  0.11514509  1
  O  O189  1  0.11983901  0.61706365  0.62085133  1
  O  O190  1  0.61485462  0.12314558  0.11934870  1
  O  O191  1  0.61589919  0.12918679  0.61530735  1
  O  O192  1  0.61598329  0.62894897  0.11479176  1
  O  O193  1  0.62423815  0.61921272  0.61910588  1
  O  O194  1  0.37094925  0.38628261  0.38225857  1
  O  O195  1  0.38189121  0.38083082  0.87920848  1
  O  O196  1  0.38597821  0.87480560  0.37341764  1
  O  O197  1  0.37908435  0.88163250  0.88064295  1
  O  O198  1  0.88132212  0.38002899  0.38036637  1
  O  O199  1  0.88363425  0.38263201  0.87935471  1
  O  O200  1  0.87510202  0.88168614  0.38128741  1
  O  O201  1  0.88801297  0.87647706  0.87815326  1
  O  O202  1  0.25011273  0.01234967  0.36776317  1
  O  O203  1  0.25643045  0.00375760  0.86767663  1
  O  O204  1  0.26078048  0.50209975  0.36881403  1
  O  O205  1  0.25969138  0.50897305  0.87303823  1
  O  O206  1  0.75495063  0.00578675  0.36937194  1
  O  O207  1  0.75396600  0.00244805  0.87341444  1
  O  O208  1  0.75842903  0.50703292  0.37724064  1
  O  O209  1  0.76147144  0.50412861  0.87747035  1
  O  O210  1  0.24987766  0.48844262  0.13160828  1
  O  O211  1  0.23681417  0.50093139  0.62518116  1
  O  O212  1  0.24519881  0.99131300  0.13238937  1
  O  O213  1  0.24456912  0.99383848  0.63132715  1
  O  O214  1  0.75413186  0.48399404  0.11565161  1
  O  O215  1  0.74291062  0.49325566  0.62597389  1
  O  O216  1  0.74888491  0.99148703  0.13193424  1
  O  O217  1  0.74854058  0.98718473  0.62534196  1
  O  O218  1  0.00504791  0.37028580  0.25543806  1
  O  O219  1  0.00870715  0.37390886  0.75881126  1
  O  O220  1  0.00765295  0.86788986  0.25019418  1
  O  O221  1  0.00646693  0.86963573  0.75628512  1
  O  O222  1  0.49586168  0.35797648  0.23828307  1
  O  O223  1  0.50606071  0.37011055  0.75559292  1
  O  O224  1  0.50446006  0.86963144  0.25645464  1
  O  O225  1  0.49913079  0.86808997  0.75761539  1
  O  O226  1  0.49323808  0.12759554  0.24288560  1
  O  O227  1  0.49548189  0.13129648  0.74030846  1
  O  O228  1  0.49083495  0.63242202  0.24321498  1
  O  O229  1  0.49184512  0.63279181  0.75011068  1
  O  O230  1  0.99370633  0.13121471  0.24958367  1
  O  O231  1  0.98894358  0.12571619  0.75038808  1
  O  O232  1  0.99317762  0.63011047  0.24357860  1
  O  O233  1  1.00384911  0.63430830  0.74683154  1
  O  O234  1  0.37302690  0.25887517  0.00449394  1
  O  O235  1  0.38544537  0.26260727  0.50750366  1
  O  O236  1  0.38067679  0.76013446  0.00889380  1
  O  O237  1  0.36791443  0.75075948  0.50638561  1
  O  O238  1  0.87087444  0.25316042  0.00517923  1
  O  O239  1  0.86951769  0.25637700  0.49968311  1
  O  O240  1  0.86873002  0.74961067  0.00742488  1
  O  O241  1  0.86879938  0.75644958  0.50007123  1
  O  O242  1  0.12059780  0.23772919  0.49347579  1
  O  O243  1  0.12236687  0.23304583  1.00548130  1
  O  O244  1  0.12945299  0.74545017  0.49599961  1
  O  O245  1  0.11876289  0.73869412  1.00207356  1
  O  O246  1  0.63003651  0.24247738  0.49634616  1
  O  O247  1  0.62876510  0.24455430  0.99521075  1
  O  O248  1  0.63086763  0.74435533  0.49447537  1
  O  O249  1  0.62985412  0.74417982  0.99307311  1
  O  O250  1  0.49963650  0.23788456  0.13400173  1
  O  O251  1  0.49338741  0.24211593  0.62905244  1
  O  O252  1  0.49230641  0.74554211  0.13026952  1
  O  O253  1  0.49287873  0.74837278  0.63126550  1
  O  O254  1  0.99304561  0.24998823  0.13258370  1
  O  O255  1  0.99536933  0.24482299  0.62977646  1
  O  O256  1  0.99404697  0.74380681  0.13074074  1
  O  O257  1  0.99989514  0.74403780  0.63447537  1
  O  O258  1  0.00648757  0.25671374  0.36950436  1
  O  O259  1  -0.00341274  0.26517510  0.87581473  1
  O  O260  1  0.00738168  0.75188061  0.36866182  1
  O  O261  1  -0.00205041  0.75985027  0.86651478  1
  O  O262  1  0.50240207  0.24821171  0.35792808  1
  O  O263  1  0.50482575  0.25632054  0.86918633  1
  O  O264  1  0.50421340  0.75627294  0.36935501  1
  O  O265  1  0.50412210  0.75564216  0.87015321  1
  O  O266  1  0.24004024  0.11836765  0.48925355  1
  O  O267  1  0.23456893  0.12234946  1.00158763  1
  O  O268  1  0.24249209  0.63244280  0.49904645  1
  O  O269  1  0.23894016  0.61909968  0.99258062  1
  O  O270  1  0.74220961  0.12997255  0.49583765  1
  O  O271  1  0.74204345  0.13121437  1.00181376  1
  O  O272  1  0.74510881  0.62967314  0.49374161  1
  O  O273  1  0.74487703  0.63053157  0.99465692  1
  O  O274  1  0.25352193  0.37742554  0.00823540  1
  O  O275  1  0.26487903  0.38103594  0.50455866  1
  O  O276  1  0.25444682  0.88424784  0.01332162  1
  O  O277  1  0.24903881  0.86873144  0.50735469  1
  O  O278  1  0.75775961  0.36757899  0.00710701  1
  O  O279  1  0.75921796  0.36932825  0.50886450  1
  O  O280  1  0.75039095  0.86736435  0.00719713  1
  O  O281  1  0.75415131  0.86993918  0.50616761  1
  O  O282  1  0.13080523  0.49311647  0.24933179  1
  O  O283  1  0.12360609  0.49147799  0.73919302  1
  O  O284  1  0.12952572  0.99539470  0.24548510  1
  O  O285  1  0.12891496  0.99205808  0.74467353  1
  O  O286  1  0.63130554  0.52207129  0.24068164  1
  O  O287  1  0.62498661  0.49314888  0.74535508  1
  O  O288  1  0.63260304  0.99243906  0.24779463  1
  O  O289  1  0.62788968  0.99674378  0.74456790  1
  O  O290  1  0.36968793  0.01211347  0.25226496  1
  O  O291  1  0.36945406  0.00569632  0.75427531  1
  O  O292  1  0.37187752  0.50347923  0.25740037  1
  O  O293  1  0.37619117  0.50672157  0.75608503  1
  O  O294  1  0.86959613  0.00445659  0.25521830  1
  O  O295  1  0.87403445  0.01247659  0.75131259  1
  O  O296  1  0.88369836  0.51274793  0.25575195  1
  O  O297  1  0.87670668  0.50090798  0.76302034  1
  O  O298  1  0.12126466  0.37074541  0.37081218  1
  O  O299  1  0.11625878  0.38540442  0.86439050  1
  O  O300  1  0.12493780  0.86899171  0.36776749  1
  O  O301  1  0.11621646  0.88238310  0.86355009  1
  O  O302  1  0.63600205  0.38257039  0.37274844  1
  O  O303  1  0.61951212  0.37002877  0.87133017  1
  O  O304  1  0.61768734  0.86924594  0.36993685  1
  O  O305  1  0.61663566  0.86747280  0.87537758  1
  O  O306  1  0.38230394  0.12527114  0.13323277  1
  O  O307  1  0.38296110  0.13248824  0.62674860  1
  O  O308  1  0.37836018  0.62991271  0.12801696  1
  O  O309  1  0.37455892  0.63154478  0.63268028  1
  O  O310  1  0.87704574  0.13132336  0.13213308  1
  O  O311  1  0.87589969  0.12566183  0.63749580  1
  O  O312  1  0.88019698  0.62876107  0.13162604  1
  O  O313  1  0.88471485  0.62510316  0.62781857  1
  O  O314  1  0.25030945  0.26316566  0.12304933  1
  O  O315  1  0.26661860  0.24902329  0.62570184  1
  O  O316  1  0.25503426  0.76355214  0.13210528  1
  O  O317  1  0.25378385  0.75531367  0.62071244  1
  O  O318  1  0.75609434  0.25931696  0.11952631  1
  O  O319  1  0.75292161  0.25772501  0.61723479  1
  O  O320  1  0.75451052  0.75315214  0.11997445  1
  O  O321  1  0.75208528  0.75793525  0.61807207  1
  O  O322  1  0.24491895  0.23751417  0.36769363  1
  O  O323  1  0.25276597  0.24486569  0.87805922  1
  O  O324  1  0.24348267  0.74822866  0.38111911  1
  O  O325  1  0.25580336  0.73640360  0.87297448  1
  O  O326  1  0.74807342  0.24263958  0.38116550  1
  O  O327  1  0.74240588  0.24865568  0.88320082  1
  O  O328  1  0.74388533  0.74381054  0.38041306  1
  O  O329  1  0.74580866  0.74513319  0.88047985  1
  O  O330  1  0.00939344  0.11551945  0.00111740  1
  O  O331  1  0.01168358  0.11796132  0.49815103  1
  O  O332  1  0.00729048  0.61804725  0.00228234  1
  O  O333  1  0.00600672  0.61961289  0.50572712  1
  O  O334  1  0.50187135  0.12150069  0.00892376  1
  O  O335  1  0.50767716  0.12815990  0.50627032  1
  O  O336  1  0.50375296  0.61983444  0.00337525  1
  O  O337  1  0.50576681  0.61477329  0.50173714  1
  O  O338  1  0.49151107  0.38851663  0.50419211  1
  O  O339  1  0.49564585  0.37949851  0.99591952  1
  O  O340  1  0.50028377  0.87428651  0.48789213  1
  O  O341  1  0.49333343  0.88140691  0.99537933  1
  O  O342  1  0.99679057  0.38051756  0.49380157  1
  O  O343  1  0.99821317  0.38214579  0.99341379  1
  O  O344  1  0.99389596  0.88203038  0.49941050  1
  O  O345  1  1.00194783  0.88168678  0.99256193  1
  O  O346  1  0.48858437  0.50649791  0.38458245  1
  O  O347  1  0.49505589  0.49448831  0.88126680  1
  O  O348  1  0.49919725  0.98741165  0.37373111  1
  O  O349  1  0.49305746  0.99464720  0.88046674  1
  O  O350  1  0.99537934  0.49441780  0.38078677  1
  O  O351  1  0.99353533  0.49359781  0.88209817  1
  O  O352  1  0.99287351  0.99780107  0.38112153  1
  O  O353  1  0.99811401  0.98869671  0.88513429  1
  O  O354  1  0.00588169  -0.00166541  0.11611033  1
  O  O355  1  0.00771842  0.00276282  0.61776158  1
  O  O356  1  -0.00142646  0.50524203  0.11313230  1
  O  O357  1  0.00978213  0.50455504  0.61939702  1
  O  O358  1  0.49975238  0.00970686  0.12062714  1
  O  O359  1  0.49896613  0.01488720  0.62415187  1
  O  O360  1  0.49966169  0.50794537  0.11736799  1
  O  O361  1  0.50583808  0.50299785  0.61560066  1
  O  O362  1  0.24608264  0.37855093  0.24286728  1
  O  O363  1  0.24091970  0.38024026  0.74617351  1
  O  O364  1  0.24529413  0.88170822  0.24184403  1
  O  O365  1  0.24179389  0.87932678  0.74646263  1
  O  O366  1  0.75952067  0.37372347  0.23338947  1
  O  O367  1  0.74384823  0.37667327  0.74547533  1
  O  O368  1  0.74474110  0.87791391  0.24581283  1
  O  O369  1  0.75054837  0.87315214  0.73845695  1
  O  O370  1  0.25747406  0.12215447  0.25528742  1
  O  O371  1  0.25681840  0.11721147  0.74798806  1
  O  O372  1  0.25563276  0.61688791  0.24867855  1
  O  O373  1  0.25471182  0.62193687  0.75963032  1
  O  O374  1  0.75518377  0.11972278  0.25396806  1
  O  O375  1  0.76178918  0.12439846  0.75097768  1
  O  O376  1  0.76449524  0.63285165  0.25544964  1
  O  O377  1  0.75337204  0.62215533  0.75906298  1
  O  O378  1  0.36745827  0.12640053  0.36748795  1
  O  O379  1  0.37749409  0.11782939  0.86596766  1
  O  O380  1  0.37244230  0.61513459  0.36741230  1
  O  O381  1  0.36803988  0.62009549  0.87158559  1
  O  O382  1  0.86850624  0.11940016  0.36968693  1
  O  O383  1  0.87346435  0.12257492  0.86306575  1
  O  O384  1  0.87119147  0.62040897  0.36773911  1
  O  O385  1  0.87113307  0.61518063  0.87551351  1
  O  O386  1  0.13300330  0.37763797  0.13101044  1
  O  O387  1  0.12539877  0.38359081  0.63084764  1
  O  O388  1  0.13288226  0.87930475  0.13057804  1
  O  O389  1  0.12971287  0.88117344  0.63466270  1
  O  O390  1  0.64274447  0.37607672  0.12057489  1
  O  O391  1  0.63037326  0.38010150  0.63056621  1
  O  O392  1  0.63052635  0.87377388  0.13224425  1
  O  O393  1  0.63572115  0.87591198  0.62508331  1
  O  O394  1  0.11959272  0.25558983  0.25637229  1
  O  O395  1  0.12498685  0.26405721  0.74231603  1
  O  O396  1  0.12044630  0.75411813  0.25482901  1
  O  O397  1  0.11572690  0.76251553  0.74432965  1
  O  O398  1  0.61184161  0.24583284  0.25106414  1
  O  O399  1  0.61976789  0.25575225  0.75531259  1
  O  O400  1  0.61805499  0.75385972  0.25633124  1
  O  O401  1  0.61749327  0.75160543  0.75735187  1
  O  O402  1  0.38509391  0.23897114  0.24754906  1
  O  O403  1  0.38241371  0.24585292  0.73941399  1
  O  O404  1  0.37866698  0.74460137  0.24211893  1
  O  O405  1  0.37990930  0.74457249  0.74446079  1
  O  O406  1  0.88100062  0.24365417  0.24587408  1
  O  O407  1  0.87686536  0.23664027  0.74999656  1
  O  O408  1  0.88164968  0.74039762  0.24564245  1
  O  O409  1  0.89023354  0.74805065  0.74738005  1
  O  O410  1  0.38173936  0.49501007  0.49362311  1
  O  O411  1  0.38170865  0.49382216  0.99400245  1
  O  O412  1  0.38024502  0.99485750  0.49575050  1
  O  O413  1  0.37975047  0.99453568  0.99520051  1
  O  O414  1  0.88199390  0.49434991  0.49352218  1
  O  O415  1  0.88640495  0.49556024  0.99059905  1
  O  O416  1  0.87996645  0.99620754  0.49420004  1
  O  O417  1  0.88808152  0.99881434  1.00150133  1
  O  O418  1  0.11578270  0.00648461  0.00614047  1
  O  O419  1  0.12059744  0.00839001  0.50415804  1
  O  O420  1  0.11287857  0.50368154  0.00090491  1
  O  O421  1  0.12034942  0.50421366  0.50689836  1
  O  O422  1  0.61537589  0.00676976  0.00228294  1
  O  O423  1  0.62151496  0.01395744  0.50374001  1
  O  O424  1  0.61850752  0.50671973  0.00286958  1
  O  O425  1  0.61703741  0.50600866  0.50736553  1
  O  O426  1  0.36466250  0.37455080  0.11855797  1
  O  O427  1  0.37505451  0.36774276  0.61774067  1
  O  O428  1  0.36721044  0.87167620  0.12156957  1
  O  O429  1  0.36715388  0.86762434  0.62554051  1
  O  O430  1  0.86909636  0.36896680  0.11769136  1
  O  O431  1  0.87043177  0.37635589  0.61935728  1
  O  O432  1  0.86768128  0.86642074  0.12443339  1
  O  O433  1  0.86631610  0.87357016  0.61758228  1
  O  O434  1  0.13266077  0.12999813  0.38072141  1
  O  O435  1  0.12388218  0.11699687  0.89048526  1
  O  O436  1  0.12627270  0.63127133  0.38209401  1
  O  O437  1  0.13505169  0.61885744  0.88461782  1
  O  O438  1  0.63030897  0.12473045  0.38470996  1
  O  O439  1  0.62263008  0.13286712  0.88219229  1
  O  O440  1  0.62964984  0.63128871  0.38238318  1
  O  O441  1  0.63065772  0.63037877  0.88083291  1
