# generated using pymatgen
data_V93Zn93O256
_symmetry_space_group_name_H-M   'P 1'
_cell_length_a   17.05177827
_cell_length_b   17.05322463
_cell_length_c   17.05241493
_cell_angle_alpha   89.98456687
_cell_angle_beta   89.92785177
_cell_angle_gamma   89.97449861
_symmetry_Int_Tables_number   1
_chemical_formula_structural   V93Zn93O256
_chemical_formula_sum   'V93 Zn93 O256'
_cell_volume   4958.62971107
_cell_formula_units_Z   1
loop_
 _symmetry_equiv_pos_site_id
 _symmetry_equiv_pos_as_xyz
  1  'x, y, z'
loop_
 _atom_site_type_symbol
 _atom_site_label
 _atom_site_symmetry_multiplicity
 _atom_site_fract_x
 _atom_site_fract_y
 _atom_site_fract_z
 _atom_site_occupancy
  V  V0  1  0.24514816  0.24359421  0.00238304  1
  V  V1  1  0.49849269  0.87412901  0.87536540  1
  V  V2  1  0.00493147  0.00609006  0.00126868  1
  V  V3  1  0.87477843  0.37443830  0.49873513  1
  V  V4  1  0.62575943  0.12616716  0.49796838  1
  V  V5  1  0.12498114  0.87308447  0.74838778  1
  V  V6  1  0.00245814  0.62717560  0.12575212  1
  V  V7  1  0.74945819  0.87558863  0.12389020  1
  V  V8  1  0.75025522  0.37429210  0.62500091  1
  V  V9  1  0.37298419  0.12397798  0.75178293  1
  V  V10  1  0.74978428  0.74916929  -0.00078855  1
  V  V11  1  0.11701811  0.75584566  0.37451102  1
  V  V12  1  0.62589414  0.87641826  0.24889636  1
  V  V13  1  0.62400669  0.87350172  0.74835773  1
  V  V14  1  0.74976095  0.62325899  0.87483660  1
  V  V15  1  0.87433187  0.75021643  0.62351047  1
  V  V16  1  0.49951434  0.24962207  0.75199981  1
  V  V17  1  0.11859420  0.88397893  0.25023197  1
  V  V18  1  0.75016184  -0.00066471  0.74859448  1
  V  V19  1  0.62512825  0.62291425  0.00053504  1
  V  V20  1  0.24929222  0.62253084  0.87664281  1
  V  V21  1  0.25053188  0.49378478  0.74887656  1
  V  V22  1  0.87530771  0.74987662  0.12408245  1
  V  V23  1  0.00397091  0.25451382  0.24384251  1
  V  V24  1  0.37354469  0.49866242  0.87668462  1
  V  V25  1  0.37343787  0.62474000  0.25366331  1
  V  V26  1  0.25004608  0.00006842  0.75041466  1
  V  V27  1  0.37500873  0.87555204  0.49940502  1
  V  V28  1  0.12506757  0.24248705  0.87953514  1
  V  V29  1  0.49985334  0.12459436  0.62563085  1
  V  V30  1  0.49990080  0.12560389  0.12644899  1
  V  V31  1  0.12638539  0.37333374  0.74949109  1
  V  V32  1  0.00047796  0.74779908  0.74918419  1
  V  V33  1  0.00707113  0.37386516  0.37266122  1
  V  V34  1  0.50053071  0.37475172  0.37532427  1
  V  V35  1  0.62461254  0.37301933  0.75067519  1
  V  V36  1  0.12541853  0.74782170  0.87533628  1
  V  V37  1  0.87273198  0.00110869  0.87177910  1
  V  V38  1  0.75014085  0.49780042  0.24716729  1
  V  V39  1  -0.00028211  0.24882784  0.74945557  1
  V  V40  1  0.62436031  0.74880852  0.87446405  1
  V  V41  1  -0.00079147  0.12568065  0.62332487  1
  V  V42  1  0.87581777  0.24974848  0.62465873  1
  V  V43  1  0.49960071  0.75079795  0.25019431  1
  V  V44  1  0.24841708  0.74809878  0.49749513  1
  V  V45  1  0.75195440  0.00196878  0.24830339  1
  V  V46  1  0.87568869  0.50059798  0.37444708  1
  V  V47  1  0.62513781  0.49958400  0.62477318  1
  V  V48  1  0.49963474  0.87581848  0.37462729  1
  V  V49  1  0.24999340  0.87392349  0.62507397  1
  V  V50  1  0.62644386  0.74978255  0.37483823  1
  V  V51  1  -0.00030391  -0.00618404  0.49335034  1
  V  V52  1  0.49992283  -0.00055596  -0.00090816  1
  V  V53  1  0.74970738  0.62595492  0.37494779  1
  V  V54  1  0.62513410  -0.00068261  0.62344058  1
  V  V55  1  0.50010686  0.62523055  0.62691778  1
  V  V56  1  0.36951081  0.37489414  0.50517833  1
  V  V57  1  0.87547372  0.62584693  0.24952222  1
  V  V58  1  0.50022772  0.49957873  0.50181106  1
  V  V59  1  0.75118287  0.87346949  0.62130235  1
  V  V60  1  0.37526635  0.74897958  0.62568507  1
  V  V61  1  0.12419297  -0.00054111  0.62377595  1
  V  V62  1  0.87520029  0.62334326  0.74989101  1
  V  V63  1  0.87623590  0.13269886  0.24142468  1
  V  V64  1  0.00067695  0.62244171  0.62515254  1
  V  V65  1  0.87536049  0.49725622  0.87550102  1
  V  V66  1  0.75077433  0.49806927  0.74970019  1
  V  V67  1  0.24483655  0.49863500  0.25040240  1
  V  V68  1  0.12554604  0.12740129  0.49778997  1
  V  V69  1  0.75403086  0.25325848  0.00943670  1
  V  V70  1  0.87889848  -0.00351008  0.37220980  1
  V  V71  1  0.25113415  0.12727208  0.37493140  1
  V  V72  1  0.74930988  0.24982518  0.49916538  1
  V  V73  1  -0.00105263  0.87319234  0.87313989  1
  V  V74  1  0.12900574  0.49465658  0.62491625  1
  V  V75  1  0.87393842  0.87462254  -0.00178305  1
  V  V76  1  0.62922666  0.37522051  0.24683208  1
  V  V77  1  0.37448236  0.00149910  0.37456917  1
  V  V78  1  -0.00067326  0.37375680  0.87608649  1
  V  V79  1  0.87164136  0.37122322  0.01360128  1
  V  V80  1  0.24308637  0.37528951  0.13144777  1
  V  V81  1  0.24929401  0.75114466  0.00175452  1
  V  V82  1  0.00105162  0.49942448  0.50001891  1
  V  V83  1  0.62848450  0.49749889  0.12585258  1
  V  V84  1  0.50048283  0.62456581  0.12609640  1
  V  V85  1  0.62769689  0.12731012  -0.00302790  1
  V  V86  1  0.36754279  0.25326176  0.62648019  1
  V  V87  1  0.50053971  0.37373909  0.87607293  1
  V  V88  1  0.50039804  0.49880158  0.00139369  1
  V  V89  1  0.37375533  0.75137709  0.12507646  1
  V  V90  1  0.37485732  0.37486432  0.00248892  1
  V  V91  1  -0.00009069  0.49927993  0.00155862  1
  V  V92  1  0.37522775  0.25053120  0.12865467  1
  Zn  Zn93  1  0.37245555  0.00002473  0.87442414  1
  Zn  Zn94  1  0.75108553  0.12741971  0.37161289  1
  Zn  Zn95  1  0.00455913  0.13640936  0.11557993  1
  Zn  Zn96  1  0.37540310  0.12584154  0.25230797  1
  Zn  Zn97  1  0.25111080  0.00114067  0.24450919  1
  Zn  Zn98  1  0.12471865  0.62513211  0.49795817  1
  Zn  Zn99  1  0.37344130  0.50015533  0.37806385  1
  Zn  Zn100  1  0.50242442  0.25009804  0.25176632  1
  Zn  Zn101  1  0.37355973  0.87644585  0.00176066  1
  Zn  Zn102  1  -0.00338575  0.75732538  0.25471145  1
  Zn  Zn103  1  0.62720113  0.62627427  0.50011517  1
  Zn  Zn104  1  0.62691874  0.25031187  0.37265167  1
  Zn  Zn105  1  0.87723143  0.87137906  0.49258012  1
  Zn  Zn106  1  0.37449234  0.62430622  0.75192373  1
  Zn  Zn107  1  0.12491371  0.62237045  0.00181127  1
  Zn  Zn108  1  0.49743616  0.74832804  0.75145580  1
  Zn  Zn109  1  0.75007896  0.12827458  0.87216403  1
  Zn  Zn110  1  0.24690220  0.25596984  0.50355148  1
  Zn  Zn111  1  0.50085612  0.00023997  0.50005010  1
  Zn  Zn112  1  0.87230311  0.12522404  0.74677009  1
  Zn  Zn113  1  0.24782461  0.12024001  0.88005910  1
  Zn  Zn114  1  0.25037321  0.87828647  0.12616324  1
  Zn  Zn115  1  0.12956443  0.25634123  0.37231908  1
  Zn  Zn116  1  0.24770545  0.62459464  0.37466281  1
  Zn  Zn117  1  0.62796995  0.25074963  0.87480088  1
  Zn  Zn118  1  0.12320889  0.49832001  0.12776430  1
  Zn  Zn119  1  0.13540972  0.00955752  0.11286838  1
  Zn  Zn120  1  0.62662159  0.00064669  0.12503704  1
  Zn  Zn121  1  0.75088685  0.75026982  0.49853232  1
  Zn  Zn122  1  0.18200388  0.18453030  0.18801677  1
  Zn  Zn123  1  0.18680657  0.18522693  0.68951836  1
  Zn  Zn124  1  0.18572713  0.69155694  0.19049979  1
  Zn  Zn125  1  0.18856918  0.68217019  0.68768500  1
  Zn  Zn126  1  0.68714131  0.18883877  0.18721563  1
  Zn  Zn127  1  0.68769335  0.18615123  0.68678545  1
  Zn  Zn128  1  0.68824129  0.68664965  0.18826243  1
  Zn  Zn129  1  0.68699017  0.68804450  0.68745130  1
  Zn  Zn130  1  0.31349016  0.31382710  0.31507574  1
  Zn  Zn131  1  0.31206216  0.31120860  0.81572025  1
  Zn  Zn132  1  0.30682959  0.81606277  0.31116802  1
  Zn  Zn133  1  0.31370546  0.81126986  0.81283659  1
  Zn  Zn134  1  0.81399411  0.31203917  0.31242426  1
  Zn  Zn135  1  0.81203896  0.30990573  0.81773836  1
  Zn  Zn136  1  0.81203322  0.81336991  0.31079100  1
  Zn  Zn137  1  0.81111228  0.81209183  0.80958249  1
  Zn  Zn138  1  0.18959556  0.44182763  0.43624466  1
  Zn  Zn139  1  0.18556011  0.43317025  0.94080065  1
  Zn  Zn140  1  0.18749682  0.93764414  0.43419985  1
  Zn  Zn141  1  0.18743047  0.93379005  0.93404540  1
  Zn  Zn142  1  0.68704485  0.43893727  0.43619880  1
  Zn  Zn143  1  0.68919213  0.43415256  0.93857789  1
  Zn  Zn144  1  0.69122673  0.93883362  0.43528602  1
  Zn  Zn145  1  0.68585135  0.93778848  0.93646420  1
  Zn  Zn146  1  0.31584673  0.06225562  0.06311201  1
  Zn  Zn147  1  0.31260161  0.06346924  0.56310704  1
  Zn  Zn148  1  0.31211042  0.56346174  0.06512438  1
  Zn  Zn149  1  0.31342663  0.56243297  0.56467514  1
  Zn  Zn150  1  0.81515529  0.06467498  0.06250783  1
  Zn  Zn151  1  0.81306761  0.06150231  0.55987852  1
  Zn  Zn152  1  0.81380259  0.55974423  0.06323151  1
  Zn  Zn153  1  0.81275449  0.56322585  0.56069909  1
  Zn  Zn154  1  0.43706359  0.43843251  0.18955636  1
  Zn  Zn155  1  0.43701078  0.43650053  0.68883508  1
  Zn  Zn156  1  0.43591622  0.93778319  0.18738415  1
  Zn  Zn157  1  0.43722362  0.93802209  0.68722333  1
  Zn  Zn158  1  0.93931021  0.43941991  0.19010328  1
  Zn  Zn159  1  0.93938458  0.43537564  0.68767561  1
  Zn  Zn160  1  0.93598522  0.93902223  0.18610860  1
  Zn  Zn161  1  0.93775341  0.93639989  0.68392042  1
  Zn  Zn162  1  0.06061952  0.06889173  0.31063770  1
  Zn  Zn163  1  0.06042784  0.06185086  0.81117853  1
  Zn  Zn164  1  0.06363739  0.56790151  0.31432736  1
  Zn  Zn165  1  0.06356170  0.56128290  0.81387677  1
  Zn  Zn166  1  0.56369443  0.06104465  0.31271386  1
  Zn  Zn167  1  0.56199992  0.06116631  0.81131468  1
  Zn  Zn168  1  0.56237350  0.56138800  0.31443389  1
  Zn  Zn169  1  0.56232470  0.55974606  0.81214549  1
  Zn  Zn170  1  0.43893996  0.19052151  0.44032472  1
  Zn  Zn171  1  0.43471964  0.18746779  0.93731963  1
  Zn  Zn172  1  0.43917742  0.68854084  0.43894970  1
  Zn  Zn173  1  0.43535142  0.68583525  0.93845873  1
  Zn  Zn174  1  0.93617353  0.18603137  0.43143982  1
  Zn  Zn175  1  0.93323368  0.18882825  0.93543370  1
  Zn  Zn176  1  0.93759802  0.68612307  0.43925720  1
  Zn  Zn177  1  0.93740970  0.68570318  0.93780820  1
  Zn  Zn178  1  0.06238633  0.31502099  0.06117418  1
  Zn  Zn179  1  0.06198597  0.31352590  0.56145354  1
  Zn  Zn180  1  0.06359413  0.81739669  0.06429976  1
  Zn  Zn181  1  0.06167024  0.81166101  0.56229725  1
  Zn  Zn182  1  0.56510052  0.31121843  0.06278389  1
  Zn  Zn183  1  0.55970099  0.31105466  0.56423728  1
  Zn  Zn184  1  0.56320315  0.81140909  0.06332397  1
  Zn  Zn185  1  0.56274861  0.81111057  0.55980062  1
  O  O186  1  0.11426801  0.11772967  0.13184990  1
  O  O187  1  0.12083737  0.11943042  0.61616891  1
  O  O188  1  0.11204931  0.62711684  0.12478686  1
  O  O189  1  0.11837311  0.61239348  0.62518504  1
  O  O190  1  0.61513398  0.12476481  0.11403791  1
  O  O191  1  0.61990524  0.11945535  0.61717224  1
  O  O192  1  0.61915863  0.61998740  0.11965289  1
  O  O193  1  0.61638125  0.61873420  0.62482008  1
  O  O194  1  0.38587522  0.37540744  0.38460657  1
  O  O195  1  0.38046614  0.37931189  0.88301395  1
  O  O196  1  0.37859442  0.88299367  0.37893341  1
  O  O197  1  0.38772728  0.87558428  0.87795078  1
  O  O198  1  0.88341780  0.38216282  0.38056884  1
  O  O199  1  0.88239285  0.38087581  0.87992572  1
  O  O200  1  0.87228497  0.89117459  0.37206223  1
  O  O201  1  0.87863957  0.88165786  0.87727937  1
  O  O202  1  0.26029685  0.00952173  0.37632315  1
  O  O203  1  0.25118104  0.00098265  0.86789250  1
  O  O204  1  0.25489666  0.50428331  0.36583638  1
  O  O205  1  0.25368502  0.50233673  0.87072980  1
  O  O206  1  0.75922185  0.00440267  0.36602411  1
  O  O207  1  0.75886447  -0.00214945  0.86852787  1
  O  O208  1  0.75637070  0.50586541  0.36858993  1
  O  O209  1  0.75484314  0.50435195  0.86904808  1
  O  O210  1  0.25067986  0.49153684  0.13218579  1
  O  O211  1  0.24023071  0.50548998  0.63631513  1
  O  O212  1  0.25040720  0.99739916  0.12643375  1
  O  O213  1  0.24366834  0.99329729  0.62885523  1
  O  O214  1  0.74117720  0.50756830  0.13433386  1
  O  O215  1  0.74611427  0.49386837  0.63035699  1
  O  O216  1  0.75026749  0.99311672  0.12928011  1
  O  O217  1  0.74510837  0.99374435  0.62907305  1
  O  O218  1  -0.00830249  0.36394151  0.26003597  1
  O  O219  1  0.00601745  0.36829045  0.75620618  1
  O  O220  1  0.01340092  0.87539804  0.24466399  1
  O  O221  1  0.00540726  0.86776044  0.75294490  1
  O  O222  1  0.50759936  0.37709620  0.25994672  1
  O  O223  1  0.50508737  0.37001893  0.75623330  1
  O  O224  1  0.50535267  0.87034605  0.25497380  1
  O  O225  1  0.50550904  0.87439617  0.75984521  1
  O  O226  1  0.50122393  0.12667319  0.23741345  1
  O  O227  1  0.49419516  0.12943593  0.74526750  1
  O  O228  1  0.49263492  0.63001517  0.24590057  1
  O  O229  1  0.49824695  0.62416791  0.73917576  1
  O  O230  1  0.99191441  0.14128542  0.25340388  1
  O  O231  1  0.99837800  0.13092102  0.74090678  1
  O  O232  1  0.99331105  0.62711378  0.24040892  1
  O  O233  1  0.99419356  0.62817078  0.74566256  1
  O  O234  1  0.36736995  0.25510269  0.01057401  1
  O  O235  1  0.37501746  0.25772637  0.51079437  1
  O  O236  1  0.36555994  0.74907413  0.00617199  1
  O  O237  1  0.36690274  0.75560554  0.50445430  1
  O  O238  1  0.86742996  0.25963822  -0.00553969  1
  O  O239  1  0.87022887  0.25456677  0.50458459  1
  O  O240  1  0.86844424  0.75496901  0.00276399  1
  O  O241  1  0.87418466  0.75278093  0.50731451  1
  O  O242  1  0.12679815  0.23911003  0.49991768  1
  O  O243  1  0.13330098  0.25667563  0.99105317  1
  O  O244  1  0.13315344  0.75195883  0.49369041  1
  O  O245  1  0.13357105  0.75019719  0.99411054  1
  O  O246  1  0.63023300  0.24115915  0.50235956  1
  O  O247  1  0.63157232  0.24240710  0.99788094  1
  O  O248  1  0.62777878  0.74733419  0.48976808  1
  O  O249  1  0.63048187  0.74247585  0.99481010  1
  O  O250  1  0.49084781  0.24213230  0.12308859  1
  O  O251  1  0.49061483  0.24395378  0.63275665  1
  O  O252  1  0.49516917  0.74390798  0.13074369  1
  O  O253  1  0.49496109  0.74078580  0.62533553  1
  O  O254  1  1.00223589  0.25611620  0.14019381  1
  O  O255  1  0.99526221  0.24582647  0.62942959  1
  O  O256  1  0.99297239  0.74195380  0.12302155  1
  O  O257  1  0.99592163  0.74310205  0.63044720  1
  O  O258  1  0.00113600  0.26025216  0.36955226  1
  O  O259  1  0.00688068  0.25353716  0.87052224  1
  O  O260  1  0.01195860  0.74749743  0.37541274  1
  O  O261  1  0.00405151  0.75309643  0.86877993  1
  O  O262  1  0.50261084  0.26200154  0.37380867  1
  O  O263  1  0.50034996  0.25676059  0.86979791  1
  O  O264  1  0.50502720  0.75621340  0.36886175  1
  O  O265  1  0.50547401  0.75751056  0.87654122  1
  O  O266  1  0.24084828  0.12495178  0.49299178  1
  O  O267  1  0.25584699  0.14075465  1.00099077  1
  O  O268  1  0.24985183  0.63763397  0.50072838  1
  O  O269  1  0.24814191  0.63389007  0.99607437  1
  O  O270  1  0.73962309  0.13066775  0.50088199  1
  O  O271  1  0.74167032  0.12948317  0.99861372  1
  O  O272  1  0.74835485  0.62678425  0.49064379  1
  O  O273  1  0.74518895  0.62894559  0.99395053  1
  O  O274  1  0.25619019  0.36627452  0.01068785  1
  O  O275  1  0.26547251  0.37491790  0.49340554  1
  O  O276  1  0.25178679  0.86224613  -0.00061043  1
  O  O277  1  0.25435089  0.86691879  0.50529451  1
  O  O278  1  0.76015792  0.36643596  -0.00522187  1
  O  O279  1  0.75506404  0.37109019  0.50563921  1
  O  O280  1  0.75353115  0.86873028  0.00323362  1
  O  O281  1  0.75410349  0.87319589  0.50674869  1
  O  O282  1  0.14088097  0.50953012  0.24827720  1
  O  O283  1  0.13088460  0.49356753  0.74471212  1
  O  O284  1  0.12521241  0.98893277  0.25672790  1
  O  O285  1  0.12841103  0.99319468  0.74364969  1
  O  O286  1  0.62959333  0.49400793  0.24580612  1
  O  O287  1  0.63147503  0.49314719  0.74458822  1
  O  O288  1  0.63242120  0.99445655  0.24739069  1
  O  O289  1  0.62996624  0.99353264  0.74347815  1
  O  O290  1  0.37447139  0.00306674  0.26314896  1
  O  O291  1  0.36781368  0.00554089  0.74990359  1
  O  O292  1  0.36770526  0.51088111  0.25033140  1
  O  O293  1  0.36560176  0.49788710  0.75689314  1
  O  O294  1  0.87303137  0.00853578  0.25465870  1
  O  O295  1  0.87033366  -0.00220124  0.75753318  1
  O  O296  1  0.86984426  0.50559256  0.25561819  1
  O  O297  1  0.87032681  0.50340171  0.75500728  1
  O  O298  1  0.11129679  0.37602207  0.38230551  1
  O  O299  1  0.11837632  0.36480245  0.87006613  1
  O  O300  1  0.12992160  0.86793887  0.36283727  1
  O  O301  1  0.11866938  0.86670065  0.86659561  1
  O  O302  1  0.61525563  0.37632617  0.36741984  1
  O  O303  1  0.61761628  0.37527488  0.86827210  1
  O  O304  1  0.62000683  0.87136553  0.36813366  1
  O  O305  1  0.61707967  0.86901087  0.87006957  1
  O  O306  1  0.38425223  0.13409654  0.12629172  1
  O  O307  1  0.38026048  0.13238020  0.63031723  1
  O  O308  1  0.38120462  0.63044752  0.13457226  1
  O  O309  1  0.38471967  0.62955793  0.62745457  1
  O  O310  1  0.88513773  0.11950812  0.13696605  1
  O  O311  1  0.88145325  0.13185512  0.62377845  1
  O  O312  1  0.88258908  0.62999665  0.12927246  1
  O  O313  1  0.88055869  0.62842392  0.63132652  1
  O  O314  1  0.25639271  0.25564213  0.12283443  1
  O  O315  1  0.26364962  0.24548206  0.62513747  1
  O  O316  1  0.25472393  0.74931326  0.11529354  1
  O  O317  1  0.25318171  0.75402542  0.61734225  1
  O  O318  1  0.74636221  0.24618907  0.10859932  1
  O  O319  1  0.75579197  0.25604567  0.61971681  1
  O  O320  1  0.75513390  0.75412879  0.11833878  1
  O  O321  1  0.75659207  0.75500621  0.62466075  1
  O  O322  1  0.24932602  0.24105198  0.37950973  1
  O  O323  1  0.24156763  0.25068042  0.88558397  1
  O  O324  1  0.24273891  0.75100276  0.38582275  1
  O  O325  1  0.24595185  0.74381148  0.88221422  1
  O  O326  1  0.74748829  0.24813713  0.38442667  1
  O  O327  1  0.74634165  0.24526177  0.88525948  1
  O  O328  1  0.74429387  0.74376286  0.37304177  1
  O  O329  1  0.74470860  0.74341736  0.87925381  1
  O  O330  1  -0.00852494  0.10938999  -0.00270880  1
  O  O331  1  0.00923100  0.11871104  0.50310442  1
  O  O332  1  -0.00179834  0.61862164  0.00989917  1
  O  O333  1  0.00166430  0.61601540  0.50737526  1
  O  O334  1  0.50608896  0.11926159  0.00619951  1
  O  O335  1  0.51014888  0.12524075  0.50657083  1
  O  O336  1  0.50554260  0.61844036  0.00550902  1
  O  O337  1  0.50031560  0.61897849  0.51121703  1
  O  O338  1  0.49366915  0.37938109  0.49395681  1
  O  O339  1  0.49520063  0.37986299  0.99674726  1
  O  O340  1  0.49269446  0.87625239  0.49238244  1
  O  O341  1  0.50309635  0.88310104  0.99245501  1
  O  O342  1  0.99371783  0.38010284  0.49284018  1
  O  O343  1  0.99198703  0.37915531  0.99482089  1
  O  O344  1  0.99952576  0.89035224  0.50428632  1
  O  O345  1  0.99273700  0.88119078  0.99137693  1
  O  O346  1  0.49738649  0.49134852  0.38236626  1
  O  O347  1  0.49418566  0.49414385  0.88175630  1
  O  O348  1  0.49041637  0.99520291  0.37655465  1
  O  O349  1  0.50126136  0.99009274  0.88302990  1
  O  O350  1  0.99600525  0.49419740  0.37850337  1
  O  O351  1  0.99476740  0.49434631  0.88068585  1
  O  O352  1  0.99210552  1.00899796  0.38419204  1
  O  O353  1  0.99153261  0.99360471  0.87950280  1
  O  O354  1  -0.00350427  -0.00506918  0.10381575  1
  O  O355  1  0.00510200  0.00600271  0.61606427  1
  O  O356  1  0.00118421  0.51030120  0.12180506  1
  O  O357  1  0.00783591  0.50299297  0.62086187  1
  O  O358  1  0.49993426  0.00885517  0.11626062  1
  O  O359  1  0.50667047  0.00602876  0.62280001  1
  O  O360  1  0.50567224  0.50575109  0.12013316  1
  O  O361  1  0.50504726  0.50649858  0.62251285  1
  O  O362  1  0.25954339  0.38612753  0.24226674  1
  O  O363  1  0.24377295  0.38692256  0.75799384  1
  O  O364  1  0.23709332  0.87877231  0.24680508  1
  O  O365  1  0.24437143  0.87878591  0.74462105  1
  O  O366  1  0.73751349  0.38219878  0.25920832  1
  O  O367  1  0.74545379  0.37880974  0.74474923  1
  O  O368  1  0.74525932  0.88126418  0.24247960  1
  O  O369  1  0.74288770  0.87931796  0.74288752  1
  O  O370  1  0.25143630  0.12400413  0.26451267  1
  O  O371  1  0.25530841  0.11671704  0.75125520  1
  O  O372  1  0.26042394  0.61997234  0.24845521  1
  O  O373  1  0.25036730  0.61120723  0.75777858  1
  O  O374  1  0.75831727  0.12092295  0.24755079  1
  O  O375  1  0.75143909  0.11519381  0.75141852  1
  O  O376  1  0.75643127  0.61927288  0.25543836  1
  O  O377  1  0.75524681  0.61806169  0.75522769  1
  O  O378  1  0.36923054  0.11933073  0.37779778  1
  O  O379  1  0.37131009  0.12262373  0.86699762  1
  O  O380  1  0.37502557  0.62582333  0.36354936  1
  O  O381  1  0.36871093  0.61588787  0.87430785  1
  O  O382  1  0.87248866  0.11510805  0.36416778  1
  O  O383  1  0.87396552  0.11094630  0.87008132  1
  O  O384  1  0.87154412  0.61965802  0.36869160  1
  O  O385  1  0.86941800  0.61802749  0.86975153  1
  O  O386  1  0.13999988  0.37533510  0.12410132  1
  O  O387  1  0.11931367  0.38709924  0.63121086  1
  O  O388  1  0.12715552  0.88158669  0.13724902  1
  O  O389  1  0.13012924  0.87950703  0.62990005  1
  O  O390  1  0.61583447  0.38248778  0.13837442  1
  O  O391  1  0.63007689  0.37953188  0.63078094  1
  O  O392  1  0.63125955  0.87592173  0.13087353  1
  O  O393  1  0.62918415  0.87937772  0.62875007  1
  O  O394  1  0.10797357  0.24783999  0.25603704  1
  O  O395  1  0.12066231  0.25467887  0.75669295  1
  O  O396  1  0.12264150  0.76174719  0.25801890  1
  O  O397  1  0.12036179  0.75314187  0.75404738  1
  O  O398  1  0.62292867  0.26088683  0.25108588  1
  O  O399  1  0.61780526  0.25535369  0.75023319  1
  O  O400  1  0.61917136  0.75600482  0.25424917  1
  O  O401  1  0.62206389  0.75549645  0.75719048  1
  O  O402  1  0.37816307  0.24921271  0.23866100  1
  O  O403  1  0.37903115  0.24624475  0.74444576  1
  O  O404  1  0.37901363  0.74362040  0.24612871  1
  O  O405  1  0.37672763  0.74566798  0.74194425  1
  O  O406  1  0.88508879  0.24169327  0.25642636  1
  O  O407  1  0.88168067  0.24948468  0.74335013  1
  O  O408  1  0.87701054  0.74483293  0.24274542  1
  O  O409  1  0.88090531  0.74274245  0.74518430  1
  O  O410  1  0.38129265  0.49117990  0.50255994  1
  O  O411  1  0.38053458  0.49463030  0.99721333  1
  O  O412  1  0.37594861  0.99474973  0.49090362  1
  O  O413  1  0.38921117  0.99911686  0.99651566  1
  O  O414  1  0.88123401  0.49414870  0.49444498  1
  O  O415  1  0.87898460  0.49194736  0.99394290  1
  O  O416  1  0.88379956  1.00146273  0.49004772  1
  O  O417  1  0.88061115  0.99359856  0.98872147  1
  O  O418  1  0.10762631  -0.00634519  -0.00696481  1
  O  O419  1  0.11919890  0.00748664  0.50279390  1
  O  O420  1  0.11618681  0.50079628  0.00457208  1
  O  O421  1  0.12131677  0.50116829  0.50953808  1
  O  O422  1  0.61618510  0.00820739  0.00162179  1
  O  O423  1  0.62493941  0.00993280  0.50433066  1
  O  O424  1  0.62039227  0.50370861  0.00513666  1
  O  O425  1  0.61850798  0.50096236  0.50798662  1
  O  O426  1  0.36933465  0.36701817  0.12207989  1
  O  O427  1  0.38306773  0.36481050  0.61646514  1
  O  O428  1  0.37421138  0.86586359  0.12227954  1
  O  O429  1  0.36967850  0.86952041  0.61956893  1
  O  O430  1  0.87952190  0.38078287  0.11195000  1
  O  O431  1  0.87037346  0.36999227  0.61870488  1
  O  O432  1  0.86879613  0.86914564  0.11843098  1
  O  O433  1  0.86866152  0.86735438  0.62384289  1
  O  O434  1  0.13383290  0.12522848  0.38453580  1
  O  O435  1  0.12590714  0.13896172  0.86943004  1
  O  O436  1  0.12935898  0.63852262  0.37786875  1
  O  O437  1  0.13038498  0.63103661  0.87775278  1
  O  O438  1  0.62556824  0.12717391  0.38605584  1
  O  O439  1  0.62372108  0.12474196  0.88752203  1
  O  O440  1  0.63100848  0.63160872  0.37448992  1
  O  O441  1  0.62975192  0.62766344  0.88052706  1
