# generated using pymatgen
data_V93Zn93O256
_symmetry_space_group_name_H-M   'P 1'
_cell_length_a   17.05071259
_cell_length_b   17.05048944
_cell_length_c   17.04933136
_cell_angle_alpha   90.00325158
_cell_angle_beta   89.93910759
_cell_angle_gamma   90.01251286
_symmetry_Int_Tables_number   1
_chemical_formula_structural   V93Zn93O256
_chemical_formula_sum   'V93 Zn93 O256'
_cell_volume   4956.62975020
_cell_formula_units_Z   1
loop_
 _symmetry_equiv_pos_site_id
 _symmetry_equiv_pos_as_xyz
  1  'x, y, z'
loop_
 _atom_site_type_symbol
 _atom_site_label
 _atom_site_symmetry_multiplicity
 _atom_site_fract_x
 _atom_site_fract_y
 _atom_site_fract_z
 _atom_site_occupancy
  V  V0  1  0.11746145  0.62341822  0.50266411  1
  V  V1  1  0.36700714  0.37639377  0.00504430  1
  V  V2  1  0.62446152  0.24931861  0.87568231  1
  V  V3  1  0.49978965  -0.00103325  0.50049992  1
  V  V4  1  0.49734798  0.24715970  0.75102927  1
  V  V5  1  -0.00022766  0.87678527  0.37658879  1
  V  V6  1  0.75345031  0.12557445  0.87110486  1
  V  V7  1  0.87555518  0.25074511  0.12559760  1
  V  V8  1  0.00068611  0.75058603  0.24828005  1
  V  V9  1  0.87961018  0.74533162  0.62375743  1
  V  V10  1  0.24851340  0.24892662  0.50195962  1
  V  V11  1  0.49824810  0.37508021  0.87719382  1
  V  V12  1  0.37669696  0.00752777  0.86839923  1
  V  V13  1  0.49916111  0.62746809  0.12523067  1
  V  V14  1  0.37439272  0.62437164  0.75007587  1
  V  V15  1  0.87451022  0.37680918  0.00056212  1
  V  V16  1  0.62685345  0.12574032  0.49909018  1
  V  V17  1  0.87661472  0.62526341  0.74738941  1
  V  V18  1  0.24694368  0.49931388  0.75024489  1
  V  V19  1  0.00069599  0.62615804  0.12463377  1
  V  V20  1  0.37444272  0.62511127  0.24936102  1
  V  V21  1  0.62434114  0.62569192  -0.00036616  1
  V  V22  1  0.75253419  0.00175310  0.74996590  1
  V  V23  1  0.37646276  0.87681867  -0.00073245  1
  V  V24  1  0.00096936  0.12464099  0.12338741  1
  V  V25  1  0.25201245  0.75052304  0.50057539  1
  V  V26  1  0.12332073  0.24991445  0.37687127  1
  V  V27  1  0.11678178  0.50280700  0.62512574  1
  V  V28  1  0.87469561  0.49956805  0.37554861  1
  V  V29  1  0.49926622  0.50082416  -0.00068629  1
  V  V30  1  0.24855455  0.12434347  0.37653272  1
  V  V31  1  0.75137056  0.87401805  0.62544393  1
  V  V32  1  -0.00009975  0.50139046  -0.00060080  1
  V  V33  1  0.87476026  0.62442809  0.25003563  1
  V  V34  1  0.87737646  0.00353885  0.86858489  1
  V  V35  1  0.37416344  0.12600983  0.25200885  1
  V  V36  1  0.75053555  0.74841589  0.49889164  1
  V  V37  1  0.36707521  0.25538299  0.12609116  1
  V  V38  1  0.37340486  0.37403495  0.50077563  1
  V  V39  1  0.62600249  0.87495424  0.74951403  1
  V  V40  1  0.37319868  0.24398764  0.63143903  1
  V  V41  1  0.62605588  0.00156271  0.12390798  1
  V  V42  1  0.24694536  0.87306384  0.63213382  1
  V  V43  1  0.12287774  0.12359829  0.50348312  1
  V  V44  1  0.87527938  0.50140859  0.87450347  1
  V  V45  1  0.12513817  0.74893974  0.37395313  1
  V  V46  1  0.87413547  0.00158856  0.37502154  1
  V  V47  1  0.13060370  0.49664440  0.12570818  1
  V  V48  1  0.49966908  0.25118024  0.25137008  1
  V  V49  1  0.12983409  0.37522975  0.24731364  1
  V  V50  1  -0.00227581  0.12545089  0.63790662  1
  V  V51  1  0.49905566  0.37526000  0.37550295  1
  V  V52  1  0.74842007  0.49998077  0.74924844  1
  V  V53  1  0.00249996  0.36702474  0.87024791  1
  V  V54  1  0.62444965  0.49809821  0.62490661  1
  V  V55  1  0.50090456  0.12629838  0.12407355  1
  V  V56  1  0.75174418  0.75086966  -0.00049688  1
  V  V57  1  -0.00081688  0.24941332  0.25000272  1
  V  V58  1  0.62558590  0.74901131  0.37423367  1
  V  V59  1  0.49861720  0.87604146  0.37575727  1
  V  V60  1  0.75059968  0.49936849  0.24983071  1
  V  V61  1  0.49779330  0.12468681  0.62955212  1
  V  V62  1  0.00385815  0.00037261  -0.00134141  1
  V  V63  1  0.62453059  0.24936803  0.37725250  1
  V  V64  1  -0.00113286  0.37491174  0.37620874  1
  V  V65  1  0.50125355  0.87600744  0.87355136  1
  V  V66  1  0.74923861  0.37538758  0.12539225  1
  V  V67  1  0.62713159  0.75102892  0.87346229  1
  V  V68  1  0.24977728  0.62337280  0.37360302  1
  V  V69  1  0.74894448  0.25037138  0.00004063  1
  V  V70  1  0.12592181  0.62663500  -0.00038787  1
  V  V71  1  0.49922747  0.49941396  0.50101221  1
  V  V72  1  0.24984873  -0.00036793  0.24991813  1
  V  V73  1  0.12644739  0.75348677  0.86925062  1
  V  V74  1  0.62362515  0.37529143  0.75078761  1
  V  V75  1  0.25120341  0.75209490  -0.00067403  1
  V  V76  1  0.12381725  -0.00464472  0.63055762  1
  V  V77  1  0.50094747  0.74892722  0.74811712  1
  V  V78  1  0.62570544  -0.00005701  0.62531171  1
  V  V79  1  0.87555090  0.75128308  0.12361097  1
  V  V80  1  0.75037954  0.62588519  0.87443628  1
  V  V81  1  0.24785013  0.37432984  0.62539363  1
  V  V82  1  0.62527781  0.37563647  0.25073419  1
  V  V83  1  0.75093570  0.87632514  0.12360128  1
  V  V84  1  0.37311499  0.49993018  0.37522836  1
  V  V85  1  0.87752109  0.24432959  0.63923839  1
  V  V86  1  0.25463397  0.00708461  0.74875238  1
  V  V87  1  0.00289972  0.87466997  0.86942204  1
  V  V88  1  0.87384150  0.37035180  0.50070124  1
  V  V89  1  0.00302187  0.74621353  0.74627832  1
  V  V90  1  0.50012464  0.62343104  0.62439528  1
  V  V91  1  0.12735184  0.87583582  0.24842678  1
  V  V92  1  0.62559569  0.87595708  0.24864925  1
  Zn  Zn93  1  0.75239354  0.00289601  0.24911367  1
  Zn  Zn94  1  0.12744776  -0.00007521  0.12257277  1
  Zn  Zn95  1  0.37637692  0.75199873  0.62448482  1
  Zn  Zn96  1  0.37213266  0.49849315  0.87631441  1
  Zn  Zn97  1  0.74979552  0.37073945  0.62672832  1
  Zn  Zn98  1  0.37520189  0.75307413  0.12681336  1
  Zn  Zn99  1  0.24645860  0.25002765  -0.00139830  1
  Zn  Zn100  1  0.25191234  0.12873965  0.87630346  1
  Zn  Zn101  1  0.12982722  0.12978427  -0.00216711  1
  Zn  Zn102  1  0.37465175  0.00030448  0.37682687  1
  Zn  Zn103  1  0.37387587  0.87693764  0.50094686  1
  Zn  Zn104  1  0.25017089  0.62509346  0.87388367  1
  Zn  Zn105  1  0.62444218  0.62230968  0.49848985  1
  Zn  Zn106  1  0.75046675  0.24878689  0.50132730  1
  Zn  Zn107  1  0.49826123  0.75153856  0.24918391  1
  Zn  Zn108  1  0.74897726  0.62396296  0.37311949  1
  Zn  Zn109  1  -0.00119353  0.00037642  0.50347098  1
  Zn  Zn110  1  0.62598008  0.12538304  0.00047742  1
  Zn  Zn111  1  0.62537450  0.50064853  0.12569842  1
  Zn  Zn112  1  0.49998816  0.00219587  -0.00247115  1
  Zn  Zn113  1  0.87601916  0.87494785  0.50027983  1
  Zn  Zn114  1  -0.00458344  0.50282272  0.50470100  1
  Zn  Zn115  1  0.25126343  0.87721394  0.12468815  1
  Zn  Zn116  1  0.87629024  0.87543565  -0.00079822  1
  Zn  Zn117  1  0.87346352  0.12556623  0.25116807  1
  Zn  Zn118  1  0.11607033  0.36484565  0.74346970  1
  Zn  Zn119  1  0.12926734  0.24301838  0.86963527  1
  Zn  Zn120  1  0.75196835  0.12629816  0.37296744  1
  Zn  Zn121  1  0.25166982  0.49647678  0.24706600  1
  Zn  Zn122  1  0.18462998  0.18556308  0.18806936  1
  Zn  Zn123  1  0.18359045  0.18650250  0.69117770  1
  Zn  Zn124  1  0.18912969  0.68684987  0.18600172  1
  Zn  Zn125  1  0.18658483  0.68503711  0.68517511  1
  Zn  Zn126  1  0.68954116  0.18743215  0.19116292  1
  Zn  Zn127  1  0.68791128  0.18830734  0.68760232  1
  Zn  Zn128  1  0.68769931  0.68810776  0.18719574  1
  Zn  Zn129  1  0.68792341  0.68519607  0.68517165  1
  Zn  Zn130  1  0.31142917  0.31116137  0.31410045  1
  Zn  Zn131  1  0.30999690  0.31427260  0.81467862  1
  Zn  Zn132  1  0.31394998  0.81104363  0.31251883  1
  Zn  Zn133  1  0.31494047  0.81546804  0.81202522  1
  Zn  Zn134  1  0.81044340  0.31043433  0.31410814  1
  Zn  Zn135  1  0.81163432  0.31511493  0.81469732  1
  Zn  Zn136  1  0.81254974  0.81541449  0.30944811  1
  Zn  Zn137  1  0.81607796  0.81480953  0.81182786  1
  Zn  Zn138  1  0.18616327  0.43757846  0.43830475  1
  Zn  Zn139  1  0.18544669  0.43796616  0.93649442  1
  Zn  Zn140  1  0.18597827  0.93753435  0.43998152  1
  Zn  Zn141  1  0.18946713  0.93853062  0.93249779  1
  Zn  Zn142  1  0.68894403  0.43620285  0.43832635  1
  Zn  Zn143  1  0.68574371  0.43853156  0.93773462  1
  Zn  Zn144  1  0.68892656  0.93686369  0.43796492  1
  Zn  Zn145  1  0.68834618  0.93846027  0.93922726  1
  Zn  Zn146  1  0.31387390  0.06503494  0.06124029  1
  Zn  Zn147  1  0.31253663  0.06058069  0.56189384  1
  Zn  Zn148  1  0.31311322  0.56460592  0.06169363  1
  Zn  Zn149  1  0.30960970  0.56305451  0.56334278  1
  Zn  Zn150  1  0.81571132  0.06304865  0.05814401  1
  Zn  Zn151  1  0.81486009  0.06202218  0.56093123  1
  Zn  Zn152  1  0.81200611  0.56324810  0.06339534  1
  Zn  Zn153  1  0.81084249  0.56167280  0.56213276  1
  Zn  Zn154  1  0.43813536  0.43988358  0.18734714  1
  Zn  Zn155  1  0.43553502  0.43503690  0.68809376  1
  Zn  Zn156  1  0.43752783  0.93920129  0.18825763  1
  Zn  Zn157  1  0.43552990  0.93539118  0.68508947  1
  Zn  Zn158  1  0.94044577  0.43730745  0.18800900  1
  Zn  Zn159  1  0.93340946  0.43493141  0.68763275  1
  Zn  Zn160  1  0.93736655  0.93815712  0.18835243  1
  Zn  Zn161  1  0.93871599  0.93341867  0.68770285  1
  Zn  Zn162  1  0.06205804  0.06258814  0.31164668  1
  Zn  Zn163  1  0.06903895  0.06304161  0.81187678  1
  Zn  Zn164  1  0.06104205  0.56104224  0.31340007  1
  Zn  Zn165  1  0.06221708  0.56388644  0.81354564  1
  Zn  Zn166  1  0.56297348  0.06193395  0.31127556  1
  Zn  Zn167  1  0.56429074  0.06386784  0.81234238  1
  Zn  Zn168  1  0.56159458  0.56223743  0.31151546  1
  Zn  Zn169  1  0.56130689  0.56167342  0.81341056  1
  Zn  Zn170  1  0.43684990  0.18632084  0.44087395  1
  Zn  Zn171  1  0.43539269  0.19139618  0.94076363  1
  Zn  Zn172  1  0.43795643  0.68610890  0.43668316  1
  Zn  Zn173  1  0.43785278  0.68819726  0.93479828  1
  Zn  Zn174  1  0.93974706  0.18546324  0.44326344  1
  Zn  Zn175  1  0.93569849  0.18606892  0.93937166  1
  Zn  Zn176  1  0.93635190  0.68797872  0.43468349  1
  Zn  Zn177  1  0.93828783  0.68734503  0.93622389  1
  Zn  Zn178  1  0.06437817  0.31282865  0.05911488  1
  Zn  Zn179  1  0.05856750  0.31158537  0.56584021  1
  Zn  Zn180  1  0.06487706  0.81604762  0.06060033  1
  Zn  Zn181  1  0.06490553  0.81175124  0.56186030  1
  Zn  Zn182  1  0.56070066  0.31362945  0.06271697  1
  Zn  Zn183  1  0.56038985  0.31208425  0.56436822  1
  Zn  Zn184  1  0.56321192  0.81282954  0.06094004  1
  Zn  Zn185  1  0.56373901  0.81142917  0.56176644  1
  O  O186  1  0.11129516  0.12219725  0.12316041  1
  O  O187  1  0.11767629  0.11588428  0.62179269  1
  O  O188  1  0.11882285  0.61895502  0.11981438  1
  O  O189  1  0.13033016  0.61493082  0.61351388  1
  O  O190  1  0.61696280  0.11948319  0.12581055  1
  O  O191  1  0.61990729  0.11974404  0.61735680  1
  O  O192  1  0.61603334  0.62549466  0.11878206  1
  O  O193  1  0.61778844  0.61667905  0.62337923  1
  O  O194  1  0.37911675  0.37913216  0.38077430  1
  O  O195  1  0.38215007  0.37669899  0.88611323  1
  O  O196  1  0.38836246  0.87451420  0.37710492  1
  O  O197  1  0.38198693  0.88270632  0.88136289  1
  O  O198  1  0.87851220  0.37891539  0.38259859  1
  O  O199  1  0.88180356  0.38232981  0.88091520  1
  O  O200  1  0.88512293  0.88099881  0.37386850  1
  O  O201  1  0.88483383  0.88362451  0.87711435  1
  O  O202  1  0.24997098  0.00522119  0.36672298  1
  O  O203  1  0.26009109  -0.00356715  0.86341612  1
  O  O204  1  0.25603048  0.50602856  0.37488731  1
  O  O205  1  0.24913324  0.50318635  0.86283068  1
  O  O206  1  0.76142539  -0.00102968  0.37390628  1
  O  O207  1  0.75795917  0.00590734  0.87201537  1
  O  O208  1  0.75656310  0.50096559  0.36838125  1
  O  O209  1  0.75485708  0.50630330  0.86977794  1
  O  O210  1  0.23409824  0.50724673  0.12607525  1
  O  O211  1  0.24109485  0.49477687  0.63153533  1
  O  O212  1  0.25041462  1.00103101  0.13897934  1
  O  O213  1  0.24534928  0.99245119  0.62977577  1
  O  O214  1  0.74885109  0.49305076  0.13108320  1
  O  O215  1  0.74305828  0.49825124  0.63230019  1
  O  O216  1  0.74207420  0.99608243  0.12213801  1
  O  O217  1  0.74644468  0.99462565  0.62985224  1
  O  O218  1  0.00825930  0.36918787  0.25650887  1
  O  O219  1  -0.00317597  0.38170290  0.76729948  1
  O  O220  1  0.00651983  0.87035408  0.25791131  1
  O  O221  1  -0.00370773  0.86199928  0.76156485  1
  O  O222  1  0.50481288  0.37115851  0.25651000  1
  O  O223  1  0.50390686  0.36869146  0.75681419  1
  O  O224  1  0.50608187  0.87420659  0.25900481  1
  O  O225  1  0.50683428  0.86879773  0.75314798  1
  O  O226  1  0.49512165  0.13058983  0.24309375  1
  O  O227  1  0.50791620  0.13438647  0.74151031  1
  O  O228  1  0.49445461  0.62609607  0.24083728  1
  O  O229  1  0.49286321  0.62842314  0.74489334  1
  O  O230  1  0.99888185  0.13063169  0.24007326  1
  O  O231  1  1.00121802  0.11704767  0.73652464  1
  O  O232  1  0.99539778  0.63135914  0.24475432  1
  O  O233  1  0.99215012  0.63825080  0.75646233  1
  O  O234  1  0.37603201  0.26074837  0.01135936  1
  O  O235  1  0.36881780  0.25505611  0.50885507  1
  O  O236  1  0.36676332  0.75972933  -0.00490020  1
  O  O237  1  0.36152280  0.74773413  0.50073318  1
  O  O238  1  0.86816577  0.25691314  0.00597099  1
  O  O239  1  0.87285809  0.25916248  0.50408291  1
  O  O240  1  0.86964318  0.75009649  0.00566516  1
  O  O241  1  0.86862868  0.75076540  0.50615184  1
  O  O242  1  0.12934618  0.24488017  0.49720697  1
  O  O243  1  0.12873995  0.25026936  0.99341549  1
  O  O244  1  0.13279534  0.74216744  0.49521581  1
  O  O245  1  0.13289851  0.74736504  0.99151146  1
  O  O246  1  0.62290501  0.24058644  0.49699825  1
  O  O247  1  0.63126814  0.25036166  0.99359928  1
  O  O248  1  0.63379003  0.74876029  0.49129641  1
  O  O249  1  0.63160965  0.74561880  0.99261258  1
  O  O250  1  0.49390378  0.24285673  0.13216851  1
  O  O251  1  0.49086969  0.24556485  0.63031698  1
  O  O252  1  0.49921050  0.73880160  0.12503779  1
  O  O253  1  0.49979856  0.74300231  0.63033984  1
  O  O254  1  0.99503293  0.24326525  0.12851570  1
  O  O255  1  0.98637872  0.24147855  0.62315411  1
  O  O256  1  0.99676555  0.74614880  0.12876752  1
  O  O257  1  0.99211014  0.75815353  0.63457880  1
  O  O258  1  0.00520558  0.25416370  0.37059423  1
  O  O259  1  -0.00608496  0.26662549  0.88116024  1
  O  O260  1  0.00454422  0.75793871  0.36791369  1
  O  O261  1  0.00644278  0.75631828  0.86882259  1
  O  O262  1  0.50297447  0.25581171  0.37100752  1
  O  O263  1  0.50435825  0.25438445  0.87086057  1
  O  O264  1  0.50988387  0.75842707  0.37661301  1
  O  O265  1  0.50787011  0.75537343  0.86793876  1
  O  O266  1  0.24301201  0.12974659  0.49636110  1
  O  O267  1  0.24819183  0.12769445  0.99786296  1
  O  O268  1  0.24151265  0.63267813  0.49467559  1
  O  O269  1  0.24620085  0.63591946  0.99597315  1
  O  O270  1  0.73540717  0.12375649  0.49867857  1
  O  O271  1  0.74951191  0.13164573  0.98927005  1
  O  O272  1  0.74798405  0.63742546  0.49658659  1
  O  O273  1  0.74482315  0.63065857  0.99414196  1
  O  O274  1  0.26458606  0.37892834  -0.00255143  1
  O  O275  1  0.25383951  0.36824071  0.50511074  1
  O  O276  1  0.25911326  0.86874118  -0.00158764  1
  O  O277  1  0.24990794  0.86403837  0.50549834  1
  O  O278  1  0.75487739  0.37089910  0.00440020  1
  O  O279  1  0.76161395  0.37350227  0.50433046  1
  O  O280  1  0.75254316  0.86832631  0.00533352  1
  O  O281  1  0.75038173  0.86278703  0.50602407  1
  O  O282  1  0.12409289  0.49243995  0.24287165  1
  O  O283  1  0.13277385  0.50318921  0.74188335  1
  O  O284  1  0.13474985  0.99501571  0.24996731  1
  O  O285  1  0.13575902  0.99914238  0.73650548  1
  O  O286  1  0.63162179  0.49316943  0.24983838  1
  O  O287  1  0.62856003  0.49467859  0.74561496  1
  O  O288  1  0.62617353  0.99524467  0.23844977  1
  O  O289  1  0.63188282  0.99367538  0.74448288  1
  O  O290  1  0.36650480  0.00666185  0.25331218  1
  O  O291  1  0.36855700  -0.00671458  0.75873285  1
  O  O292  1  0.37203468  0.50530646  0.25650666  1
  O  O293  1  0.36524139  0.50766030  0.74858480  1
  O  O294  1  0.87536258  0.00173230  0.26168737  1
  O  O295  1  0.86964215  -0.00656510  0.76156242  1
  O  O296  1  0.87076474  0.50418966  0.25476916  1
  O  O297  1  0.86849823  0.50588872  0.75362406  1
  O  O298  1  0.11856876  0.36934997  0.36965730  1
  O  O299  1  0.10720735  0.37854390  0.87560320  1
  O  O300  1  0.11795591  0.86977366  0.36953857  1
  O  O301  1  0.11578180  0.86362843  0.87840688  1
  O  O302  1  0.61796465  0.36974432  0.37114801  1
  O  O303  1  0.61866451  0.36905296  0.87087370  1
  O  O304  1  0.61807887  0.86823903  0.37045283  1
  O  O305  1  0.62177065  0.87091872  0.86911035  1
  O  O306  1  0.38465750  0.13299694  0.13198196  1
  O  O307  1  0.38080421  0.13700234  0.61801690  1
  O  O308  1  0.38417691  0.62740655  0.12912729  1
  O  O309  1  0.37984364  0.62589859  0.63505699  1
  O  O310  1  0.88599129  0.13129484  0.12366087  1
  O  O311  1  0.88129443  0.13681902  0.62036483  1
  O  O312  1  0.88160327  0.63083316  0.13009639  1
  O  O313  1  0.87038969  0.63820784  0.62935764  1
  O  O314  1  0.26524922  0.24432258  0.12824214  1
  O  O315  1  0.25609552  0.25339080  0.62084058  1
  O  O316  1  0.25172123  0.75253643  0.11036394  1
  O  O317  1  0.24747093  0.75690256  0.61711528  1
  O  O318  1  0.75508578  0.25595603  0.12018244  1
  O  O319  1  0.76341745  0.24860723  0.62234141  1
  O  O320  1  0.75540670  0.75569288  0.11892238  1
  O  O321  1  0.75696309  0.75376115  0.61766115  1
  O  O322  1  0.24311341  0.24414593  0.38197313  1
  O  O323  1  0.25165934  0.24634444  0.87956093  1
  O  O324  1  0.24421803  0.74513469  0.38266880  1
  O  O325  1  0.24217065  0.75248839  0.88111694  1
  O  O326  1  0.73963392  0.24752609  0.37984887  1
  O  O327  1  0.74633798  0.24314196  0.87914147  1
  O  O328  1  0.74252028  0.75243360  0.38178113  1
  O  O329  1  0.74682005  0.74560356  0.87839506  1
  O  O330  1  0.00028832  0.11618280  0.00707091  1
  O  O331  1  0.00770085  0.12159757  0.51219820  1
  O  O332  1  0.00609392  0.62130820  0.00475311  1
  O  O333  1  0.01366930  0.62508410  0.49403009  1
  O  O334  1  0.50112306  0.12567721  0.01418378  1
  O  O335  1  0.50903169  0.11958564  0.50704538  1
  O  O336  1  0.50384126  0.62224650  0.00581833  1
  O  O337  1  0.50005966  0.61699760  0.50618164  1
  O  O338  1  0.49312092  0.37955200  0.49498656  1
  O  O339  1  0.49271626  0.38135575  0.99631643  1
  O  O340  1  0.50145261  0.87986678  0.49132097  1
  O  O341  1  0.49158853  0.87450941  0.99253727  1
  O  O342  1  0.98909678  0.37549474  0.49456907  1
  O  O343  1  0.99267931  0.38301508  0.99201995  1
  O  O344  1  1.00089719  0.87359589  0.48591605  1
  O  O345  1  0.99881130  0.88210450  0.98865021  1
  O  O346  1  0.49330629  0.49454660  0.38069872  1
  O  O347  1  0.49790358  0.49350508  0.88165296  1
  O  O348  1  0.50170089  0.99005529  0.38015519  1
  O  O349  1  0.49458593  0.99393377  0.87446417  1
  O  O350  1  0.99206149  0.49271681  0.37735915  1
  O  O351  1  0.99337458  0.49600514  0.88132840  1
  O  O352  1  0.99448776  0.99090958  0.37584432  1
  O  O353  1  0.99585478  0.99343542  0.87734825  1
  O  O354  1  -0.00188724  0.00708261  0.11523029  1
  O  O355  1  0.00754094  0.00198966  0.62511951  1
  O  O356  1  0.00797678  0.50695614  0.11967341  1
  O  O357  1  0.01283188  0.49356190  0.62565288  1
  O  O358  1  0.50771206  0.01018920  0.12537659  1
  O  O359  1  0.50632534  0.00384579  0.62114901  1
  O  O360  1  0.50199201  0.51240155  0.11944705  1
  O  O361  1  0.50416838  0.50298821  0.62051222  1
  O  O362  1  0.23393329  0.37548396  0.25685000  1
  O  O363  1  0.24962401  0.38793021  0.74379052  1
  O  O364  1  0.24674820  0.88361983  0.25092403  1
  O  O365  1  0.25363513  0.88100748  0.73729199  1
  O  O366  1  0.74493863  0.37946596  0.24473528  1
  O  O367  1  0.74211793  0.38268178  0.75072560  1
  O  O368  1  0.74311426  0.87817606  0.24081818  1
  O  O369  1  0.74509880  0.88031400  0.74511576  1
  O  O370  1  0.25303030  0.11827392  0.25686531  1
  O  O371  1  0.25156029  0.10892448  0.74791860  1
  O  O372  1  0.25560997  0.62344832  0.25648749  1
  O  O373  1  0.25827511  0.61771364  0.74886988  1
  O  O374  1  0.75519620  0.12109859  0.25463194  1
  O  O375  1  0.74308554  0.11807842  0.76361230  1
  O  O376  1  0.75716582  0.61862220  0.24954695  1
  O  O377  1  0.75556417  0.62034178  0.75566954  1
  O  O378  1  0.36772367  0.12584737  0.36960595  1
  O  O379  1  0.37827109  0.10946040  0.88163816  1
  O  O380  1  0.37041722  0.61896983  0.36952101  1
  O  O381  1  0.37431136  0.62222282  0.86176503  1
  O  O382  1  0.87710614  0.11360104  0.37659999  1
  O  O383  1  0.86563898  0.11523899  0.87892190  1
  O  O384  1  0.87364032  0.61875153  0.36727651  1
  O  O385  1  0.86930515  0.62068511  0.86884343  1
  O  O386  1  0.11509371  0.38571689  0.13575696  1
  O  O387  1  0.13008771  0.38391517  0.62457039  1
  O  O388  1  0.12899253  0.87886424  0.13275312  1
  O  O389  1  0.13540178  0.88401198  0.61760204  1
  O  O390  1  0.63069933  0.37602143  0.13247331  1
  O  O391  1  0.62539229  0.37965654  0.63252918  1
  O  O392  1  0.62872329  0.88293187  0.12811911  1
  O  O393  1  0.63099136  0.88014860  0.63001451  1
  O  O394  1  0.11928250  0.25683734  0.25538639  1
  O  O395  1  0.12630736  0.25466176  0.75575371  1
  O  O396  1  0.12079792  0.75461080  0.25480543  1
  O  O397  1  0.11681713  0.74171931  0.75917783  1
  O  O398  1  0.61835548  0.25592905  0.25669269  1
  O  O399  1  0.61916005  0.25626773  0.75615314  1
  O  O400  1  0.62436979  0.75642281  0.25952678  1
  O  O401  1  0.62191774  0.75498065  0.75421969  1
  O  O402  1  0.38026876  0.24692801  0.24493890  1
  O  O403  1  0.37978174  0.25770561  0.73720637  1
  O  O404  1  0.37795796  0.74190188  0.24697588  1
  O  O405  1  0.38120817  0.74070127  0.74943490  1
  O  O406  1  0.88221454  0.25073017  0.24350984  1
  O  O407  1  0.87160752  0.25363337  0.73734909  1
  O  O408  1  0.88081774  0.74522354  0.24363773  1
  O  O409  1  0.88156664  0.74543630  0.74229681  1
  O  O410  1  0.37850440  0.49380418  0.49607590  1
  O  O411  1  0.38097155  0.49364930  1.00039497  1
  O  O412  1  0.38347996  0.99810209  0.49605597  1
  O  O413  1  0.37673577  0.98945761  0.99136760  1
  O  O414  1  0.87597155  0.49063365  0.49696584  1
  O  O415  1  0.87921598  0.49704978  0.99475312  1
  O  O416  1  0.87830134  0.99421796  0.49100046  1
  O  O417  1  0.88701193  0.99851685  0.98774527  1
  O  O418  1  0.11239033  -0.00232285  -0.00036837  1
  O  O419  1  0.12530626  0.00573251  0.51213151  1
  O  O420  1  0.12033625  0.50561427  0.00726001  1
  O  O421  1  0.12357746  0.50725487  0.50743177  1
  O  O422  1  0.62120614  0.00190055  0.01151863  1
  O  O423  1  0.62033558  0.00647467  0.50574669  1
  O  O424  1  0.61836215  0.50816564  0.00157008  1
  O  O425  1  0.61765386  0.49961142  0.50537916  1
  O  O426  1  0.38322585  0.36607752  0.11813039  1
  O  O427  1  0.36858202  0.36603511  0.61900654  1
  O  O428  1  0.37554666  0.87420003  0.11256739  1
  O  O429  1  0.36376583  0.87103781  0.61987557  1
  O  O430  1  0.87032857  0.37093504  0.11987523  1
  O  O431  1  0.87595083  0.36164261  0.61833700  1
  O  O432  1  0.87015113  0.86888715  0.12290636  1
  O  O433  1  0.86935860  0.86261304  0.62393460  1
  O  O434  1  0.12812888  0.13079855  0.38173898  1
  O  O435  1  0.13066875  0.12437069  0.87967993  1
  O  O436  1  0.12983164  0.62936121  0.38129154  1
  O  O437  1  0.12573780  0.63683615  0.88185349  1
  O  O438  1  0.62136639  0.12973523  0.38544959  1
  O  O439  1  0.63431945  0.13030791  0.87925098  1
  O  O440  1  0.62584082  0.63709245  0.37536671  1
  O  O441  1  0.63056910  0.63152872  0.87904584  1
