# generated using pymatgen
data_V93Zn93O256
_symmetry_space_group_name_H-M   'P 1'
_cell_length_a   17.04436626
_cell_length_b   17.04410765
_cell_length_c   17.04541067
_cell_angle_alpha   90.02803593
_cell_angle_beta   90.00485941
_cell_angle_gamma   90.01886312
_symmetry_Int_Tables_number   1
_chemical_formula_structural   V93Zn93O256
_chemical_formula_sum   'V93 Zn93 O256'
_cell_volume   4951.79342353
_cell_formula_units_Z   1
loop_
 _symmetry_equiv_pos_site_id
 _symmetry_equiv_pos_as_xyz
  1  'x, y, z'
loop_
 _atom_site_type_symbol
 _atom_site_label
 _atom_site_symmetry_multiplicity
 _atom_site_fract_x
 _atom_site_fract_y
 _atom_site_fract_z
 _atom_site_occupancy
  V  V0  1  0.63059072  0.37889836  0.75040767  1
  V  V1  1  0.25150982  0.12292031  0.37438383  1
  V  V2  1  -0.00083222  0.50033315  0.49929188  1
  V  V3  1  0.25104302  0.49908970  0.24925440  1
  V  V4  1  0.75040413  0.37842393  0.12967054  1
  V  V5  1  0.87436109  0.75005092  0.12412843  1
  V  V6  1  0.25081491  0.62337675  0.87328116  1
  V  V7  1  0.87217849  0.62314361  0.24878334  1
  V  V8  1  0.62985183  0.49939008  0.13075549  1
  V  V9  1  0.49976876  0.12480612  0.12435758  1
  V  V10  1  0.62616666  0.62509014  -0.00095739  1
  V  V11  1  0.12690176  0.37537731  0.74998906  1
  V  V12  1  0.00172657  0.75509183  0.74987931  1
  V  V13  1  0.75020178  0.24771097  0.49811091  1
  V  V14  1  0.12350062  -0.00258732  0.62977313  1
  V  V15  1  -0.00056806  0.62527794  0.12392611  1
  V  V16  1  0.74927354  0.62402442  0.37053666  1
  V  V17  1  0.37658650  0.37497717  -0.00046006  1
  V  V18  1  0.12614941  0.50025991  0.62479389  1
  V  V19  1  0.74951750  0.74992157  -0.00165984  1
  V  V20  1  -0.00083685  0.62497455  0.62473399  1
  V  V21  1  0.00069897  0.12499440  0.12504063  1
  V  V22  1  0.00175968  0.50164132  0.00051150  1
  V  V23  1  0.87517581  0.24974669  0.62398423  1
  V  V24  1  0.12506808  0.25033370  0.37538450  1
  V  V25  1  0.25199490  0.25129427  0.50186497  1
  V  V26  1  0.87544997  0.37483620  0.49912876  1
  V  V27  1  0.87398299  0.87573510  0.50070024  1
  V  V28  1  0.63104025  0.24523221  0.37428044  1
  V  V29  1  0.50160874  0.75374463  0.25380107  1
  V  V30  1  0.86780037  0.62185430  0.74938533  1
  V  V31  1  0.00123559  0.25068411  0.25040989  1
  V  V32  1  0.87557439  0.37479481  -0.00049355  1
  V  V33  1  0.86898002  0.00672756  0.87447025  1
  V  V34  1  0.74774613  0.00669268  0.75202811  1
  V  V35  1  0.00034432  0.87622130  0.87303650  1
  V  V36  1  0.37410164  0.74824312  0.62595386  1
  V  V37  1  0.24480920  -0.00189949  0.75095339  1
  V  V38  1  0.62461822  0.75049755  0.87495956  1
  V  V39  1  0.37360781  -0.00117257  0.87555738  1
  V  V40  1  0.25015467  0.24931008  -0.00012838  1
  V  V41  1  0.12695906  0.37491636  0.25031745  1
  V  V42  1  0.24409361  0.87458706  0.63002623  1
  V  V43  1  0.50085164  0.62486541  0.12448847  1
  V  V44  1  0.38207714  -0.00008281  0.37950418  1
  V  V45  1  0.37554506  0.12513394  0.74921468  1
  V  V46  1  0.49811226  0.12284057  0.62156235  1
  V  V47  1  0.86910532  0.50109618  0.87056292  1
  V  V48  1  0.62942233  0.49941280  0.62563761  1
  V  V49  1  0.62586528  0.00012707  0.12563891  1
  V  V50  1  0.87372714  0.12555602  0.25219786  1
  V  V51  1  0.12413561  0.00002436  0.12514689  1
  V  V52  1  0.12422610  0.75458788  0.87260942  1
  V  V53  1  0.87559659  0.25054346  0.12526835  1
  V  V54  1  0.62861052  0.12504945  -0.00751560  1
  V  V55  1  0.24985165  0.12457000  0.87596675  1
  V  V56  1  0.37532296  0.62501747  0.24959492  1
  V  V57  1  -0.00063031  0.24986266  0.74929735  1
  V  V58  1  0.50258184  0.37441362  0.37496788  1
  V  V59  1  0.12439549  0.87486314  0.25342517  1
  V  V60  1  0.50105827  0.49861247  -0.00033977  1
  V  V61  1  -0.00133011  -0.00008167  0.50151653  1
  V  V62  1  0.74932891  0.87557328  0.12617129  1
  V  V63  1  0.87430600  0.87544129  -0.00061389  1
  V  V64  1  0.87333779  0.75059747  0.62446397  1
  V  V65  1  0.87154927  0.00451841  0.37649719  1
  V  V66  1  0.00040079  0.37519633  0.87416945  1
  V  V67  1  0.49906546  0.87354446  0.87378817  1
  V  V68  1  0.37441596  0.87543576  0.00083774  1
  V  V69  1  0.62626662  0.62541690  0.49832157  1
  V  V70  1  0.87151384  0.49947444  0.36927715  1
  V  V71  1  0.25206517  0.37546788  0.12520965  1
  V  V72  1  -0.00069835  0.75085972  0.24999378  1
  V  V73  1  0.62601091  0.12279815  0.49835723  1
  V  V74  1  0.61986349  -0.00180171  0.62058950  1
  V  V75  1  0.37470861  0.75049507  0.12566540  1
  V  V76  1  0.37936572  0.87925502  0.50154324  1
  V  V77  1  0.75005604  0.00496727  0.25301255  1
  V  V78  1  0.74858927  0.87518520  0.62444197  1
  V  V79  1  0.37601168  0.37373042  0.50137998  1
  V  V80  1  0.75050665  0.37836731  0.62665874  1
  V  V81  1  0.50004468  0.62460971  0.62466180  1
  V  V82  1  0.12485447  0.12481894  0.50147998  1
  V  V83  1  0.50274482  0.37223787  0.87411398  1
  V  V84  1  0.37674776  0.49974515  0.37480621  1
  V  V85  1  0.75036137  0.24604614  -0.00607824  1
  V  V86  1  0.24910560  0.87543481  0.12602970  1
  V  V87  1  -0.00144781  0.12508170  0.62668146  1
  V  V88  1  0.24906660  0.74961171  0.00002497  1
  V  V89  1  0.24791564  0.62746404  0.37672261  1
  V  V90  1  0.50116660  0.25035093  0.24957844  1
  V  V91  1  0.50146965  0.49960613  0.49950502  1
  V  V92  1  -0.00108319  0.00105658  -0.00017696  1
  Zn  Zn93  1  0.74886361  0.75073093  0.49832814  1
  Zn  Zn94  1  0.37608076  0.25177466  0.62715089  1
  Zn  Zn95  1  0.50115813  0.74673304  0.75010077  1
  Zn  Zn96  1  0.12515796  0.62596698  0.00136618  1
  Zn  Zn97  1  0.25037838  0.00004483  0.25065903  1
  Zn  Zn98  1  0.74674235  0.62279811  0.87085675  1
  Zn  Zn99  1  0.12494825  0.12532507  -0.00012353  1
  Zn  Zn100  1  0.37545298  0.24864538  0.12706646  1
  Zn  Zn101  1  0.00059642  0.37646883  0.37404613  1
  Zn  Zn102  1  0.62520686  0.87632439  0.25368949  1
  Zn  Zn103  1  0.12185812  0.74956184  0.37788022  1
  Zn  Zn104  1  0.37560205  0.50003421  0.87189477  1
  Zn  Zn105  1  0.25418756  0.37444299  0.62679731  1
  Zn  Zn106  1  0.63052759  0.37846023  0.25314255  1
  Zn  Zn107  1  0.12405797  0.24815092  0.87511381  1
  Zn  Zn108  1  0.24527265  0.75103119  0.50123843  1
  Zn  Zn109  1  0.50070919  0.00021825  0.00045113  1
  Zn  Zn110  1  0.25375109  0.49971482  0.74955291  1
  Zn  Zn111  1  0.87014222  0.12884247  0.75347577  1
  Zn  Zn112  1  0.62669882  0.75402083  0.37608699  1
  Zn  Zn113  1  0.12644791  0.50215306  0.12594796  1
  Zn  Zn114  1  -0.00039591  0.87410059  0.37696704  1
  Zn  Zn115  1  0.63082281  0.24452363  0.86925732  1
  Zn  Zn116  1  0.37567334  0.12148953  0.25028109  1
  Zn  Zn117  1  0.50145948  0.24925287  0.74924390  1
  Zn  Zn118  1  0.12381765  0.62667753  0.49894302  1
  Zn  Zn119  1  0.37696578  0.62147283  0.74975409  1
  Zn  Zn120  1  0.62400028  0.87408007  0.74919152  1
  Zn  Zn121  1  0.50374135  0.87925686  0.38021287  1
  Zn  Zn122  1  0.18739422  0.18783919  0.18716144  1
  Zn  Zn123  1  0.18825897  0.18704917  0.68752326  1
  Zn  Zn124  1  0.18558194  0.68720876  0.18827577  1
  Zn  Zn125  1  0.18690793  0.68727333  0.68944050  1
  Zn  Zn126  1  0.68805408  0.18783729  0.18331764  1
  Zn  Zn127  1  0.68595846  0.19010090  0.68514297  1
  Zn  Zn128  1  0.68724931  0.68761990  0.18819471  1
  Zn  Zn129  1  0.68494021  0.68950060  0.68678393  1
  Zn  Zn130  1  0.31454187  0.31116450  0.31401965  1
  Zn  Zn131  1  0.31452433  0.31078454  0.81312611  1
  Zn  Zn132  1  0.31301986  0.81356397  0.31363064  1
  Zn  Zn133  1  0.31224904  0.81110675  0.81057777  1
  Zn  Zn134  1  0.81342404  0.31225212  0.31266479  1
  Zn  Zn135  1  0.81347043  0.31448333  0.81090291  1
  Zn  Zn136  1  0.81267818  0.81375454  0.31319630  1
  Zn  Zn137  1  0.81128998  0.81595883  0.81086249  1
  Zn  Zn138  1  0.18877165  0.43779308  0.43767540  1
  Zn  Zn139  1  0.18770655  0.43681756  0.93732141  1
  Zn  Zn140  1  0.19014960  0.93765396  0.44195359  1
  Zn  Zn141  1  0.18610096  0.93695590  0.93846352  1
  Zn  Zn142  1  0.68937368  0.43650699  0.43842444  1
  Zn  Zn143  1  0.68737430  0.43539113  0.94086636  1
  Zn  Zn144  1  0.68753303  0.93706166  0.43694886  1
  Zn  Zn145  1  0.68629561  0.93768140  0.93820155  1
  Zn  Zn146  1  0.31280894  0.06147305  0.06278706  1
  Zn  Zn147  1  0.31133149  0.06049808  0.56231198  1
  Zn  Zn148  1  0.31377308  0.56201550  0.05996460  1
  Zn  Zn149  1  0.31218120  0.56125361  0.56125160  1
  Zn  Zn150  1  0.81228640  0.06334197  0.06427713  1
  Zn  Zn151  1  0.80911158  0.06344178  0.56461123  1
  Zn  Zn152  1  0.81252824  0.56267261  0.05960378  1
  Zn  Zn153  1  0.81197345  0.56270074  0.55882167  1
  Zn  Zn154  1  0.43945495  0.43640837  0.18659875  1
  Zn  Zn155  1  0.43950278  0.43881705  0.68891680  1
  Zn  Zn156  1  0.43557857  0.93958619  0.19129773  1
  Zn  Zn157  1  0.43411378  0.93764531  0.68881578  1
  Zn  Zn158  1  0.93880965  0.43695534  0.18757148  1
  Zn  Zn159  1  0.93848720  0.43745230  0.68694345  1
  Zn  Zn160  1  0.93746376  0.93743192  0.18796264  1
  Zn  Zn161  1  0.93390446  0.93855022  0.68846677  1
  Zn  Zn162  1  0.06064977  0.06126801  0.31369609  1
  Zn  Zn163  1  0.06227285  0.06410671  0.81356967  1
  Zn  Zn164  1  0.06128416  0.56194923  0.31065228  1
  Zn  Zn165  1  0.06088012  0.56558116  0.81196500  1
  Zn  Zn166  1  0.56368608  0.06371660  0.31198344  1
  Zn  Zn167  1  0.55970081  0.05874627  0.80906368  1
  Zn  Zn168  1  0.56278234  0.56475671  0.31189329  1
  Zn  Zn169  1  0.56266588  0.56096484  0.81067108  1
  Zn  Zn170  1  0.43995524  0.18670158  0.43922847  1
  Zn  Zn171  1  0.43794519  0.18788309  0.93727893  1
  Zn  Zn172  1  0.43493195  0.68929339  0.43993002  1
  Zn  Zn173  1  0.43682516  0.68739149  0.93850366  1
  Zn  Zn174  1  0.93881014  0.18676009  0.43740006  1
  Zn  Zn175  1  0.93839736  0.18784234  0.93769149  1
  Zn  Zn176  1  0.93708650  0.68802711  0.43712722  1
  Zn  Zn177  1  0.93626104  0.68646969  0.93571512  1
  Zn  Zn178  1  0.06511797  0.31439857  0.06405743  1
  Zn  Zn179  1  0.06253756  0.31342051  0.56179358  1
  Zn  Zn180  1  0.06240795  0.81341430  0.06133292  1
  Zn  Zn181  1  0.06205399  0.81141997  0.56063254  1
  Zn  Zn182  1  0.56584468  0.31137510  0.06176467  1
  Zn  Zn183  1  0.56204116  0.31025027  0.56347500  1
  Zn  Zn184  1  0.56270060  0.81334030  0.06311379  1
  Zn  Zn185  1  0.56162203  0.80996871  0.56125986  1
  O  O186  1  0.11831895  0.11846444  0.12458418  1
  O  O187  1  0.11886138  0.11891371  0.61986345  1
  O  O188  1  0.11636327  0.62236661  0.12198008  1
  O  O189  1  0.11839227  0.61474886  0.62662751  1
  O  O190  1  0.61704123  0.12058420  0.11656451  1
  O  O191  1  0.61706602  0.11793818  0.61910315  1
  O  O192  1  0.62158688  0.61775181  0.11945367  1
  O  O193  1  0.62111591  0.61939972  0.61858948  1
  O  O194  1  0.38259645  0.38063463  0.38018602  1
  O  O195  1  0.38626195  0.37564816  0.88044930  1
  O  O196  1  0.37228585  0.88337388  0.38443737  1
  O  O197  1  0.38013069  0.87754045  0.88059256  1
  O  O198  1  0.87482457  0.38370587  0.37960297  1
  O  O199  1  0.88122559  0.38304783  0.87873316  1
  O  O200  1  0.87567787  0.88711327  0.38123715  1
  O  O201  1  0.88038957  0.88420097  0.88056103  1
  O  O202  1  0.25621909  0.01076700  0.37630568  1
  O  O203  1  0.25417838  0.00353878  0.87125444  1
  O  O204  1  0.25719425  0.50699102  0.36905968  1
  O  O205  1  0.24927017  0.51194092  0.87546954  1
  O  O206  1  0.75973291  -0.00289767  0.36440637  1
  O  O207  1  0.75823457  -0.00807453  0.86521267  1
  O  O208  1  0.76163170  0.50912010  0.38024890  1
  O  O209  1  0.76595192  0.49977298  0.88277047  1
  O  O210  1  0.25059588  0.49421271  0.13115898  1
  O  O211  1  0.23740738  0.49856496  0.62639280  1
  O  O212  1  0.24325696  0.99359850  0.12684111  1
  O  O213  1  0.24401395  0.99329115  0.63066307  1
  O  O214  1  0.74197047  0.48995114  0.11584797  1
  O  O215  1  0.74240690  0.49028070  0.61542710  1
  O  O216  1  0.74678462  0.99469073  0.13311938  1
  O  O217  1  0.74056745  0.99483604  0.63218341  1
  O  O218  1  0.00749181  0.36796984  0.25064524  1
  O  O219  1  0.00767054  0.36981525  0.75394583  1
  O  O220  1  0.00913043  0.87027399  0.24984623  1
  O  O221  1  -0.00913137  0.86180070  0.75554317  1
  O  O222  1  0.50390183  0.36512174  0.25481155  1
  O  O223  1  0.50997745  0.37318166  0.75852883  1
  O  O224  1  0.49988176  0.86375404  0.25100814  1
  O  O225  1  0.49828342  0.87310068  0.76367620  1
  O  O226  1  0.50199686  0.13377637  0.24065313  1
  O  O227  1  0.49409961  0.12540637  0.74082898  1
  O  O228  1  0.49440253  0.63255678  0.24400050  1
  O  O229  1  0.49837431  0.62614659  0.74031081  1
  O  O230  1  0.99468492  0.13088898  0.24461388  1
  O  O231  1  0.99775227  0.13249284  0.74374989  1
  O  O232  1  0.99285893  0.63066719  0.24345239  1
  O  O233  1  0.99009514  0.63512493  0.74523667  1
  O  O234  1  0.36511341  0.25547594  0.00147652  1
  O  O235  1  0.37007664  0.25649717  0.49977134  1
  O  O236  1  0.36899473  0.75568159  0.00685374  1
  O  O237  1  0.36936646  0.75717929  0.51118623  1
  O  O238  1  0.86963536  0.25461177  0.00564509  1
  O  O239  1  0.87058361  0.25460025  0.50336038  1
  O  O240  1  0.87035571  0.75569939  0.00413825  1
  O  O241  1  0.87457803  0.75690380  0.50782738  1
  O  O242  1  0.13019435  0.24465470  0.49511528  1
  O  O243  1  0.13825581  0.25065067  0.99888068  1
  O  O244  1  0.12778438  0.74497454  0.49566986  1
  O  O245  1  0.13008380  0.74918865  0.99064108  1
  O  O246  1  0.62969436  0.24403549  0.49221934  1
  O  O247  1  0.63458812  0.24207142  0.99891402  1
  O  O248  1  0.62663257  0.74021707  0.49687992  1
  O  O249  1  0.62960170  0.74434036  0.99556801  1
  O  O250  1  0.50228807  0.24260199  0.13307772  1
  O  O251  1  0.49875224  0.23635677  0.62704887  1
  O  O252  1  0.49475424  0.74464345  0.13196870  1
  O  O253  1  0.48987523  0.74359324  0.62518931  1
  O  O254  1  0.99498628  0.24617585  0.12997397  1
  O  O255  1  0.99451663  0.24534328  0.62899313  1
  O  O256  1  0.99296575  0.74565352  0.12869017  1
  O  O257  1  0.99447593  0.74610751  0.63295841  1
  O  O258  1  0.00710810  0.25076205  0.36846156  1
  O  O259  1  0.00053375  0.25759769  0.86915456  1
  O  O260  1  -0.00003233  0.75344186  0.36567456  1
  O  O261  1  0.00497058  0.75442241  0.86914940  1
  O  O262  1  0.51007298  0.25376727  0.36822068  1
  O  O263  1  0.50476853  0.26241847  0.87588824  1
  O  O264  1  0.49839440  0.74938331  0.36330820  1
  O  O265  1  0.50466367  0.75823447  0.87582111  1
  O  O266  1  0.24449113  0.12996181  0.49275276  1
  O  O267  1  0.25050192  0.13401491  0.99586062  1
  O  O268  1  0.24875313  0.62400082  0.48734715  1
  O  O269  1  0.24855960  0.63164069  0.99142336  1
  O  O270  1  0.73543621  0.13357081  0.50844621  1
  O  O271  1  0.74062663  0.13472727  1.00869520  1
  O  O272  1  0.74499149  0.62689249  0.48895619  1
  O  O273  1  0.74412259  0.63267828  0.99713772  1
  O  O274  1  0.25555035  0.36840697  0.00385010  1
  O  O275  1  0.25787277  0.36885186  0.49990160  1
  O  O276  1  0.25477091  0.86887938  0.00599819  1
  O  O277  1  0.25924488  0.87388018  0.51231897  1
  O  O278  1  0.75601187  0.36632506  0.00914996  1
  O  O279  1  0.75627559  0.36729613  0.50558973  1
  O  O280  1  0.75513500  0.87014025  0.00627802  1
  O  O281  1  0.75664522  0.87445502  0.50728796  1
  O  O282  1  0.13266054  0.49274043  0.24919834  1
  O  O283  1  0.12133770  0.49144139  0.74165038  1
  O  O284  1  0.12494380  0.99070201  0.24458491  1
  O  O285  1  0.13198412  1.00515610  0.74255479  1
  O  O286  1  0.62023930  0.49911889  0.23454663  1
  O  O287  1  0.62154017  0.48743359  0.74162299  1
  O  O288  1  0.63508169  1.00168196  0.24507913  1
  O  O289  1  0.63140179  0.99725144  0.74052569  1
  O  O290  1  0.36858073  0.00195043  0.26230274  1
  O  O291  1  0.36635923  0.00575103  0.75648430  1
  O  O292  1  0.37212873  0.50506413  0.25517029  1
  O  O293  1  0.37117900  0.50301741  0.75383284  1
  O  O294  1  0.86957030  0.00474015  0.25680648  1
  O  O295  1  0.86598624  0.00225263  0.75794942  1
  O  O296  1  0.88164042  0.50594981  0.26123570  1
  O  O297  1  0.88448158  0.50976057  0.75941029  1
  O  O298  1  0.12497607  0.36820480  0.36858802  1
  O  O299  1  0.11880207  0.37504937  0.86488031  1
  O  O300  1  0.12539065  0.87596889  0.36434855  1
  O  O301  1  0.11828196  0.86230568  0.87889674  1
  O  O302  1  0.62101427  0.36584958  0.37318243  1
  O  O303  1  0.61993312  0.37527096  0.86764938  1
  O  O304  1  0.62009508  0.87283929  0.37231169  1
  O  O305  1  0.61353718  0.87027422  0.87677658  1
  O  O306  1  0.38753045  0.12587801  0.12679984  1
  O  O307  1  0.38439839  0.12097291  0.62903166  1
  O  O308  1  0.38080649  0.63045677  0.12964589  1
  O  O309  1  0.37957540  0.63341983  0.62247265  1
  O  O310  1  0.88149933  0.13127761  0.13120942  1
  O  O311  1  0.88129970  0.13222770  0.62542822  1
  O  O312  1  0.87880104  0.63024233  0.12877071  1
  O  O313  1  0.87924077  0.62858064  0.63124732  1
  O  O314  1  0.25305206  0.25504490  0.11700695  1
  O  O315  1  0.25307038  0.25139095  0.61622847  1
  O  O316  1  0.25517203  0.75467191  0.12046545  1
  O  O317  1  0.25594821  0.75745767  0.62685033  1
  O  O318  1  0.75599565  0.25781735  0.11576234  1
  O  O319  1  0.75607822  0.25744136  0.61819759  1
  O  O320  1  0.75523358  0.75523544  0.11931394  1
  O  O321  1  0.75602402  0.75747783  0.62396035  1
  O  O322  1  0.24585983  0.24128173  0.38105858  1
  O  O323  1  0.24972086  0.24424199  0.88496176  1
  O  O324  1  0.25037818  0.73730529  0.37473186  1
  O  O325  1  0.24206410  0.74536551  0.87851266  1
  O  O326  1  0.73806224  0.25441024  0.37948657  1
  O  O327  1  0.75194307  0.25568528  0.89007617  1
  O  O328  1  0.75025327  0.73847875  0.37668376  1
  O  O329  1  0.74314815  0.75182846  0.88145821  1
  O  O330  1  0.00097789  0.11930799  0.00753257  1
  O  O331  1  0.00567922  0.11982508  0.50683227  1
  O  O332  1  -0.00129894  0.61652275  0.00440468  1
  O  O333  1  -0.00041496  0.61817706  0.50739437  1
  O  O334  1  0.50805900  0.12585970  0.01007071  1
  O  O335  1  0.51263443  0.12884575  0.51028304  1
  O  O336  1  0.50594687  0.62003632  0.00574444  1
  O  O337  1  0.50537605  0.61877653  0.50394089  1
  O  O338  1  0.49685724  0.37968481  0.49409959  1
  O  O339  1  0.49789172  0.37798981  0.99331941  1
  O  O340  1  0.48346865  0.86912259  0.49932380  1
  O  O341  1  0.49309372  0.87560292  0.99115231  1
  O  O342  1  0.99281807  0.38132771  0.49752467  1
  O  O343  1  0.99492580  0.38186303  0.99589855  1
  O  O344  1  0.99192662  0.88309342  0.50077510  1
  O  O345  1  0.99315047  0.88128726  0.99427077  1
  O  O346  1  0.49639283  0.49502623  0.37909378  1
  O  O347  1  0.50219620  0.48852501  0.88199978  1
  O  O348  1  0.48602388  1.00021150  0.36976794  1
  O  O349  1  0.49246552  0.98976598  0.87683778  1
  O  O350  1  0.98936466  0.50026376  0.38063602  1
  O  O351  1  0.99228782  0.49643666  0.88260158  1
  O  O352  1  0.99006524  0.99821014  0.38270410  1
  O  O353  1  0.99172057  0.99509307  0.87905581  1
  O  O354  1  0.00315188  0.00528790  0.11950641  1
  O  O355  1  0.00315912  0.00469343  0.62151883  1
  O  O356  1  -0.00169493  0.50559026  0.11460180  1
  O  O357  1  0.00715313  0.50481603  0.61992146  1
  O  O358  1  0.50565671  0.00946007  0.12609067  1
  O  O359  1  0.51045413  0.00788357  0.63143990  1
  O  O360  1  0.50849553  0.50478426  0.11920693  1
  O  O361  1  0.50824705  0.50491534  0.61745397  1
  O  O362  1  0.24781443  0.37904723  0.24583248  1
  O  O363  1  0.23822794  0.37609950  0.75016642  1
  O  O364  1  0.23985121  0.87418629  0.24418797  1
  O  O365  1  0.25600098  0.88218818  0.73811066  1
  O  O366  1  0.74958408  0.36834004  0.23380398  1
  O  O367  1  0.74016112  0.37035385  0.74209961  1
  O  O368  1  0.75072304  0.88660552  0.24359484  1
  O  O369  1  0.74789435  0.88611257  0.74168993  1
  O  O370  1  0.25165385  0.12603153  0.26325326  1
  O  O371  1  0.25544710  0.11894275  0.75595279  1
  O  O372  1  0.25620627  0.61974563  0.25600852  1
  O  O373  1  0.25065977  0.62406985  0.76212154  1
  O  O374  1  0.75725070  0.11303388  0.24100129  1
  O  O375  1  0.74958944  0.11152682  0.74337638  1
  O  O376  1  0.75689906  0.62916258  0.26019152  1
  O  O377  1  0.76404886  0.62916821  0.75000340  1
  O  O378  1  0.36746634  0.11772638  0.37837617  1
  O  O379  1  0.37049485  0.11846170  0.87050400  1
  O  O380  1  0.36822186  0.61918623  0.36971500  1
  O  O381  1  0.36354119  0.62609679  0.87409161  1
  O  O382  1  0.87973678  0.11286783  0.36944827  1
  O  O383  1  0.87792883  0.11065308  0.87499004  1
  O  O384  1  0.86802966  0.61794321  0.37003450  1
  O  O385  1  0.87384133  0.61801124  0.86624310  1
  O  O386  1  0.13390779  0.37783780  0.13248638  1
  O  O387  1  0.12410747  0.38397887  0.63375735  1
  O  O388  1  0.12895347  0.87962289  0.13327183  1
  O  O389  1  0.13634704  0.88095938  0.61907522  1
  O  O390  1  0.63350991  0.38273627  0.12435621  1
  O  O391  1  0.62962510  0.37859246  0.63112978  1
  O  O392  1  0.63130453  0.88255856  0.12666475  1
  O  O393  1  0.62748342  0.88385058  0.62334988  1
  O  O394  1  0.12069188  0.25507270  0.25560466  1
  O  O395  1  0.11905554  0.26042053  0.74925547  1
  O  O396  1  0.11835224  0.76020239  0.25022060  1
  O  O397  1  0.11148722  0.74405943  0.75934875  1
  O  O398  1  0.61810680  0.24820285  0.25745223  1
  O  O399  1  0.62361167  0.26082080  0.75227770  1
  O  O400  1  0.61332808  0.75094429  0.25067994  1
  O  O401  1  0.62187599  0.75438153  0.75810113  1
  O  O402  1  0.38973381  0.24611335  0.25122812  1
  O  O403  1  0.37776735  0.24018073  0.74756984  1
  O  O404  1  0.38199528  0.74516055  0.24442947  1
  O  O405  1  0.37650756  0.74787086  0.73604705  1
  O  O406  1  0.88060480  0.24526234  0.24530818  1
  O  O407  1  0.88069813  0.24933997  0.74304795  1
  O  O408  1  0.87961965  0.74526885  0.24276168  1
  O  O409  1  0.88219587  0.74237845  0.74572764  1
  O  O410  1  0.38217666  0.49434095  0.49393268  1
  O  O411  1  0.38368930  0.49292787  0.99744944  1
  O  O412  1  0.36938330  0.99068902  0.49186358  1
  O  O413  1  0.37640512  0.99270640  0.99351664  1
  O  O414  1  0.88040622  0.49458458  0.49103207  1
  O  O415  1  0.88460913  0.49541964  0.99212624  1
  O  O416  1  0.87715090  0.99763428  0.49411837  1
  O  O417  1  0.87763049  0.99529010  0.99358063  1
  O  O418  1  0.11668639  -0.00029044  0.00713600  1
  O  O419  1  0.11874034  0.00557992  0.50767661  1
  O  O420  1  0.11122999  0.50018273  0.00042051  1
  O  O421  1  0.11868829  0.49963455  0.50965934  1
  O  O422  1  0.62482792  0.00906488  0.00698825  1
  O  O423  1  0.63235399  0.00960736  0.51098061  1
  O  O424  1  0.62038748  0.50502132  0.00888833  1
  O  O425  1  0.61960730  0.50497407  0.50425977  1
  O  O426  1  0.37050530  0.37207083  0.11813894  1
  O  O427  1  0.37515223  0.37361717  0.61681144  1
  O  O428  1  0.36923026  0.87050186  0.12114681  1
  O  O429  1  0.36745289  0.86955181  0.61968565  1
  O  O430  1  0.86931079  0.37102226  0.11930828  1
  O  O431  1  0.87095631  0.37009491  0.61927796  1
  O  O432  1  0.86988367  0.87006326  0.11900727  1
  O  O433  1  0.86843223  0.87086426  0.61983049  1
  O  O434  1  0.13226270  0.12887512  0.38094760  1
  O  O435  1  0.13336825  0.12789900  0.87942867  1
  O  O436  1  0.13638754  0.62426217  0.37366975  1
  O  O437  1  0.13116434  0.63601341  0.87731284  1
  O  O438  1  0.61799101  0.13462868  0.38574650  1
  O  O439  1  0.61637466  0.12434087  0.88878741  1
  O  O440  1  0.63484599  0.62339017  0.37910393  1
  O  O441  1  0.62659204  0.63019470  0.88050536  1
