# generated using pymatgen
data_V93Zn93O256
_symmetry_space_group_name_H-M   'P 1'
_cell_length_a   17.04588713
_cell_length_b   17.05126156
_cell_length_c   17.04831416
_cell_angle_alpha   89.97147080
_cell_angle_beta   89.96320389
_cell_angle_gamma   89.95239746
_symmetry_Int_Tables_number   1
_chemical_formula_structural   V93Zn93O256
_chemical_formula_sum   'V93 Zn93 O256'
_cell_volume   4955.15531105
_cell_formula_units_Z   1
loop_
 _symmetry_equiv_pos_site_id
 _symmetry_equiv_pos_as_xyz
  1  'x, y, z'
loop_
 _atom_site_type_symbol
 _atom_site_label
 _atom_site_symmetry_multiplicity
 _atom_site_fract_x
 _atom_site_fract_y
 _atom_site_fract_z
 _atom_site_occupancy
  V  V0  1  0.74908697  0.87559016  0.62444312  1
  V  V1  1  0.24852848  0.00331011  0.75362163  1
  V  V2  1  0.37370636  0.87356093  -0.00169110  1
  V  V3  1  0.75058847  0.24991245  -0.00109504  1
  V  V4  1  0.74948190  0.12606723  0.37608722  1
  V  V5  1  0.62391549  0.88199053  0.24508244  1
  V  V6  1  0.12612636  0.50410517  0.11890131  1
  V  V7  1  0.87493282  0.12434584  0.24876674  1
  V  V8  1  0.87615192  0.49960370  0.37426067  1
  V  V9  1  0.24931175  0.49934404  0.75152312  1
  V  V10  1  0.87689712  0.25089564  0.12381723  1
  V  V11  1  -0.00035231  0.75023719  0.24867667  1
  V  V12  1  0.75058252  0.50110434  0.24875697  1
  V  V13  1  0.62523170  0.50115307  0.12461910  1
  V  V14  1  0.87515625  0.12349850  0.75251065  1
  V  V15  1  0.24903050  0.87493755  0.62525242  1
  V  V16  1  0.62586521  0.37468411  0.24973472  1
  V  V17  1  0.50023652  0.12500820  0.62584318  1
  V  V18  1  0.12455899  -0.00009727  0.62469554  1
  V  V19  1  0.24970515  0.75013441  0.50058795  1
  V  V20  1  0.49835775  0.87436975  0.87439309  1
  V  V21  1  0.50039184  0.62421489  0.12511165  1
  V  V22  1  0.87532174  0.62611248  0.74923512  1
  V  V23  1  0.24863299  0.87358756  0.12591157  1
  V  V24  1  0.87582875  0.25065596  0.62565946  1
  V  V25  1  0.12385842  0.74993039  0.37435221  1
  V  V26  1  0.25080992  0.24159899  -0.00176677  1
  V  V27  1  0.75084036  0.62507992  0.87601354  1
  V  V28  1  0.87481352  0.75031486  0.62379105  1
  V  V29  1  0.87212017  0.87422182  0.49891228  1
  V  V30  1  0.37317733  0.12490698  0.75359003  1
  V  V31  1  -0.00004391  0.12457959  0.62517231  1
  V  V32  1  0.12464488  0.25164420  0.37438721  1
  V  V33  1  0.87549972  0.62548682  0.24902514  1
  V  V34  1  0.37501824  0.25005452  0.62603269  1
  V  V35  1  0.37813331  0.24726548  0.12627024  1
  V  V36  1  0.12459345  0.50032930  0.62517634  1
  V  V37  1  0.24964442  0.37399577  0.12475028  1
  V  V38  1  0.00143364  0.25032536  0.24940585  1
  V  V39  1  0.75001953  0.37567589  0.62606268  1
  V  V40  1  0.37347576  0.74912201  0.62560419  1
  V  V41  1  0.37133476  0.00381843  0.87691038  1
  V  V42  1  0.37462953  0.62542766  0.74965799  1
  V  V43  1  0.74623019  0.88162150  0.12428539  1
  V  V44  1  -0.00363557  0.00057960  -0.00766885  1
  V  V45  1  0.12466808  0.62398382  0.50055280  1
  V  V46  1  0.75421130  0.12203618  0.87562464  1
  V  V47  1  0.75161804  0.37636281  0.12358535  1
  V  V48  1  0.00121704  0.49757907  -0.00558453  1
  V  V49  1  0.75441732  -0.00006406  0.75300266  1
  V  V50  1  0.12173181  0.75097197  0.87490548  1
  V  V51  1  0.87671162  0.37598113  0.49868413  1
  V  V52  1  0.12116278  0.37478622  0.75623897  1
  V  V53  1  0.75013157  0.24971787  0.50070075  1
  V  V54  1  -0.00173189  0.87475702  0.37269623  1
  V  V55  1  0.49971037  0.87446819  0.37550002  1
  V  V56  1  0.50013550  0.00040108  0.50227518  1
  V  V57  1  0.88018628  0.37555779  -0.00773385  1
  V  V58  1  0.37485067  0.49994232  0.37570427  1
  V  V59  1  0.37634366  0.37604751  0.50086996  1
  V  V60  1  0.50745022  0.50385117  0.50018184  1
  V  V61  1  0.24480864  0.62399955  0.87921108  1
  V  V62  1  0.25066123  0.50050172  0.24896553  1
  V  V63  1  0.62172968  0.11888041  0.00476219  1
  V  V64  1  0.24884185  -0.00095906  0.24989037  1
  V  V65  1  0.50224189  0.37501226  0.87421059  1
  V  V66  1  0.62498435  0.74688020  0.38003560  1
  V  V67  1  0.37553887  0.50020130  0.87568205  1
  V  V68  1  -0.00062414  0.00053746  0.50008393  1
  V  V69  1  0.50694343  0.62523523  0.62255379  1
  V  V70  1  0.24963189  0.62447333  0.37472289  1
  V  V71  1  0.25031408  0.12492611  0.37528785  1
  V  V72  1  0.00218602  0.62608658  0.11904170  1
  V  V73  1  0.49991609  0.25056868  0.75071257  1
  V  V74  1  0.74878546  0.49934317  0.75090436  1
  V  V75  1  0.62414027  0.75045802  0.87578225  1
  V  V76  1  0.87405886  -0.00018641  0.37307292  1
  V  V77  1  0.37343347  -0.00094926  0.37666278  1
  V  V78  1  0.75021377  0.75022412  0.00077323  1
  V  V79  1  0.37443556  0.74770657  0.12506865  1
  V  V80  1  0.00014923  0.25360276  0.75634247  1
  V  V81  1  0.50109434  0.49972119  0.00019763  1
  V  V82  1  0.74656667  0.62571712  0.38083712  1
  V  V83  1  0.49911569  0.74933719  0.24966511  1
  V  V84  1  0.00413100  0.12336392  0.12159709  1
  V  V85  1  0.00004685  0.62580603  0.62443859  1
  V  V86  1  0.50085716  0.25201372  0.25137452  1
  V  V87  1  0.24379917  0.74550590  0.00070148  1
  V  V88  1  0.87440152  0.87837194  -0.00653204  1
  V  V89  1  0.25025101  0.24968771  0.50003339  1
  V  V90  1  0.13019959  0.24414830  0.87578830  1
  V  V91  1  0.24991895  0.37455462  0.62640314  1
  V  V92  1  0.62444888  0.87625459  0.75070719  1
  Zn  Zn93  1  0.12520292  -0.00263041  0.12258279  1
  Zn  Zn94  1  0.87434070  0.75113267  0.12458440  1
  Zn  Zn95  1  0.37515567  0.62469412  0.25081539  1
  Zn  Zn96  1  0.00016140  0.37669527  0.37355175  1
  Zn  Zn97  1  0.62543143  0.37383292  0.74795965  1
  Zn  Zn98  1  0.12223679  0.37662430  0.24949620  1
  Zn  Zn99  1  0.74553516  0.74767711  0.50222513  1
  Zn  Zn100  1  0.37478703  0.87336746  0.50121786  1
  Zn  Zn101  1  0.62855766  0.50291606  0.62103785  1
  Zn  Zn102  1  -0.00316269  0.87979787  0.87187848  1
  Zn  Zn103  1  0.49950541  0.74987336  0.74920198  1
  Zn  Zn104  1  0.12438613  0.12585582  0.50075173  1
  Zn  Zn105  1  0.37870793  0.12380679  0.25152423  1
  Zn  Zn106  1  0.50394672  -0.00567758  0.00618064  1
  Zn  Zn107  1  0.62518810  0.24915484  0.87409325  1
  Zn  Zn108  1  0.13153021  0.11764430  -0.00585867  1
  Zn  Zn109  1  0.12247826  0.87523653  0.24856870  1
  Zn  Zn110  1  0.88027035  0.49836163  0.87243992  1
  Zn  Zn111  1  0.51455429  0.11060552  0.13807895  1
  Zn  Zn112  1  0.62367417  0.25122115  0.37730082  1
  Zn  Zn113  1  0.37626533  0.37321634  -0.00055971  1
  Zn  Zn114  1  -0.00031961  0.75291101  0.75049371  1
  Zn  Zn115  1  0.12041278  0.87589277  0.75036138  1
  Zn  Zn116  1  0.62636777  0.62542243  0.00035592  1
  Zn  Zn117  1  0.62493831  0.00128803  0.62593417  1
  Zn  Zn118  1  0.50275489  0.37658437  0.37726292  1
  Zn  Zn119  1  0.00142327  0.49884039  0.49706280  1
  Zn  Zn120  1  0.74487951  0.00401232  0.24563277  1
  Zn  Zn121  1  0.62521428  0.12723537  0.50212682  1
  Zn  Zn122  1  0.18858043  0.18600312  0.18853856  1
  Zn  Zn123  1  0.18728540  0.18565084  0.68721332  1
  Zn  Zn124  1  0.18541829  0.68595370  0.18868029  1
  Zn  Zn125  1  0.18664147  0.68794080  0.68988242  1
  Zn  Zn126  1  0.68920522  0.19004463  0.18693821  1
  Zn  Zn127  1  0.68455153  0.18779523  0.68758632  1
  Zn  Zn128  1  0.68668336  0.69099552  0.18907723  1
  Zn  Zn129  1  0.68826136  0.68967631  0.68999273  1
  Zn  Zn130  1  0.31344638  0.31474462  0.31271302  1
  Zn  Zn131  1  0.31300401  0.31289133  0.81403025  1
  Zn  Zn132  1  0.31282706  0.81290255  0.31315777  1
  Zn  Zn133  1  0.31045014  0.81421016  0.81104893  1
  Zn  Zn134  1  0.81399847  0.31223259  0.31186356  1
  Zn  Zn135  1  0.81198496  0.31083439  0.81344049  1
  Zn  Zn136  1  0.81052595  0.81149370  0.30963429  1
  Zn  Zn137  1  0.81178211  0.81109662  0.81193589  1
  Zn  Zn138  1  0.18858028  0.43688605  0.43794702  1
  Zn  Zn139  1  0.18763274  0.43259974  0.93886717  1
  Zn  Zn140  1  0.18504059  0.93598719  0.43848505  1
  Zn  Zn141  1  0.18517570  0.93527544  0.93860687  1
  Zn  Zn142  1  0.68911646  0.43569310  0.43565842  1
  Zn  Zn143  1  0.68820794  0.43842508  0.93741909  1
  Zn  Zn144  1  0.68552559  0.93737925  0.43569030  1
  Zn  Zn145  1  0.68815446  0.93786857  0.93593682  1
  Zn  Zn146  1  0.32027895  0.06005504  0.06764193  1
  Zn  Zn147  1  0.31264693  0.06307199  0.56388075  1
  Zn  Zn148  1  0.31605410  0.56226101  0.06135693  1
  Zn  Zn149  1  0.31454467  0.56259871  0.56253147  1
  Zn  Zn150  1  0.81408395  0.06154412  0.06082661  1
  Zn  Zn151  1  0.81340986  0.06165410  0.56413951  1
  Zn  Zn152  1  0.81567874  0.56277724  0.06150672  1
  Zn  Zn153  1  0.81469677  0.56141976  0.56213483  1
  Zn  Zn154  1  0.43699273  0.43640510  0.18834473  1
  Zn  Zn155  1  0.43821638  0.43949679  0.68724205  1
  Zn  Zn156  1  0.43547056  0.93534920  0.18703381  1
  Zn  Zn157  1  0.43546052  0.93633044  0.68845488  1
  Zn  Zn158  1  0.93851577  0.43731493  0.18570008  1
  Zn  Zn159  1  0.93748505  0.43893952  0.68570174  1
  Zn  Zn160  1  0.93356640  0.93783408  0.18359994  1
  Zn  Zn161  1  0.93667999  0.93572779  0.68816215  1
  Zn  Zn162  1  0.06329876  0.06367263  0.31228062  1
  Zn  Zn163  1  0.06397780  0.06516709  0.81140423  1
  Zn  Zn164  1  0.06288562  0.56217773  0.30918073  1
  Zn  Zn165  1  0.06244400  0.56596552  0.81124229  1
  Zn  Zn166  1  0.56226365  0.06369581  0.31778963  1
  Zn  Zn167  1  0.56319875  0.06169138  0.81640363  1
  Zn  Zn168  1  0.56218240  0.56264909  0.31211749  1
  Zn  Zn169  1  0.56389969  0.56452712  0.81131554  1
  Zn  Zn170  1  0.43648972  0.18659158  0.43695729  1
  Zn  Zn171  1  0.43690992  0.18830537  0.93778569  1
  Zn  Zn172  1  0.43672296  0.68613979  0.43871574  1
  Zn  Zn173  1  0.43689001  0.68696330  0.93794256  1
  Zn  Zn174  1  0.93730012  0.18790345  0.43747306  1
  Zn  Zn175  1  0.93850581  0.18775745  0.93636230  1
  Zn  Zn176  1  0.93635045  0.68713928  0.43781996  1
  Zn  Zn177  1  0.93457889  0.68740921  0.93879876  1
  Zn  Zn178  1  0.06469684  0.31343699  0.06079392  1
  Zn  Zn179  1  0.06174514  0.31350892  0.56348003  1
  Zn  Zn180  1  0.06226334  0.81517915  0.06150487  1
  Zn  Zn181  1  0.06150261  0.81329593  0.56226978  1
  Zn  Zn182  1  0.56491206  0.31019706  0.06142732  1
  Zn  Zn183  1  0.56481131  0.31466284  0.56327292  1
  Zn  Zn184  1  0.56212514  0.81170464  0.06186003  1
  Zn  Zn185  1  0.56132771  0.81356668  0.56441195  1
  O  O186  1  0.11224196  0.12536076  0.12287519  1
  O  O187  1  0.11750105  0.11878918  0.62362082  1
  O  O188  1  0.11586221  0.61400281  0.12750809  1
  O  O189  1  0.12116628  0.61972577  0.62078049  1
  O  O190  1  0.62908980  0.12829840  0.10971634  1
  O  O191  1  0.61584634  0.12184473  0.62260687  1
  O  O192  1  0.61896867  0.61903136  0.12499640  1
  O  O193  1  0.61121638  0.62519998  0.63090101  1
  O  O194  1  0.37599848  0.38240460  0.38318908  1
  O  O195  1  0.38521752  0.38175679  0.87556436  1
  O  O196  1  0.38219669  0.88059071  0.37777348  1
  O  O197  1  0.37853272  0.88192120  0.87842256  1
  O  O198  1  0.87459425  0.38165113  0.38075308  1
  O  O199  1  0.87243809  0.37573188  0.88873655  1
  O  O200  1  0.87842999  0.87985708  0.37834347  1
  O  O201  1  0.87487360  0.86995201  0.88941106  1
  O  O202  1  0.25287449  0.00354393  0.36946465  1
  O  O203  1  0.25839563  -0.00731069  0.86435582  1
  O  O204  1  0.25399359  0.50468315  0.36957891  1
  O  O205  1  0.25311284  0.50574422  0.87286560  1
  O  O206  1  0.75556208  0.01051655  0.37402405  1
  O  O207  1  0.74695174  0.00988329  0.86421224  1
  O  O208  1  0.75423230  0.50785388  0.36817520  1
  O  O209  1  0.75279468  0.50543743  0.86644275  1
  O  O210  1  0.24477600  0.49413072  0.12564363  1
  O  O211  1  0.24492969  0.49484805  0.63202985  1
  O  O212  1  0.25166040  0.99392025  0.13477021  1
  O  O213  1  0.24525582  0.99514300  0.63206211  1
  O  O214  1  0.74586519  0.49614918  0.12968204  1
  O  O215  1  0.75072306  0.49598549  0.63388441  1
  O  O216  1  0.75304681  0.98644500  0.12563252  1
  O  O217  1  0.74750891  0.99510079  0.63461855  1
  O  O218  1  0.00188807  0.36577642  0.25058249  1
  O  O219  1  0.00992901  0.36520830  0.74304134  1
  O  O220  1  -0.00104938  0.86934140  0.25444166  1
  O  O221  1  0.00100745  0.87173761  0.75588006  1
  O  O222  1  0.50669759  0.36750147  0.25135617  1
  O  O223  1  0.49968061  0.37098690  0.75864406  1
  O  O224  1  0.50572884  0.86944171  0.25465551  1
  O  O225  1  0.50601203  0.87415176  0.75637634  1
  O  O226  1  0.50034037  0.13617887  0.25108643  1
  O  O227  1  0.49361618  0.12986690  0.74644196  1
  O  O228  1  0.49819845  0.63149616  0.24308933  1
  O  O229  1  0.49227564  0.62525870  0.74130734  1
  O  O230  1  0.99499879  0.12925479  0.24069385  1
  O  O231  1  0.99496846  0.13321377  0.74522672  1
  O  O232  1  0.99534506  0.62964153  0.23996166  1
  O  O233  1  0.99291241  0.62696782  0.74246851  1
  O  O234  1  0.36856655  0.25127538  0.00834019  1
  O  O235  1  0.37022416  0.25578301  0.50621241  1
  O  O236  1  0.36410835  0.75388388  0.00401574  1
  O  O237  1  0.36690339  0.75025504  0.50699804  1
  O  O238  1  0.87237147  0.25732079  0.00425021  1
  O  O239  1  0.87034045  0.25547688  0.50643777  1
  O  O240  1  0.86802470  0.75914452  0.00307796  1
  O  O241  1  0.87167018  0.75714004  0.50528308  1
  O  O242  1  0.13111142  0.24995776  0.49174039  1
  O  O243  1  0.13230558  0.25018280  0.99106194  1
  O  O244  1  0.12996068  0.74382713  0.49426059  1
  O  O245  1  0.13751511  0.75353708  0.99255275  1
  O  O246  1  0.63390623  0.24827236  0.49768886  1
  O  O247  1  0.63364666  0.24055881  0.99727813  1
  O  O248  1  0.62504519  0.75660483  0.48401853  1
  O  O249  1  0.63236814  0.74919766  0.99295487  1
  O  O250  1  0.49266285  0.25141794  0.13437113  1
  O  O251  1  0.49331619  0.24599941  0.63034757  1
  O  O252  1  0.49422771  0.74448033  0.12947150  1
  O  O253  1  0.49312185  0.74147215  0.62520318  1
  O  O254  1  0.99661991  0.24206197  0.12764731  1
  O  O255  1  0.99623438  0.24480036  0.63531980  1
  O  O256  1  1.00218498  0.74003691  0.12839220  1
  O  O257  1  0.99313561  0.74349986  0.62541499  1
  O  O258  1  0.00910221  0.24905905  0.36894231  1
  O  O259  1  0.00896814  0.24628045  0.86233655  1
  O  O260  1  0.00401494  0.75455655  0.36905175  1
  O  O261  1  0.01313718  0.74611573  0.87770233  1
  O  O262  1  0.50011840  0.25263873  0.36396877  1
  O  O263  1  0.49805059  0.26038722  0.86958246  1
  O  O264  1  0.50570845  0.75315572  0.37065880  1
  O  O265  1  0.50488869  0.75583124  0.87316536  1
  O  O266  1  0.24893355  0.13217315  0.49419334  1
  O  O267  1  0.24913871  0.13852929  1.01120337  1
  O  O268  1  0.24398566  0.62983934  0.49516251  1
  O  O269  1  0.25635491  0.63381263  0.98994515  1
  O  O270  1  0.75235594  0.13039385  0.49179243  1
  O  O271  1  0.74491553  0.12808338  0.99339583  1
  O  O272  1  0.75396803  0.62533386  0.48463561  1
  O  O273  1  0.75060092  0.63144492  0.99463432  1
  O  O274  1  0.25225859  0.36511979  0.01090421  1
  O  O275  1  0.25582457  0.36964476  0.50734652  1
  O  O276  1  0.25470714  0.86440056  0.00517075  1
  O  O277  1  0.25082855  0.86804060  0.50677046  1
  O  O278  1  0.75847036  0.37087888  0.00463124  1
  O  O279  1  0.75696284  0.36992406  0.50574971  1
  O  O280  1  0.75472846  0.87206727  0.00534713  1
  O  O281  1  0.75508071  0.87566961  0.50586548  1
  O  O282  1  0.13148155  0.49758673  0.23726173  1
  O  O283  1  0.12873038  0.49198207  0.74681697  1
  O  O284  1  0.13740780  0.99900070  0.24885834  1
  O  O285  1  0.13361687  1.00068228  0.74484760  1
  O  O286  1  0.63092908  0.49442829  0.24395350  1
  O  O287  1  0.63945075  0.49927115  0.74857240  1
  O  O288  1  0.62386288  0.98613277  0.25614982  1
  O  O289  1  0.63541021  0.99460541  0.75003584  1
  O  O290  1  0.36357685  -0.00028583  0.25794360  1
  O  O291  1  0.36765731  0.00427171  0.75767569  1
  O  O292  1  0.36842464  0.50071148  0.25657612  1
  O  O293  1  0.36789176  0.50491446  0.75601038  1
  O  O294  1  0.87242620  0.00730224  0.25567555  1
  O  O295  1  0.86230278  0.00713828  0.74435107  1
  O  O296  1  0.86942300  0.50508548  0.25363579  1
  O  O297  1  0.86634228  0.50527573  0.75137734  1
  O  O298  1  0.12554404  0.36303661  0.37259169  1
  O  O299  1  0.12919933  0.36543844  0.86217260  1
  O  O300  1  0.11608243  0.86763159  0.37368877  1
  O  O301  1  0.12295930  0.86267678  0.87341257  1
  O  O302  1  0.62454727  0.37174099  0.36487925  1
  O  O303  1  0.61299546  0.37439339  0.87294983  1
  O  O304  1  0.61980696  0.86711051  0.36585252  1
  O  O305  1  0.61897236  0.87066238  0.87071142  1
  O  O306  1  0.37497210  0.14136139  0.12991640  1
  O  O307  1  0.38061396  0.13135244  0.63228277  1
  O  O308  1  0.38175815  0.63080854  0.12693736  1
  O  O309  1  0.38130437  0.62957018  0.63120224  1
  O  O310  1  0.88333629  0.13086535  0.12802387  1
  O  O311  1  0.88018802  0.13165056  0.63237859  1
  O  O312  1  0.88496633  0.62578626  0.13147604  1
  O  O313  1  0.87974547  0.63063466  0.62900163  1
  O  O314  1  0.25603364  0.25736858  0.12103279  1
  O  O315  1  0.25523617  0.25480053  0.62090581  1
  O  O316  1  0.25284134  0.75082299  0.11777052  1
  O  O317  1  0.25318251  0.75408392  0.62015821  1
  O  O318  1  0.75796644  0.25627203  0.11886076  1
  O  O319  1  0.75715854  0.25456404  0.62183717  1
  O  O320  1  0.75014000  0.76069638  0.11888105  1
  O  O321  1  0.75528103  0.75631702  0.62251880  1
  O  O322  1  0.24379626  0.24590273  0.37896859  1
  O  O323  1  0.24397512  0.25631241  0.88705839  1
  O  O324  1  0.24431167  0.74470925  0.38003278  1
  O  O325  1  0.24419525  0.74319804  0.88174706  1
  O  O326  1  0.75276270  0.23980666  0.38062267  1
  O  O327  1  0.74845490  0.24025677  0.88029493  1
  O  O328  1  0.74201252  0.74228839  0.37431022  1
  O  O329  1  0.74401086  0.74496934  0.88088563  1
  O  O330  1  -0.00100598  0.11834677  0.00734605  1
  O  O331  1  -0.00095314  0.11853782  0.50730458  1
  O  O332  1  -0.00804712  0.61496830  0.01278438  1
  O  O333  1  0.00727943  0.62348936  0.50606743  1
  O  O334  1  0.51740166  0.12833594  -0.00232654  1
  O  O335  1  0.49924663  0.11646022  0.50583230  1
  O  O336  1  0.50168888  0.61792130  0.00642466  1
  O  O337  1  0.49291548  0.61483059  0.51096631  1
  O  O338  1  0.49347584  0.38452282  0.50053822  1
  O  O339  1  0.49977516  0.37972870  0.99069114  1
  O  O340  1  0.49808239  0.88428671  0.49496777  1
  O  O341  1  0.49146222  0.87376829  0.99301238  1
  O  O342  1  0.99195970  0.37672839  0.49737919  1
  O  O343  1  0.99061728  0.38473941  1.00798198  1
  O  O344  1  0.99251973  0.88085658  0.49316821  1
  O  O345  1  0.99136985  0.88326753  0.99946767  1
  O  O346  1  0.49401298  0.50137418  0.38367127  1
  O  O347  1  0.49595655  0.49397599  0.87864075  1
  O  O348  1  0.49384726  0.99535899  0.38328803  1
  O  O349  1  0.48856176  0.99300895  0.87899576  1
  O  O350  1  0.99270200  0.49825657  0.37493558  1
  O  O351  1  1.00159649  0.50821548  0.89017296  1
  O  O352  1  0.99412598  0.99574378  0.37904885  1
  O  O353  1  1.00548703  1.00237558  0.88836380  1
  O  O354  1  0.00031524  0.00957378  0.11674556  1
  O  O355  1  0.00389074  0.00503801  0.62026700  1
  O  O356  1  0.00781528  0.50662273  0.11839778  1
  O  O357  1  0.00747265  0.50718984  0.62325430  1
  O  O358  1  0.47629922  0.00879285  0.11455652  1
  O  O359  1  0.49805835  0.00515937  0.61718992  1
  O  O360  1  0.50498924  0.50362767  0.12055023  1
  O  O361  1  0.50084102  0.50813647  0.61769304  1
  O  O362  1  0.24933104  0.38063532  0.23836726  1
  O  O363  1  0.24192208  0.37947785  0.74590468  1
  O  O364  1  0.24883393  0.88321285  0.24523064  1
  O  O365  1  0.24813608  0.88687125  0.74304944  1
  O  O366  1  0.74701330  0.38057563  0.24296664  1
  O  O367  1  0.75246497  0.38380692  0.74556786  1
  O  O368  1  0.74138049  0.87636248  0.24158667  1
  O  O369  1  0.74649308  0.88342255  0.74625428  1
  O  O370  1  0.25242459  0.11519833  0.25582837  1
  O  O371  1  0.25723186  0.11188226  0.74344280  1
  O  O372  1  0.25114367  0.61808844  0.25657242  1
  O  O373  1  0.25455210  0.61816351  0.75877400  1
  O  O374  1  0.75531864  0.12515657  0.25780231  1
  O  O375  1  0.75395193  0.11948661  0.75660900  1
  O  O376  1  0.75573594  0.62046205  0.25649903  1
  O  O377  1  0.75561830  0.61727427  0.75428862  1
  O  O378  1  0.36761202  0.11764208  0.37318856  1
  O  O379  1  0.38036997  0.11238204  0.87016864  1
  O  O380  1  0.36686284  0.61819237  0.37426899  1
  O  O381  1  0.36545116  0.62004669  0.86989435  1
  O  O382  1  0.86793939  0.12062001  0.36912689  1
  O  O383  1  0.86261770  0.13085694  0.86924808  1
  O  O384  1  0.86715152  0.62034916  0.36824902  1
  O  O385  1  0.86800404  0.62376076  0.86755834  1
  O  O386  1  0.13546255  0.38221605  0.12621730  1
  O  O387  1  0.13081090  0.37899639  0.63500813  1
  O  O388  1  0.13360433  0.87652088  0.12832421  1
  O  O389  1  0.13068539  0.88213884  0.62620110  1
  O  O390  1  0.63239052  0.38068227  0.12926288  1
  O  O391  1  0.63497435  0.37974368  0.62838038  1
  O  O392  1  0.63212083  0.86900416  0.13472433  1
  O  O393  1  0.63104963  0.87650809  0.63257636  1
  O  O394  1  0.12106653  0.25042586  0.25912634  1
  O  O395  1  0.12064053  0.25578095  0.75556071  1
  O  O396  1  0.11765280  0.75054553  0.25724647  1
  O  O397  1  0.12431291  0.75239149  0.76143732  1
  O  O398  1  0.61620087  0.25635680  0.24832642  1
  O  O399  1  0.61561417  0.25272118  0.75353931  1
  O  O400  1  0.61844310  0.75986384  0.25900596  1
  O  O401  1  0.62438786  0.75883091  0.75837179  1
  O  O402  1  0.38401639  0.25177115  0.24348931  1
  O  O403  1  0.37880007  0.24487383  0.74571063  1
  O  O404  1  0.38127760  0.74918766  0.24334191  1
  O  O405  1  0.37392316  0.74302611  0.74374583  1
  O  O406  1  0.88099977  0.24392329  0.24306014  1
  O  O407  1  0.88361493  0.24633417  0.74617816  1
  O  O408  1  0.88222981  0.74361089  0.24755020  1
  O  O409  1  0.87460908  0.74321690  0.74206760  1
  O  O410  1  0.38230970  0.49462343  0.49563251  1
  O  O411  1  0.38254627  0.49649573  0.99322408  1
  O  O412  1  0.38440847  0.99846115  0.49573411  1
  O  O413  1  0.36750270  0.99218209  0.98777376  1
  O  O414  1  0.87630597  0.49326873  0.49234413  1
  O  O415  1  0.88372847  0.49112200  0.99925441  1
  O  O416  1  0.88014798  0.99418073  0.49385342  1
  O  O417  1  0.88439666  0.99060952  1.00391142  1
  O  O418  1  0.11623695  0.00176678  0.00340967  1
  O  O419  1  0.11711032  0.00255108  0.50595737  1
  O  O420  1  0.11718001  0.49100800  0.01101480  1
  O  O421  1  0.12572086  0.50579763  0.50733472  1
  O  O422  1  0.62467024  0.01499956  -0.00494622  1
  O  O423  1  0.61091092  0.00188719  0.50024281  1
  O  O424  1  0.61945060  0.50145996  0.00744503  1
  O  O425  1  0.61169242  0.49557046  0.49961271  1
  O  O426  1  0.36625703  0.36583386  0.12391493  1
  O  O427  1  0.36898329  0.36968322  0.62184933  1
  O  O428  1  0.36713364  0.86560807  0.11860151  1
  O  O429  1  0.36756932  0.86723454  0.62431194  1
  O  O430  1  0.86987472  0.37029788  0.11611286  1
  O  O431  1  0.86997788  0.36947003  0.61963006  1
  O  O432  1  0.86524303  0.87178702  0.11506634  1
  O  O433  1  0.86842134  0.86996805  0.61878593  1
  O  O434  1  0.13059091  0.13627499  0.37681788  1
  O  O435  1  0.12659011  0.13999634  0.87488420  1
  O  O436  1  0.12993515  0.62966532  0.38009950  1
  O  O437  1  0.13880584  0.63251900  0.87012361  1
  O  O438  1  0.63836515  0.12787112  0.37760611  1
  O  O439  1  0.63633879  0.12747385  0.88443293  1
  O  O440  1  0.63515472  0.63551225  0.36537117  1
  O  O441  1  0.63238850  0.63203542  0.87645510  1
