# generated using pymatgen
data_V93Zn93O256
_symmetry_space_group_name_H-M   'P 1'
_cell_length_a   17.04995412
_cell_length_b   17.05249261
_cell_length_c   17.05251468
_cell_angle_alpha   90.06370763
_cell_angle_beta   90.03228434
_cell_angle_gamma   89.99421588
_symmetry_Int_Tables_number   1
_chemical_formula_structural   V93Zn93O256
_chemical_formula_sum   'V93 Zn93 O256'
_cell_volume   4957.91614528
_cell_formula_units_Z   1
loop_
 _symmetry_equiv_pos_site_id
 _symmetry_equiv_pos_as_xyz
  1  'x, y, z'
loop_
 _atom_site_type_symbol
 _atom_site_label
 _atom_site_symmetry_multiplicity
 _atom_site_fract_x
 _atom_site_fract_y
 _atom_site_fract_z
 _atom_site_occupancy
  V  V0  1  0.25013725  0.12546601  0.87706654  1
  V  V1  1  0.74974756  0.87328166  0.62324599  1
  V  V2  1  0.62804301  0.49975169  0.62817919  1
  V  V3  1  0.37559003  0.87566335  0.49664515  1
  V  V4  1  0.00273874  0.50468576  0.00571815  1
  V  V5  1  0.63031250  0.49887908  0.12615285  1
  V  V6  1  0.24479297  0.38372044  0.13228235  1
  V  V7  1  0.12424264  0.87793079  0.24682692  1
  V  V8  1  0.37467166  0.24930987  0.62542080  1
  V  V9  1  0.25402495  0.12683430  0.36997720  1
  V  V10  1  0.25046477  -0.00055878  0.74895708  1
  V  V11  1  0.62549377  0.12553193  0.00050211  1
  V  V12  1  0.75011315  0.12432100  0.37568990  1
  V  V13  1  0.62421030  0.00005369  0.12538431  1
  V  V14  1  0.49816795  0.49963594  -0.00140820  1
  V  V15  1  0.62631956  0.62718148  -0.00260372  1
  V  V16  1  0.12598696  0.74950539  0.87371626  1
  V  V17  1  0.00399550  -0.00049486  0.00707634  1
  V  V18  1  0.74995055  0.24820953  0.50226037  1
  V  V19  1  0.24972935  0.75090452  -0.00174045  1
  V  V20  1  0.00010073  0.25383701  0.25280187  1
  V  V21  1  0.63078082  0.62350212  0.49502892  1
  V  V22  1  0.37412813  0.24658935  0.12948527  1
  V  V23  1  0.00032623  0.74327843  0.24417269  1
  V  V24  1  0.63100803  0.74548328  0.37370724  1
  V  V25  1  0.24638206  0.00293527  0.24636740  1
  V  V26  1  0.62478302  -0.00109997  0.62288185  1
  V  V27  1  -0.00020944  0.87590353  0.37293149  1
  V  V28  1  0.86608340  0.62384892  0.25540189  1
  V  V29  1  0.74955219  0.62099737  0.86644878  1
  V  V30  1  0.87837357  0.74412767  0.12168261  1
  V  V31  1  0.37476848  0.62365650  0.74967066  1
  V  V32  1  0.12354483  0.62508628  0.50061275  1
  V  V33  1  0.50163794  0.87452596  0.87377185  1
  V  V34  1  0.74963945  -0.00024678  0.24918192  1
  V  V35  1  0.37137176  0.61866691  0.24926096  1
  V  V36  1  0.37545359  0.37503351  0.50159815  1
  V  V37  1  0.12620176  0.87503490  0.74877853  1
  V  V38  1  0.12618737  0.37527483  0.75183175  1
  V  V39  1  0.87588567  0.87502193  -0.00125700  1
  V  V40  1  0.12191009  0.62558988  0.00441761  1
  V  V41  1  0.62523522  0.12353203  0.50105458  1
  V  V42  1  0.24838132  0.61744067  0.36884215  1
  V  V43  1  0.62482819  0.25016733  0.37564935  1
  V  V44  1  0.87476945  0.87417215  0.49839136  1
  V  V45  1  0.50015028  -0.00027217  0.00047875  1
  V  V46  1  0.00111295  0.12367341  0.62656249  1
  V  V47  1  0.50052663  0.12346481  0.62444078  1
  V  V48  1  0.75091047  -0.00067246  0.75013176  1
  V  V49  1  0.12392877  0.50106162  0.62551316  1
  V  V50  1  0.74934505  0.37374149  0.62913351  1
  V  V51  1  -0.00006272  0.87556595  0.87501666  1
  V  V52  1  0.12368479  0.25162165  0.37656918  1
  V  V53  1  0.24510691  0.88002941  0.12305952  1
  V  V54  1  -0.00010040  0.74910004  0.74897187  1
  V  V55  1  0.62417703  0.87385777  0.24926968  1
  V  V56  1  0.37365758  0.37485929  0.00092405  1
  V  V57  1  0.25094112  0.74962740  0.49678546  1
  V  V58  1  0.49784622  0.12538983  0.12700857  1
  V  V59  1  0.87172248  0.49968274  0.86902790  1
  V  V60  1  0.12526864  -0.00020888  0.62501382  1
  V  V61  1  0.12529040  0.12182414  0.00785519  1
  V  V62  1  0.00057448  0.24824432  0.75154711  1
  V  V63  1  0.87499472  0.74864516  0.62560302  1
  V  V64  1  0.12525015  0.75040796  0.37294108  1
  V  V65  1  0.62492699  0.25041879  0.87637838  1
  V  V66  1  0.62830593  0.37839690  0.75232029  1
  V  V67  1  0.49888544  0.24650733  0.25051738  1
  V  V68  1  0.87549767  -0.00129400  0.37429031  1
  V  V69  1  0.37531555  0.00298517  0.36941785  1
  V  V70  1  0.87551151  0.24725293  0.62828214  1
  V  V71  1  0.37433742  0.87463236  -0.00084625  1
  V  V72  1  0.75037650  0.87475090  0.12205123  1
  V  V73  1  0.62443847  0.87360113  0.74819021  1
  V  V74  1  0.87467351  0.37601509  0.00316935  1
  V  V75  1  0.50071249  0.24948926  0.75123738  1
  V  V76  1  0.25101715  0.49959497  0.75110516  1
  V  V77  1  0.12572384  0.24905811  0.87703986  1
  V  V78  1  0.49801216  0.75039860  0.25009605  1
  V  V79  1  0.37484869  0.75023827  0.62259650  1
  V  V80  1  0.49857949  0.62576830  0.12440614  1
  V  V81  1  0.87516018  0.12508905  0.24998528  1
  V  V82  1  0.37627821  0.00033270  0.87420891  1
  V  V83  1  0.87663144  0.37435351  0.49973272  1
  V  V84  1  0.49953940  0.75038139  0.74854584  1
  V  V85  1  0.12559839  0.12364875  0.50032664  1
  V  V86  1  0.87559602  0.25018624  0.12590143  1
  V  V87  1  0.50065783  0.37380122  0.37500067  1
  V  V88  1  0.25072226  0.37369903  0.62613899  1
  V  V89  1  0.49899257  0.50040646  0.49828401  1
  V  V90  1  0.00061771  0.37495409  0.87594390  1
  V  V91  1  0.37561320  0.12445848  0.75016226  1
  V  V92  1  0.75216504  0.12446486  0.87542190  1
  Zn  Zn93  1  -0.00109881  0.62339040  0.62558017  1
  Zn  Zn94  1  0.36980105  0.49599811  0.37008072  1
  Zn  Zn95  1  0.24747706  0.25026527  0.00376637  1
  Zn  Zn96  1  -0.00042323  0.38271040  0.37871878  1
  Zn  Zn97  1  0.25019379  0.62247910  0.87614317  1
  Zn  Zn98  1  0.24931132  0.87547316  0.62280729  1
  Zn  Zn99  1  0.00057798  -0.00073681  0.49990654  1
  Zn  Zn100  1  0.74334926  0.50227253  0.26440108  1
  Zn  Zn101  1  0.50075093  0.62547192  0.62355937  1
  Zn  Zn102  1  0.49934585  0.37383398  0.87540077  1
  Zn  Zn103  1  0.37381593  0.49814470  0.87391112  1
  Zn  Zn104  1  0.37349414  0.75055698  0.12412394  1
  Zn  Zn105  1  0.87347918  0.62011400  0.74725906  1
  Zn  Zn106  1  0.74957485  0.25075939  0.00261953  1
  Zn  Zn107  1  0.86751865  0.51052054  0.38727313  1
  Zn  Zn108  1  0.13272486  0.38493678  0.26028581  1
  Zn  Zn109  1  0.62850064  0.37565385  0.25021565  1
  Zn  Zn110  1  -0.00242557  0.50159812  0.50247132  1
  Zn  Zn111  1  0.87681077  -0.00017807  0.87456377  1
  Zn  Zn112  1  0.12450294  0.51465183  0.13865762  1
  Zn  Zn113  1  0.00549410  0.12028074  0.12958571  1
  Zn  Zn114  1  0.75158111  0.75038037  -0.00332526  1
  Zn  Zn115  1  0.50021419  -0.00011238  0.49663473  1
  Zn  Zn116  1  0.25104586  0.25027450  0.49961323  1
  Zn  Zn117  1  0.87685925  0.12254806  0.75147029  1
  Zn  Zn118  1  0.75187679  0.37707697  0.13004323  1
  Zn  Zn119  1  0.75287418  0.74519859  0.49452026  1
  Zn  Zn120  1  0.50043658  0.87735336  0.37280334  1
  Zn  Zn121  1  0.62782079  0.74958026  0.87200863  1
  Zn  Zn122  1  0.18869387  0.19347812  0.18981700  1
  Zn  Zn123  1  0.18805806  0.18699805  0.68883338  1
  Zn  Zn124  1  0.18998464  0.69291417  0.18586166  1
  Zn  Zn125  1  0.18951125  0.68802873  0.68546248  1
  Zn  Zn126  1  0.68738588  0.18837396  0.18831113  1
  Zn  Zn127  1  0.68675018  0.18743769  0.68993278  1
  Zn  Zn128  1  0.68879624  0.68867438  0.18342791  1
  Zn  Zn129  1  0.68662684  0.68654300  0.68451648  1
  Zn  Zn130  1  0.31472888  0.31307014  0.31249773  1
  Zn  Zn131  1  0.31218960  0.31107126  0.81473347  1
  Zn  Zn132  1  0.31175106  0.81228970  0.31118782  1
  Zn  Zn133  1  0.31261080  0.81212980  0.81195311  1
  Zn  Zn134  1  0.80906966  0.31620195  0.31302983  1
  Zn  Zn135  1  0.81232401  0.31122858  0.81445828  1
  Zn  Zn136  1  0.81275844  0.81152832  0.30913529  1
  Zn  Zn137  1  0.81149472  0.81016977  0.81312248  1
  Zn  Zn138  1  0.18708899  0.43836661  0.44224941  1
  Zn  Zn139  1  0.18901718  0.43941503  0.93957602  1
  Zn  Zn140  1  0.18766978  0.93853597  0.43499757  1
  Zn  Zn141  1  0.18608296  0.93921924  0.93606686  1
  Zn  Zn142  1  0.69095460  0.43671244  0.43794161  1
  Zn  Zn143  1  0.68955271  0.43800819  0.93843017  1
  Zn  Zn144  1  0.68788485  0.93382110  0.43631923  1
  Zn  Zn145  1  0.68769273  0.93794363  0.93650175  1
  Zn  Zn146  1  0.31296168  0.06286526  0.06199542  1
  Zn  Zn147  1  0.31104370  0.06261908  0.55931355  1
  Zn  Zn148  1  0.30996130  0.56463590  0.06355839  1
  Zn  Zn149  1  0.31027666  0.56290636  0.56224970  1
  Zn  Zn150  1  0.81543979  0.06183905  0.06160427  1
  Zn  Zn151  1  0.81409053  0.06045368  0.56299313  1
  Zn  Zn152  1  0.81300165  0.56441735  0.05973096  1
  Zn  Zn153  1  0.80933432  0.56109677  0.56574369  1
  Zn  Zn154  1  0.44056146  0.43481005  0.18597505  1
  Zn  Zn155  1  0.44076994  0.43646013  0.68661181  1
  Zn  Zn156  1  0.43328081  0.93730908  0.18643229  1
  Zn  Zn157  1  0.43775878  0.93691264  0.68457891  1
  Zn  Zn158  1  0.94437248  0.44120112  0.19096754  1
  Zn  Zn159  1  0.94003357  0.43476264  0.68582737  1
  Zn  Zn160  1  0.93661901  0.93386806  0.18604517  1
  Zn  Zn161  1  0.93727916  0.93709592  0.68805682  1
  Zn  Zn162  1  0.06361996  0.06403222  0.31277753  1
  Zn  Zn163  1  0.06375169  0.06145634  0.81622123  1
  Zn  Zn164  1  0.05435102  0.56002056  0.31816769  1
  Zn  Zn165  1  0.06078749  0.56420355  0.81469986  1
  Zn  Zn166  1  0.56228848  0.06421335  0.31215519  1
  Zn  Zn167  1  0.56469217  0.06176358  0.81173588  1
  Zn  Zn168  1  0.56024880  0.56342857  0.31235112  1
  Zn  Zn169  1  0.55984443  0.56249108  0.81271661  1
  Zn  Zn170  1  0.43762026  0.18735367  0.43894792  1
  Zn  Zn171  1  0.43817550  0.18864342  0.93972859  1
  Zn  Zn172  1  0.43880804  0.68562364  0.43380994  1
  Zn  Zn173  1  0.43700609  0.68925534  0.93424821  1
  Zn  Zn174  1  0.93787825  0.18680436  0.44009445  1
  Zn  Zn175  1  0.93963120  0.18633359  0.93952322  1
  Zn  Zn176  1  0.94101612  0.68950942  0.43650290  1
  Zn  Zn177  1  0.93806507  0.68654571  0.93502446  1
  Zn  Zn178  1  0.06118902  0.31121424  0.06234921  1
  Zn  Zn179  1  0.06277571  0.31093858  0.56416711  1
  Zn  Zn180  1  0.06320712  0.81244882  0.06147991  1
  Zn  Zn181  1  0.06173957  0.81275464  0.56115465  1
  Zn  Zn182  1  0.56248307  0.31308740  0.06341986  1
  Zn  Zn183  1  0.56191900  0.31179192  0.56366025  1
  Zn  Zn184  1  0.56123356  0.81213602  0.06237524  1
  Zn  Zn185  1  0.56055271  0.81081158  0.55990078  1
  O  O186  1  0.12532325  0.13386395  0.11218233  1
  O  O187  1  0.12117119  0.12007619  0.62051475  1
  O  O188  1  0.13157892  0.62852230  0.10960780  1
  O  O189  1  0.12637156  0.61909744  0.61793319  1
  O  O190  1  0.61954346  0.11951721  0.12021933  1
  O  O191  1  0.62074427  0.11918299  0.62050021  1
  O  O192  1  0.61948484  0.61888264  0.11553157  1
  O  O193  1  0.62138621  0.61574680  0.61741470  1
  O  O194  1  0.38114241  0.37740801  0.38184532  1
  O  O195  1  0.37699874  0.37491016  0.88841605  1
  O  O196  1  0.37492162  0.88357816  0.38065551  1
  O  O197  1  0.38140346  0.88130594  0.87909769  1
  O  O198  1  0.87476662  0.36719899  0.39347399  1
  O  O199  1  0.87897535  0.38040671  0.88398344  1
  O  O200  1  0.87904167  0.87874266  0.37748444  1
  O  O201  1  0.88215183  0.87411999  0.88137343  1
  O  O202  1  0.25604428  0.00775440  0.36669279  1
  O  O203  1  0.25700112  0.00531236  0.86907936  1
  O  O204  1  0.24938513  0.51344638  0.37726965  1
  O  O205  1  0.25407419  0.50096844  0.86668902  1
  O  O206  1  0.75504148  0.00438664  0.36838800  1
  O  O207  1  0.74961555  0.00978592  0.86936612  1
  O  O208  1  0.75623637  0.50111980  0.37645907  1
  O  O209  1  0.76132778  0.50817451  0.88240309  1
  O  O210  1  0.24635967  0.48675977  0.12189582  1
  O  O211  1  0.24452978  0.49299999  0.63129065  1
  O  O212  1  0.25808551  0.99231552  0.13525166  1
  O  O213  1  0.24403051  0.99973067  0.63134507  1
  O  O214  1  0.73756188  0.50258059  0.12272942  1
  O  O215  1  0.73391990  0.49175199  0.62176004  1
  O  O216  1  0.74429008  0.99576272  0.13001353  1
  O  O217  1  0.74450182  0.99351641  0.62980581  1
  O  O218  1  -0.00645942  0.35999106  0.25775199  1
  O  O219  1  0.00703314  0.36827152  0.75674713  1
  O  O220  1  0.00448899  0.86772429  0.25394951  1
  O  O221  1  0.00677302  0.86964603  0.75519298  1
  O  O222  1  0.50321372  0.36445385  0.25577064  1
  O  O223  1  0.50984531  0.36804232  0.75220059  1
  O  O224  1  0.50451611  0.86534370  0.24721258  1
  O  O225  1  0.50443287  0.87072946  0.75408225  1
  O  O226  1  0.50483534  0.13808442  0.24358948  1
  O  O227  1  0.49530918  0.12914219  0.74470178  1
  O  O228  1  0.49233976  0.63373634  0.24506027  1
  O  O229  1  0.49074213  0.62996331  0.74734484  1
  O  O230  1  0.99534899  0.13512339  0.24931310  1
  O  O231  1  1.00069056  0.13079848  0.74602295  1
  O  O232  1  0.99168812  0.64064092  0.25123544  1
  O  O233  1  0.99634591  0.63416957  0.74816705  1
  O  O234  1  0.37711813  0.26013329  0.01099883  1
  O  O235  1  0.37439182  0.25671645  0.50733302  1
  O  O236  1  0.36917823  0.75717028  -0.00047408  1
  O  O237  1  0.37199215  0.75683887  0.50051637  1
  O  O238  1  0.87851845  0.25917196  0.00922838  1
  O  O239  1  0.86930980  0.25384741  0.50894810  1
  O  O240  1  0.87752635  0.75569417  0.00730937  1
  O  O241  1  0.87377500  0.75430105  0.50815194  1
  O  O242  1  0.12735950  0.24372554  0.49146540  1
  O  O243  1  0.12428464  0.24080332  0.99364959  1
  O  O244  1  0.13067104  0.74617194  0.49260431  1
  O  O245  1  0.12871482  0.74421427  0.99373575  1
  O  O246  1  0.63015104  0.24351112  0.49642326  1
  O  O247  1  0.62650722  0.24383829  0.99573261  1
  O  O248  1  0.62309613  0.74107784  0.49064998  1
  O  O249  1  0.62271952  0.73640346  0.99832889  1
  O  O250  1  0.49428397  0.24664024  0.13231847  1
  O  O251  1  0.49477186  0.24337852  0.63143413  1
  O  O252  1  0.49931488  0.74463899  0.13483036  1
  O  O253  1  0.49220473  0.74847586  0.63042988  1
  O  O254  1  0.99109830  0.24983521  0.13512993  1
  O  O255  1  0.99631287  0.24316946  0.63290175  1
  O  O256  1  0.99001294  0.75986775  0.13397914  1
  O  O257  1  0.98963544  0.75083303  0.62994174  1
  O  O258  1  0.00960533  0.24725541  0.36936876  1
  O  O259  1  0.00523591  0.25535920  0.87134519  1
  O  O260  1  0.00590305  0.75702965  0.36392466  1
  O  O261  1  0.00602605  0.75616471  0.86893371  1
  O  O262  1  0.50366996  0.25261788  0.36816297  1
  O  O263  1  0.50716138  0.25023436  0.86954514  1
  O  O264  1  0.50801852  0.75124100  0.36281412  1
  O  O265  1  0.50275564  0.75726161  0.86683983  1
  O  O266  1  0.24408572  0.12724290  0.48763663  1
  O  O267  1  0.24222742  0.12515485  0.99505055  1
  O  O268  1  0.24520891  0.63057195  0.48944494  1
  O  O269  1  0.24290368  0.63206862  0.99689036  1
  O  O270  1  0.74518879  0.12887727  0.49534904  1
  O  O271  1  0.74426422  0.12442583  0.99148554  1
  O  O272  1  0.73426589  0.62630269  0.50507386  1
  O  O273  1  0.73933889  0.62567186  0.99082891  1
  O  O274  1  0.25951964  0.37340441  0.01040537  1
  O  O275  1  0.25775241  0.37364270  0.50803534  1
  O  O276  1  0.25363019  0.87356227  0.00544802  1
  O  O277  1  0.26052657  0.86907035  0.49671121  1
  O  O278  1  0.76429837  0.37372597  0.00321241  1
  O  O279  1  0.75603456  0.36589629  0.50992050  1
  O  O280  1  0.75632756  0.87454364  0.00452393  1
  O  O281  1  0.75653614  0.87064135  0.50566830  1
  O  O282  1  0.10045336  0.49057823  0.24444110  1
  O  O283  1  0.13031052  0.49430847  0.74682902  1
  O  O284  1  0.13781239  0.99381201  0.25610172  1
  O  O285  1  0.13110481  0.99495314  0.74582085  1
  O  O286  1  0.62216544  0.50170321  0.23765630  1
  O  O287  1  0.61427384  0.48959255  0.74002148  1
  O  O288  1  0.62948094  0.99482735  0.24471382  1
  O  O289  1  0.63036716  0.99349742  0.74253401  1
  O  O290  1  0.36233647  -0.00621490  0.26078999  1
  O  O291  1  0.37138134  0.00522806  0.75477162  1
  O  O292  1  0.38495501  0.51463375  0.25054994  1
  O  O293  1  0.37200749  0.50742252  0.74846055  1
  O  O294  1  0.86936495  0.00456852  0.25370438  1
  O  O295  1  0.86684456  0.00169170  0.75334613  1
  O  O296  1  0.87963256  0.52093540  0.24288585  1
  O  O297  1  0.88190929  0.49773959  0.76547355  1
  O  O298  1  0.12391086  0.36337216  0.37873659  1
  O  O299  1  0.12073231  0.36977988  0.87191568  1
  O  O300  1  0.12071610  0.86960680  0.36740535  1
  O  O301  1  0.11985448  0.86948333  0.86887052  1
  O  O302  1  0.61757012  0.36639587  0.37739818  1
  O  O303  1  0.62457248  0.37081993  0.86887032  1
  O  O304  1  0.62092853  0.86619272  0.36740630  1
  O  O305  1  0.61919266  0.87412467  0.86716890  1
  O  O306  1  0.38145317  0.13858892  0.11730074  1
  O  O307  1  0.37966828  0.12875183  0.63017392  1
  O  O308  1  0.37934000  0.62834582  0.13242606  1
  O  O309  1  0.37601469  0.63030225  0.63376188  1
  O  O310  1  0.87763086  0.13444089  0.13072614  1
  O  O311  1  0.88182354  0.12993452  0.62730970  1
  O  O312  1  0.87147432  0.63911545  0.12999161  1
  O  O313  1  0.87348694  0.63531089  0.62745103  1
  O  O314  1  0.26069434  0.25880478  0.12474774  1
  O  O315  1  0.25692137  0.25534177  0.62499293  1
  O  O316  1  0.25286597  0.76310740  0.11718150  1
  O  O317  1  0.25726024  0.75241186  0.61481041  1
  O  O318  1  0.76366842  0.25116092  0.12443191  1
  O  O319  1  0.75473150  0.25296230  0.62171666  1
  O  O320  1  0.75879190  0.75707502  0.12021577  1
  O  O321  1  0.75957421  0.75543702  0.62372432  1
  O  O322  1  0.24226996  0.24284641  0.37257512  1
  O  O323  1  0.24434569  0.24297508  0.87902597  1
  O  O324  1  0.24391448  0.74169773  0.37733009  1
  O  O325  1  0.24316731  0.75048200  0.88113216  1
  O  O326  1  0.74444030  0.24310359  0.38159133  1
  O  O327  1  0.74410801  0.24021816  0.87810345  1
  O  O328  1  0.73495490  0.75427072  0.37361833  1
  O  O329  1  0.74743576  0.73846409  0.87860950  1
  O  O330  1  0.00792301  0.11660608  0.00205188  1
  O  O331  1  0.00738039  0.12268418  0.50758362  1
  O  O332  1  0.01009733  0.61664627  -0.00708313  1
  O  O333  1  0.00913681  0.62578282  0.50332246  1
  O  O334  1  0.50586918  0.11861241  0.00599234  1
  O  O335  1  0.50725172  0.12362092  0.50651327  1
  O  O336  1  0.50518750  0.61812960  0.00291418  1
  O  O337  1  0.50721200  0.61538318  0.50073474  1
  O  O338  1  0.49559331  0.38135135  0.49583222  1
  O  O339  1  0.49073149  0.38353175  1.00247701  1
  O  O340  1  0.48733203  0.87678664  0.49533229  1
  O  O341  1  0.49528915  0.88056491  0.99489365  1
  O  O342  1  0.98803918  0.37293779  0.50280998  1
  O  O343  1  0.99267514  0.38148544  0.99472574  1
  O  O344  1  0.99329177  0.87582795  0.49060133  1
  O  O345  1  0.99749829  0.88200746  0.99499596  1
  O  O346  1  0.49974987  0.49387233  0.38591129  1
  O  O347  1  0.49766377  0.49734921  0.88850672  1
  O  O348  1  0.48864643  1.00006851  0.37356361  1
  O  O349  1  0.49584495  0.99521587  0.88024794  1
  O  O350  1  0.98454857  0.49819252  0.38495103  1
  O  O351  1  0.99228596  0.49398284  0.88449944  1
  O  O352  1  0.99315393  0.99393372  0.37371116  1
  O  O353  1  0.99897341  0.99338318  0.88531595  1
  O  O354  1  -0.00331861  -0.00008976  0.11212484  1
  O  O355  1  0.00740689  0.00560211  0.62432433  1
  O  O356  1  0.00341265  0.49349085  0.10750318  1
  O  O357  1  0.00883478  0.50246526  0.62448757  1
  O  O358  1  0.50364792  0.00472712  0.12105875  1
  O  O359  1  0.50659977  0.00623634  0.62214865  1
  O  O360  1  0.50776120  0.50520298  0.11512445  1
  O  O361  1  0.51018041  0.49789418  0.61323547  1
  O  O362  1  0.25140267  0.37304481  0.23642020  1
  O  O363  1  0.24570485  0.37915745  0.74585704  1
  O  O364  1  0.24483281  0.88125317  0.24202817  1
  O  O365  1  0.24459698  0.88181333  0.74791813  1
  O  O366  1  0.74685229  0.38281111  0.24616200  1
  O  O367  1  0.73581602  0.36847765  0.74628987  1
  O  O368  1  0.74415194  0.88058865  0.24267226  1
  O  O369  1  0.74391527  0.87917285  0.74390311  1
  O  O370  1  0.24342309  0.11731437  0.26019193  1
  O  O371  1  0.25632932  0.11942512  0.75667287  1
  O  O372  1  0.25939558  0.63326807  0.25709968  1
  O  O373  1  0.25987057  0.61918478  0.74992927  1
  O  O374  1  0.75456074  0.11934904  0.25607929  1
  O  O375  1  0.74912111  0.11930899  0.76064181  1
  O  O376  1  0.76299226  0.62557830  0.24532470  1
  O  O377  1  0.75002447  0.62681502  0.76239118  1
  O  O378  1  0.36418637  0.11660145  0.38097192  1
  O  O379  1  0.37140558  0.11996067  0.87061021  1
  O  O380  1  0.36577035  0.62328970  0.36669641  1
  O  O381  1  0.37394684  0.62298520  0.86120925  1
  O  O382  1  0.86925767  0.11983852  0.37031761  1
  O  O383  1  0.86343454  0.12492471  0.87520124  1
  O  O384  1  0.87599293  0.63257934  0.35837877  1
  O  O385  1  0.86666111  0.61644606  0.87481376  1
  O  O386  1  0.14159646  0.36954377  0.12301692  1
  O  O387  1  0.13096439  0.37894589  0.63230259  1
  O  O388  1  0.13791691  0.87236045  0.12869895  1
  O  O389  1  0.12663231  0.88114486  0.63051973  1
  O  O390  1  0.62685847  0.38685052  0.12385512  1
  O  O391  1  0.62850387  0.37965540  0.63297423  1
  O  O392  1  0.62964790  0.88047143  0.12910017  1
  O  O393  1  0.62926728  0.87891837  0.62778033  1
  O  O394  1  0.11656197  0.25419971  0.25976365  1
  O  O395  1  0.12068389  0.25546549  0.75705251  1
  O  O396  1  0.11749154  0.75619360  0.25223535  1
  O  O397  1  0.12097734  0.75536220  0.75335488  1
  O  O398  1  0.61648205  0.25174914  0.25630013  1
  O  O399  1  0.61915114  0.25790909  0.75555661  1
  O  O400  1  0.61734408  0.75211059  0.25401263  1
  O  O401  1  0.61749131  0.75617504  0.74808615  1
  O  O402  1  0.38629761  0.25558770  0.23999448  1
  O  O403  1  0.38044256  0.24361128  0.74587837  1
  O  O404  1  0.38429371  0.74223573  0.24984322  1
  O  O405  1  0.37878736  0.74311578  0.74375663  1
  O  O406  1  0.88054126  0.24478373  0.24515934  1
  O  O407  1  0.88242066  0.24886746  0.74565852  1
  O  O408  1  0.88038529  0.74373222  0.24147609  1
  O  O409  1  0.88081163  0.75123665  0.73921744  1
  O  O410  1  0.38540310  0.49501137  0.50121015  1
  O  O411  1  0.38307667  0.49285432  1.00285090  1
  O  O412  1  0.37358985  0.99181357  0.48852340  1
  O  O413  1  0.38117658  0.99499937  0.99368820  1
  O  O414  1  0.87374383  0.48587227  0.50865337  1
  O  O415  1  0.88284016  0.49391497  0.99406494  1
  O  O416  1  0.87637141  0.99247402  0.49204683  1
  O  O417  1  0.88498661  0.99349845  0.99743719  1
  O  O418  1  0.11636033  0.01026670  -0.00507209  1
  O  O419  1  0.12456673  0.00550163  0.50560756  1
  O  O420  1  0.11834704  0.50960771  -0.00093147  1
  O  O421  1  0.12396711  0.50727345  0.50821827  1
  O  O422  1  0.61880093  0.00468948  0.00634451  1
  O  O423  1  0.62443203  0.00514726  0.50456929  1
  O  O424  1  0.61711561  0.50788071  0.00532466  1
  O  O425  1  0.61680240  0.50467436  0.50670902  1
  O  O426  1  0.36703976  0.36937567  0.11942320  1
  O  O427  1  0.37092414  0.36860846  0.62179637  1
  O  O428  1  0.36428243  0.87384591  0.11734561  1
  O  O429  1  0.37299343  0.87055448  0.61284692  1
  O  O430  1  0.87799927  0.36830130  0.11789674  1
  O  O431  1  0.86906601  0.36694576  0.62157402  1
  O  O432  1  0.86876427  0.86631565  0.11913486  1
  O  O433  1  0.87044297  0.86708309  0.61901070  1
  O  O434  1  0.13322586  0.13322375  0.37950463  1
  O  O435  1  0.13103358  0.13012624  0.88421658  1
  O  O436  1  0.13093767  0.63096841  0.37826653  1
  O  O437  1  0.12769546  0.63212346  0.88431698  1
  O  O438  1  0.63086889  0.12990716  0.38091440  1
  O  O439  1  0.63272154  0.12955632  0.88018848  1
  O  O440  1  0.61762027  0.63392027  0.38330628  1
  O  O441  1  0.63145672  0.62217360  0.88202350  1
