# generated using pymatgen
data_V93Zn93O256
_symmetry_space_group_name_H-M   'P 1'
_cell_length_a   17.05122709
_cell_length_b   17.05174596
_cell_length_c   17.04970012
_cell_angle_alpha   90.07374933
_cell_angle_beta   90.03190612
_cell_angle_gamma   90.05765158
_symmetry_Int_Tables_number   1
_chemical_formula_structural   V93Zn93O256
_chemical_formula_sum   'V93 Zn93 O256'
_cell_volume   4957.24735561
_cell_formula_units_Z   1
loop_
 _symmetry_equiv_pos_site_id
 _symmetry_equiv_pos_as_xyz
  1  'x, y, z'
loop_
 _atom_site_type_symbol
 _atom_site_label
 _atom_site_symmetry_multiplicity
 _atom_site_fract_x
 _atom_site_fract_y
 _atom_site_fract_z
 _atom_site_occupancy
  V  V0  1  0.87344083  0.37241595  0.49895226  1
  V  V1  1  0.75092354  0.62594791  0.37489727  1
  V  V2  1  0.25070580  0.75027677  0.50016460  1
  V  V3  1  0.74875104  0.50043467  0.75014245  1
  V  V4  1  0.00237778  0.62538363  0.12296365  1
  V  V5  1  0.37387930  0.49953170  0.87422218  1
  V  V6  1  0.12219745  0.62290412  0.50164630  1
  V  V7  1  0.12630976  0.12406742  -0.00058483  1
  V  V8  1  0.62747374  0.24907797  0.87666989  1
  V  V9  1  0.87914649  0.12907597  0.75022242  1
  V  V10  1  0.12050996  0.12182718  0.49833892  1
  V  V11  1  0.62438611  0.50086997  0.12387789  1
  V  V12  1  0.37162063  0.87792584  0.00513494  1
  V  V13  1  0.49907636  0.37496227  0.87417789  1
  V  V14  1  0.62765601  0.12919865  0.50071611  1
  V  V15  1  0.62526455  0.62537432  0.50009350  1
  V  V16  1  0.62462790  0.00127535  0.62659323  1
  V  V17  1  0.25078215  0.50038573  0.24862546  1
  V  V18  1  0.24878355  0.87513578  0.62399490  1
  V  V19  1  0.87590235  0.49926269  0.37646120  1
  V  V20  1  0.50028823  0.50101817  0.00065899  1
  V  V21  1  0.50158106  0.87513625  0.37598781  1
  V  V22  1  0.11806532  0.25147815  0.86793290  1
  V  V23  1  0.62544059  0.37508413  0.25043278  1
  V  V24  1  0.87693802  0.62509604  0.24964704  1
  V  V25  1  0.49855389  0.75114716  0.75139140  1
  V  V26  1  0.37401569  0.24900226  0.62420644  1
  V  V27  1  0.25073851  -0.00409938  0.24431726  1
  V  V28  1  0.74999791  0.50087343  0.24975953  1
  V  V29  1  0.25054950  0.37527975  0.12327341  1
  V  V30  1  0.12690199  -0.00246727  0.12345169  1
  V  V31  1  0.75162714  0.00069295  0.25276390  1
  V  V32  1  0.37329465  0.62443189  0.75111190  1
  V  V33  1  0.50020779  0.24875868  0.24950205  1
  V  V34  1  0.75077002  0.00100998  0.75075269  1
  V  V35  1  0.00025308  0.49984404  -0.00312924  1
  V  V36  1  0.87437621  0.49897134  0.87490107  1
  V  V37  1  0.49915962  0.24938059  0.74943981  1
  V  V38  1  0.62702638  0.25009638  0.37818441  1
  V  V39  1  0.00009999  -0.00158408  0.00006605  1
  V  V40  1  0.37604415  -0.00080776  0.37567911  1
  V  V41  1  0.37441908  0.12299300  0.75094959  1
  V  V42  1  -0.00174983  0.88152591  0.38108069  1
  V  V43  1  0.37541352  0.00082383  0.87897565  1
  V  V44  1  0.24490467  0.49841517  0.74876188  1
  V  V45  1  0.62385572  0.37454796  0.74905875  1
  V  V46  1  0.49863202  0.87774603  0.88169993  1
  V  V47  1  0.49947685  0.62539956  0.62587066  1
  V  V48  1  0.74955284  0.87532105  0.62577679  1
  V  V49  1  0.50015020  0.00019216  0.50039249  1
  V  V50  1  0.24870166  0.12584188  0.37606092  1
  V  V51  1  0.75113257  0.87605695  0.12654438  1
  V  V52  1  0.75089826  0.13055868  0.38091064  1
  V  V53  1  0.37643371  0.12495696  0.24986797  1
  V  V54  1  0.37589261  0.50002110  0.37428692  1
  V  V55  1  0.12319307  0.87413159  0.75202522  1
  V  V56  1  0.12698711  0.87427393  0.24526156  1
  V  V57  1  0.50002877  0.37539641  0.37506116  1
  V  V58  1  0.37617871  0.62666921  0.24895575  1
  V  V59  1  0.74888171  0.75025335  0.00041323  1
  V  V60  1  0.62114914  0.11869819  0.00366338  1
  V  V61  1  0.37386720  0.75109523  0.62541187  1
  V  V62  1  0.87571510  0.12525715  0.25061966  1
  V  V63  1  0.62390604  0.49970980  0.62504877  1
  V  V64  1  0.12516548  0.75003989  0.37314609  1
  V  V65  1  0.25001409  0.62497273  0.37461644  1
  V  V66  1  0.87469050  0.87712644  0.00076221  1
  V  V67  1  0.24833728  0.74585306  0.00064975  1
  V  V68  1  0.12348722  0.37280727  0.25020132  1
  V  V69  1  0.87620413  0.25130130  0.12386605  1
  V  V70  1  0.24859877  0.37374613  0.62343800  1
  V  V71  1  0.11946358  -0.00125694  0.62167609  1
  V  V72  1  0.37516303  0.37426061  -0.00097151  1
  V  V73  1  0.00013485  0.12490695  0.12578017  1
  V  V74  1  0.12656456  0.50438558  0.11795411  1
  V  V75  1  0.87598213  0.00050214  0.87487495  1
  V  V76  1  0.87374900  0.62571349  0.74947237  1
  V  V77  1  0.62706858  0.87495322  0.25229150  1
  V  V78  1  0.50009304  0.12455119  0.62529198  1
  V  V79  1  0.74856494  0.62580752  0.87645091  1
  V  V80  1  0.24991760  0.24849584  -0.00153964  1
  V  V81  1  -0.00144269  0.12586234  0.62228443  1
  V  V82  1  0.87661470  0.74968537  0.62673541  1
  V  V83  1  0.87637599  0.25061751  0.62466758  1
  V  V84  1  0.75107996  0.75170166  0.50125457  1
  V  V85  1  0.37646083  0.24949264  0.12475507  1
  V  V86  1  0.74839230  0.36908619  0.61963453  1
  V  V87  1  0.49859394  0.50001922  0.49940623  1
  V  V88  1  0.75171405  0.37513294  0.12490684  1
  V  V89  1  0.12553747  0.74318810  0.87865169  1
  V  V90  1  0.62298979  0.87600881  0.75204348  1
  V  V91  1  0.62551031  0.75112852  0.37548763  1
  V  V92  1  0.37130019  0.75422414  0.12648788  1
  Zn  Zn93  1  0.12239710  0.25027730  0.37588356  1
  Zn  Zn94  1  -0.00762696  0.36962756  0.86607871  1
  Zn  Zn95  1  0.24557811  0.62055690  0.87869640  1
  Zn  Zn96  1  0.75006698  0.25043972  0.00038351  1
  Zn  Zn97  1  0.11296805  0.36782283  0.74155474  1
  Zn  Zn98  1  0.37496093  0.87549882  0.50053883  1
  Zn  Zn99  1  0.75095709  0.12548431  0.87661458  1
  Zn  Zn100  1  0.00003195  0.74749291  0.75414590  1
  Zn  Zn101  1  0.50107962  0.62720279  0.12441921  1
  Zn  Zn102  1  0.62243010  0.62634805  0.00056265  1
  Zn  Zn103  1  0.37386596  0.37260041  0.49810646  1
  Zn  Zn104  1  0.24896215  0.12407377  0.87301124  1
  Zn  Zn105  1  0.00148325  0.37378176  0.37622930  1
  Zn  Zn106  1  0.24908904  0.00086462  0.74994482  1
  Zn  Zn107  1  0.00179899  0.24947968  0.25183462  1
  Zn  Zn108  1  0.88007678  0.88078539  0.50544350  1
  Zn  Zn109  1  0.62255156  0.74965710  0.87640632  1
  Zn  Zn110  1  -0.00032660  0.49919435  0.50008780  1
  Zn  Zn111  1  0.00009743  0.62313836  0.62568308  1
  Zn  Zn112  1  0.50106719  0.75012280  0.24902945  1
  Zn  Zn113  1  0.61939955  -0.00425338  0.12233376  1
  Zn  Zn114  1  0.11963877  0.49699331  0.62374869  1
  Zn  Zn115  1  -0.00045870  0.75114700  0.24847448  1
  Zn  Zn116  1  0.87373690  0.37365107  -0.00287375  1
  Zn  Zn117  1  0.88281273  0.00960137  0.38785038  1
  Zn  Zn118  1  0.00025417  0.87281128  0.87666512  1
  Zn  Zn119  1  0.24986874  0.25028559  0.49923898  1
  Zn  Zn120  1  0.87750188  0.75057269  0.12516627  1
  Zn  Zn121  1  0.49605140  0.11797515  0.12038422  1
  Zn  Zn122  1  0.18921355  0.18643798  0.18569278  1
  Zn  Zn123  1  0.18931043  0.18495916  0.68724636  1
  Zn  Zn124  1  0.18988525  0.68861719  0.18608320  1
  Zn  Zn125  1  0.18763878  0.68768605  0.68885603  1
  Zn  Zn126  1  0.68955997  0.18877021  0.18925499  1
  Zn  Zn127  1  0.68978035  0.18731354  0.68884516  1
  Zn  Zn128  1  0.68780443  0.68785654  0.18601183  1
  Zn  Zn129  1  0.68667301  0.68925966  0.68929197  1
  Zn  Zn130  1  0.31196420  0.31254399  0.31088216  1
  Zn  Zn131  1  0.30803582  0.31114706  0.81126825  1
  Zn  Zn132  1  0.31313548  0.81323996  0.31385955  1
  Zn  Zn133  1  0.30946519  0.81303211  0.81416662  1
  Zn  Zn134  1  0.81334380  0.31155050  0.31063661  1
  Zn  Zn135  1  0.81246035  0.31406014  0.80827066  1
  Zn  Zn136  1  0.81565343  0.81057775  0.31163369  1
  Zn  Zn137  1  0.81202144  0.81372585  0.81394014  1
  Zn  Zn138  1  0.18883596  0.43821204  0.43685308  1
  Zn  Zn139  1  0.18665432  0.43405807  0.93581889  1
  Zn  Zn140  1  0.18598452  0.93771890  0.43632450  1
  Zn  Zn141  1  0.19121597  0.93414108  0.93719370  1
  Zn  Zn142  1  0.68812731  0.43857326  0.43728758  1
  Zn  Zn143  1  0.68832883  0.43663805  0.93959589  1
  Zn  Zn144  1  0.69014148  0.94085949  0.43925469  1
  Zn  Zn145  1  0.68935195  0.93772532  0.93570259  1
  Zn  Zn146  1  0.31292641  0.06281083  0.06172434  1
  Zn  Zn147  1  0.31022891  0.06088308  0.56270434  1
  Zn  Zn148  1  0.31473330  0.56592944  0.06207946  1
  Zn  Zn149  1  0.31142507  0.56206011  0.56246733  1
  Zn  Zn150  1  0.80770102  0.06489252  0.06194468  1
  Zn  Zn151  1  0.81319725  0.05961892  0.56139945  1
  Zn  Zn152  1  0.81460509  0.56300846  0.06205599  1
  Zn  Zn153  1  0.81182354  0.56081635  0.56238652  1
  Zn  Zn154  1  0.43881194  0.43747078  0.18710421  1
  Zn  Zn155  1  0.43426732  0.43697519  0.68683280  1
  Zn  Zn156  1  0.44175987  0.93768570  0.18764064  1
  Zn  Zn157  1  0.43622176  0.93740045  0.69013847  1
  Zn  Zn158  1  0.93880330  0.43870723  0.18718504  1
  Zn  Zn159  1  0.93983458  0.44032912  0.68642618  1
  Zn  Zn160  1  0.93841570  0.93819650  0.19007495  1
  Zn  Zn161  1  0.93871833  0.93844226  0.68850212  1
  Zn  Zn162  1  0.06335583  0.06126825  0.30986846  1
  Zn  Zn163  1  0.06120894  0.06281613  0.81185772  1
  Zn  Zn164  1  0.06147547  0.55931734  0.31213222  1
  Zn  Zn165  1  0.05917663  0.56255182  0.81010513  1
  Zn  Zn166  1  0.56388829  0.06216649  0.31156532  1
  Zn  Zn167  1  0.56034664  0.06208110  0.81565097  1
  Zn  Zn168  1  0.56190397  0.56425936  0.31079602  1
  Zn  Zn169  1  0.56260031  0.56387226  0.81464383  1
  Zn  Zn170  1  0.43831050  0.18774605  0.43805555  1
  Zn  Zn171  1  0.43968920  0.18685888  0.93736137  1
  Zn  Zn172  1  0.43769350  0.68820765  0.43759659  1
  Zn  Zn173  1  0.43521352  0.68760330  0.93845730  1
  Zn  Zn174  1  0.93882962  0.19287797  0.43840493  1
  Zn  Zn175  1  0.93836589  0.18438954  0.93976249  1
  Zn  Zn176  1  0.93892695  0.69273530  0.43608759  1
  Zn  Zn177  1  0.93786316  0.68657157  0.93850283  1
  Zn  Zn178  1  0.06171494  0.31371912  0.05869174  1
  Zn  Zn179  1  0.06069125  0.30836597  0.56098997  1
  Zn  Zn180  1  0.06357633  0.81214397  0.06126128  1
  Zn  Zn181  1  0.06334536  0.80872652  0.56237568  1
  Zn  Zn182  1  0.56242629  0.31143203  0.06285165  1
  Zn  Zn183  1  0.56068604  0.31150124  0.56027784  1
  Zn  Zn184  1  0.56087804  0.81370549  0.06568382  1
  Zn  Zn185  1  0.56270235  0.81349343  0.56289366  1
  O  O186  1  0.12052136  0.11809882  0.11960623  1
  O  O187  1  0.11791380  0.11901247  0.61958383  1
  O  O188  1  0.11750062  0.61247783  0.13261701  1
  O  O189  1  0.12546680  0.62607476  0.61240671  1
  O  O190  1  0.62720957  0.12954661  0.11026184  1
  O  O191  1  0.62007483  0.12110837  0.62187999  1
  O  O192  1  0.62272012  0.61667027  0.12262725  1
  O  O193  1  0.61956323  0.61973600  0.62063800  1
  O  O194  1  0.38113007  0.38166867  0.37439728  1
  O  O195  1  0.37960325  0.37878365  0.87889151  1
  O  O196  1  0.38213163  0.88175066  0.37733738  1
  O  O197  1  0.38058214  0.88129526  0.88170288  1
  O  O198  1  0.87028532  0.37916821  0.38502571  1
  O  O199  1  0.87353829  0.38242885  0.87635461  1
  O  O200  1  0.89221277  0.87225302  0.37395141  1
  O  O201  1  0.87679346  0.88276675  0.88162890  1
  O  O202  1  0.25407590  0.00854091  0.36719631  1
  O  O203  1  0.26241293  0.00095691  0.87206243  1
  O  O204  1  0.25656576  0.50557193  0.36802398  1
  O  O205  1  0.25432075  0.49856394  0.86614415  1
  O  O206  1  0.75199056  0.01087199  0.36686267  1
  O  O207  1  0.75802000  0.00211914  0.86744121  1
  O  O208  1  0.75472952  0.50687235  0.36930228  1
  O  O209  1  0.75370078  0.50485734  0.86960787  1
  O  O210  1  0.24400223  0.49636584  0.12730514  1
  O  O211  1  0.25002875  0.49046676  0.63256486  1
  O  O212  1  0.24528038  1.00503737  0.13833886  1
  O  O213  1  0.23761994  0.99421629  0.62650548  1
  O  O214  1  0.74562004  0.49531992  0.13080151  1
  O  O215  1  0.74302404  0.49139980  0.63024011  1
  O  O216  1  0.74710516  0.99590780  0.13698295  1
  O  O217  1  0.74318101  0.99513567  0.63193450  1
  O  O218  1  0.01331223  0.37563016  0.24876945  1
  O  O219  1  0.00260760  0.37963933  0.75409449  1
  O  O220  1  0.01123178  0.87386322  0.25799804  1
  O  O221  1  0.01235622  0.87233628  0.75138580  1
  O  O222  1  0.50603522  0.36974891  0.25589360  1
  O  O223  1  0.50464487  0.36971636  0.75398312  1
  O  O224  1  0.50892082  0.87281911  0.25959819  1
  O  O225  1  0.50323797  0.87008455  0.75919382  1
  O  O226  1  0.49293544  0.13310677  0.25338323  1
  O  O227  1  0.49506311  0.12997768  0.74446782  1
  O  O228  1  0.49121574  0.62920717  0.24853964  1
  O  O229  1  0.49429701  0.63002100  0.74479452  1
  O  O230  1  0.99427858  0.12464162  0.24273024  1
  O  O231  1  0.98724028  0.11942937  0.73856013  1
  O  O232  1  0.99559743  0.62347920  0.23988439  1
  O  O233  1  0.98888053  0.62807189  0.74649928  1
  O  O234  1  0.37115081  0.25507064  0.00385381  1
  O  O235  1  0.37199355  0.25080457  0.50821870  1
  O  O236  1  0.36856744  0.75725508  0.00697396  1
  O  O237  1  0.36853497  0.75068089  0.50729904  1
  O  O238  1  0.87387641  0.24976848  0.01203709  1
  O  O239  1  0.87477601  0.25944883  0.51288534  1
  O  O240  1  0.86471410  0.75697438  0.00118293  1
  O  O241  1  0.86901522  0.75409986  0.50993185  1
  O  O242  1  0.12940380  0.23501579  0.49847868  1
  O  O243  1  0.13102913  0.24399979  0.99368192  1
  O  O244  1  0.13182549  0.74184650  0.49373083  1
  O  O245  1  0.13710562  0.76064163  0.99034256  1
  O  O246  1  0.61896940  0.24180892  0.49147750  1
  O  O247  1  0.62546614  0.24468815  0.98930085  1
  O  O248  1  0.63058853  0.74383298  0.49636697  1
  O  O249  1  0.63760449  0.75132371  0.99962716  1
  O  O250  1  0.49338138  0.24824585  0.13217416  1
  O  O251  1  0.49493107  0.24425637  0.63077122  1
  O  O252  1  0.48674937  0.74853769  0.12709560  1
  O  O253  1  0.49442306  0.74496334  0.63052882  1
  O  O254  1  0.99201422  0.24401879  0.12465940  1
  O  O255  1  0.98919967  0.23779687  0.62363669  1
  O  O256  1  1.00159891  0.73709972  0.12463557  1
  O  O257  1  0.98673454  0.74848998  0.62668158  1
  O  O258  1  0.00459716  0.25569895  0.36944638  1
  O  O259  1  0.01505013  0.24944548  0.88331062  1
  O  O260  1  0.00847721  0.75982912  0.36949002  1
  O  O261  1  0.00991492  0.75299443  0.87660247  1
  O  O262  1  0.50543524  0.25620012  0.36924147  1
  O  O263  1  0.50815713  0.25575081  0.86882109  1
  O  O264  1  0.50802458  0.75661576  0.37572935  1
  O  O265  1  0.49851283  0.76016595  0.86931014  1
  O  O266  1  0.24165181  0.12369314  0.49040448  1
  O  O267  1  0.24351819  0.13085742  0.99817348  1
  O  O268  1  0.24285156  0.62993073  0.49408997  1
  O  O269  1  0.25574678  0.63958297  0.99642177  1
  O  O270  1  0.74341356  0.11978181  0.48846438  1
  O  O271  1  0.73848678  0.13170392  0.99546345  1
  O  O272  1  0.74424249  0.63033327  0.49488009  1
  O  O273  1  0.75080678  0.63500815  0.99550519  1
  O  O274  1  0.25647575  0.36947097  0.00483407  1
  O  O275  1  0.25211439  0.37323959  0.50995095  1
  O  O276  1  0.26394862  0.86318684  -0.00506426  1
  O  O277  1  0.24942164  0.86826823  0.50540855  1
  O  O278  1  0.75257359  0.37121790  0.00964054  1
  O  O279  1  0.75784977  0.38083529  0.51104953  1
  O  O280  1  0.75474113  0.86965691  0.00544967  1
  O  O281  1  0.74791103  0.86785053  0.50887400  1
  O  O282  1  0.13156948  0.49178282  0.24057061  1
  O  O283  1  0.13737122  0.50029971  0.74831745  1
  O  O284  1  0.13309600  0.99358345  0.24411640  1
  O  O285  1  0.12565782  0.99201372  0.74148782  1
  O  O286  1  0.63059066  0.49446377  0.24541226  1
  O  O287  1  0.62816628  0.49403981  0.74430881  1
  O  O288  1  0.63879789  0.99401114  0.25369185  1
  O  O289  1  0.62923699  0.99634984  0.74606908  1
  O  O290  1  0.36683238  0.00375194  0.25565782  1
  O  O291  1  0.37335532  0.00501848  0.75963317  1
  O  O292  1  0.36974629  0.50515325  0.25399227  1
  O  O293  1  0.36588529  0.50348731  0.75453248  1
  O  O294  1  0.86545749  0.00641651  0.25392136  1
  O  O295  1  0.87052947  0.00806925  0.75389653  1
  O  O296  1  0.86905021  0.50465888  0.25584223  1
  O  O297  1  0.86627295  0.50656320  0.75447128  1
  O  O298  1  0.12802049  0.37396573  0.36252443  1
  O  O299  1  0.12462722  0.35845924  0.87422392  1
  O  O300  1  0.11699714  0.87188455  0.36652790  1
  O  O301  1  0.12549642  0.86774141  0.86551046  1
  O  O302  1  0.62092047  0.37100394  0.36991521  1
  O  O303  1  0.61960501  0.36790025  0.86903521  1
  O  O304  1  0.62238124  0.87022249  0.37207164  1
  O  O305  1  0.61417599  0.87626434  0.87099931  1
  O  O306  1  0.37473664  0.13220056  0.13160521  1
  O  O307  1  0.38071989  0.12821736  0.63021707  1
  O  O308  1  0.37652358  0.63492366  0.13184304  1
  O  O309  1  0.38037323  0.63030411  0.63062200  1
  O  O310  1  0.87904641  0.13228417  0.13001640  1
  O  O311  1  0.87954050  0.13136175  0.62904332  1
  O  O312  1  0.88594962  0.62361539  0.13187403  1
  O  O313  1  0.87046389  0.63555480  0.63029651  1
  O  O314  1  0.25652422  0.25558906  0.11866272  1
  O  O315  1  0.25549209  0.25832660  0.62592835  1
  O  O316  1  0.26142759  0.74694937  0.11652477  1
  O  O317  1  0.25485055  0.75542255  0.61991900  1
  O  O318  1  0.76091725  0.25648192  0.12725086  1
  O  O319  1  0.75692892  0.26203621  0.62930544  1
  O  O320  1  0.75300339  0.75635258  0.11604840  1
  O  O321  1  0.75683213  0.75538829  0.62169541  1
  O  O322  1  0.24846432  0.23548146  0.37347004  1
  O  O323  1  0.24011028  0.24739337  0.88171421  1
  O  O324  1  0.24518040  0.74441097  0.38015718  1
  O  O325  1  0.24314504  0.74720133  0.88192543  1
  O  O326  1  0.74346495  0.23759564  0.36701159  1
  O  O327  1  0.73651224  0.25030430  0.87201220  1
  O  O328  1  0.74582909  0.74524264  0.38126313  1
  O  O329  1  0.74844689  0.74605383  0.88474054  1
  O  O330  1  0.00649162  0.11690716  0.00699684  1
  O  O331  1  0.00888544  0.12773578  0.50957947  1
  O  O332  1  -0.00518690  0.61297017  0.01183507  1
  O  O333  1  0.01246175  0.62744763  0.49830870  1
  O  O334  1  0.51666712  0.13016371  0.00042506  1
  O  O335  1  0.50642084  0.11900008  0.50607334  1
  O  O336  1  0.50092752  0.61636948  0.00128191  1
  O  O337  1  0.50579065  0.61999634  0.50606721  1
  O  O338  1  0.49831640  0.38272133  0.49313381  1
  O  O339  1  0.49400281  0.37946117  0.99350581  1
  O  O340  1  0.49999782  0.88287611  0.49461102  1
  O  O341  1  0.48888138  0.86798579  0.98914365  1
  O  O342  1  0.98572197  0.37524038  0.50011240  1
  O  O343  1  0.99695273  0.38851303  0.99653973  1
  O  O344  1  1.00470170  0.87030881  0.48381930  1
  O  O345  1  0.99273442  0.88223002  1.00104429  1
  O  O346  1  0.49578858  0.49517212  0.37950563  1
  O  O347  1  0.49417511  0.49309211  0.87884704  1
  O  O348  1  0.49597508  0.99560185  0.38066977  1
  O  O349  1  0.48809398  0.98861249  0.87064575  1
  O  O350  1  0.99097033  0.49475128  0.37782966  1
  O  O351  1  0.99417412  0.50350521  0.88496935  1
  O  O352  1  1.00114160  0.98529632  0.37003242  1
  O  O353  1  0.99392915  0.99864799  0.88260438  1
  O  O354  1  0.00650709  0.00553429  0.11984024  1
  O  O355  1  0.01093506  0.00941933  0.62793794  1
  O  O356  1  0.00783851  0.50571069  0.11767784  1
  O  O357  1  0.00276463  0.50626574  0.61755163  1
  O  O358  1  0.50826467  0.00708474  0.13385440  1
  O  O359  1  0.50525255  0.00533949  0.62161220  1
  O  O360  1  0.50631488  0.49934097  0.11808051  1
  O  O361  1  0.50432519  0.50520448  0.62070698  1
  O  O362  1  0.24404141  0.38075409  0.24256213  1
  O  O363  1  0.24712058  0.38256772  0.74029493  1
  O  O364  1  0.23951284  0.88697779  0.25989424  1
  O  O365  1  0.23834542  0.87535625  0.74289001  1
  O  O366  1  0.74464097  0.38171389  0.24548003  1
  O  O367  1  0.74293016  0.38098544  0.73955369  1
  O  O368  1  0.74828159  0.88275643  0.24818046  1
  O  O369  1  0.74320011  0.88107521  0.74566441  1
  O  O370  1  0.25415758  0.11605042  0.25754605  1
  O  O371  1  0.25975704  0.12167986  0.75225837  1
  O  O372  1  0.25543448  0.61938834  0.25534334  1
  O  O373  1  0.25602955  0.61413471  0.74929831  1
  O  O374  1  0.75443900  0.11785080  0.25803909  1
  O  O375  1  0.76139526  0.11879549  0.74992542  1
  O  O376  1  0.75575364  0.61989978  0.25553111  1
  O  O377  1  0.75304112  0.61975266  0.75568250  1
  O  O378  1  0.36719496  0.11952190  0.37028063  1
  O  O379  1  0.37741904  0.11565482  0.87101974  1
  O  O380  1  0.36959104  0.62031485  0.36941982  1
  O  O381  1  0.37328016  0.61687634  0.86752261  1
  O  O382  1  0.86749489  0.12848625  0.37034376  1
  O  O383  1  0.87507938  0.12151933  0.86529662  1
  O  O384  1  0.86984074  0.62081142  0.37066370  1
  O  O385  1  0.86778101  0.61974295  0.86933726  1
  O  O386  1  0.13094774  0.38371013  0.13004869  1
  O  O387  1  0.13546659  0.37367043  0.62368486  1
  O  O388  1  0.11953570  0.88109706  0.13761759  1
  O  O389  1  0.12714379  0.88066340  0.63054175  1
  O  O390  1  0.63087396  0.37930062  0.13183104  1
  O  O391  1  0.63021922  0.37862064  0.62833366  1
  O  O392  1  0.63325833  0.87524717  0.13337658  1
  O  O393  1  0.62872125  0.88160035  0.63233666  1
  O  O394  1  0.12644778  0.26171789  0.24724043  1
  O  O395  1  0.12833798  0.24593343  0.76517938  1
  O  O396  1  0.12817393  0.75967643  0.25418223  1
  O  O397  1  0.12459641  0.75846260  0.75763249  1
  O  O398  1  0.62011870  0.25583190  0.25667555  1
  O  O399  1  0.61908063  0.25383466  0.75698396  1
  O  O400  1  0.62685170  0.75690352  0.25808816  1
  O  O401  1  0.61717710  0.75821131  0.75173384  1
  O  O402  1  0.37956179  0.24487777  0.24451470  1
  O  O403  1  0.38068871  0.24395897  0.74567298  1
  O  O404  1  0.37296579  0.74661802  0.24160036  1
  O  O405  1  0.37847366  0.74515980  0.74489456  1
  O  O406  1  0.87741292  0.24443070  0.23902392  1
  O  O407  1  0.86888758  0.23963803  0.73827980  1
  O  O408  1  0.87841666  0.74062785  0.24541408  1
  O  O409  1  0.87316462  0.74497374  0.74211423  1
  O  O410  1  0.38140748  0.50015252  0.49237375  1
  O  O411  1  0.37876487  0.49317207  0.99433964  1
  O  O412  1  0.38189434  0.99968588  0.49388840  1
  O  O413  1  0.36863365  0.99010766  0.99168113  1
  O  O414  1  0.87357855  0.49035197  0.49442164  1
  O  O415  1  0.88299504  0.49830079  0.99360552  1
  O  O416  1  0.87391784  0.99257721  0.49859177  1
  O  O417  1  0.87896402  0.99743938  0.99516846  1
  O  O418  1  0.12213054  0.00232286  0.00418376  1
  O  O419  1  0.12925982  0.01010648  0.50988260  1
  O  O420  1  0.11833013  0.49424670  0.01019465  1
  O  O421  1  0.12563187  0.51203993  0.49925274  1
  O  O422  1  0.63145730  0.01579702  -0.00072707  1
  O  O423  1  0.61983176  0.00780704  0.50728929  1
  O  O424  1  0.61790965  0.49943804  0.00624209  1
  O  O425  1  0.61926814  0.50605579  0.50525713  1
  O  O426  1  0.36973657  0.36979113  0.11933424  1
  O  O427  1  0.36543628  0.36829714  0.62388150  1
  O  O428  1  0.38062897  0.86698831  0.11601948  1
  O  O429  1  0.36796032  0.86940112  0.62432324  1
  O  O430  1  0.87093811  0.36637879  0.12600540  1
  O  O431  1  0.86666628  0.36901808  0.61947688  1
  O  O432  1  0.86897063  0.87499343  0.11942557  1
  O  O433  1  0.86888839  0.86569105  0.62850585  1
  O  O434  1  0.13227270  0.12137889  0.38185971  1
  O  O435  1  0.12540452  0.13369604  0.88045294  1
  O  O436  1  0.13092680  0.62921165  0.37977583  1
  O  O437  1  0.12629808  0.63927019  0.86857498  1
  O  O438  1  0.63258517  0.13018573  0.38005223  1
  O  O439  1  0.62433878  0.13330596  0.88310256  1
  O  O440  1  0.63111502  0.63016288  0.38049319  1
  O  O441  1  0.63274317  0.62863753  0.87848174  1
