# generated using pymatgen
data_V93Zn93O256
_symmetry_space_group_name_H-M   'P 1'
_cell_length_a   17.04988329
_cell_length_b   17.04668012
_cell_length_c   17.04976719
_cell_angle_alpha   89.97218218
_cell_angle_beta   89.93837396
_cell_angle_gamma   90.03198627
_symmetry_Int_Tables_number   1
_chemical_formula_structural   V93Zn93O256
_chemical_formula_sum   'V93 Zn93 O256'
_cell_volume   4955.40671402
_cell_formula_units_Z   1
loop_
 _symmetry_equiv_pos_site_id
 _symmetry_equiv_pos_as_xyz
  1  'x, y, z'
loop_
 _atom_site_type_symbol
 _atom_site_label
 _atom_site_symmetry_multiplicity
 _atom_site_fract_x
 _atom_site_fract_y
 _atom_site_fract_z
 _atom_site_occupancy
  V  V0  1  0.87630095  0.87605542  0.49891366  1
  V  V1  1  0.62500789  0.24832581  0.87694404  1
  V  V2  1  0.37179596  0.24381645  0.13023079  1
  V  V3  1  0.12571076  0.49907484  0.12629605  1
  V  V4  1  0.74976513  0.37503920  0.62567142  1
  V  V5  1  0.37463940  0.62428580  0.74880742  1
  V  V6  1  0.12598453  0.00100434  0.62372570  1
  V  V7  1  0.37591938  0.24963105  0.62626857  1
  V  V8  1  0.62623297  0.74865741  0.87560891  1
  V  V9  1  0.49890698  0.74959837  0.24852369  1
  V  V10  1  0.50165769  0.62541035  0.62419949  1
  V  V11  1  0.37637674  0.75218595  0.62436211  1
  V  V12  1  0.87305660  0.37423009  0.00139223  1
  V  V13  1  0.24921919  0.24806220  0.49887160  1
  V  V14  1  0.75175629  0.75175765  0.49808886  1
  V  V15  1  0.75467217  0.12549316  0.37006621  1
  V  V16  1  0.62503219  0.50028433  0.62587677  1
  V  V17  1  0.87681405  0.00344877  0.37063999  1
  V  V18  1  0.62805395  -0.00495491  0.12433601  1
  V  V19  1  0.62489274  0.37465155  0.75023477  1
  V  V20  1  0.75356267  -0.00145839  0.24752462  1
  V  V21  1  0.00120542  0.50113606  0.50001450  1
  V  V22  1  0.12986887  0.63076580  -0.00287698  1
  V  V23  1  0.49627932  -0.00451692  0.00061015  1
  V  V24  1  0.37537638  0.87529648  0.49937683  1
  V  V25  1  0.50062618  0.49895942  0.00169643  1
  V  V26  1  0.12590446  0.62611256  0.49890197  1
  V  V27  1  0.74893273  0.37376935  0.12716497  1
  V  V28  1  0.87349156  0.50019473  0.87563129  1
  V  V29  1  0.49938484  0.37548541  0.37503479  1
  V  V30  1  0.75023190  -0.00096563  0.75001454  1
  V  V31  1  0.87506607  0.62519485  0.75134019  1
  V  V32  1  -0.00470795  0.24414538  0.25025397  1
  V  V33  1  0.87213646  0.75275911  0.12506577  1
  V  V34  1  0.87537540  0.50080597  0.37664390  1
  V  V35  1  0.12759605  0.75573336  0.37121924  1
  V  V36  1  0.87254798  0.87375756  0.00315261  1
  V  V37  1  0.25060025  0.62643957  0.37375360  1
  V  V38  1  0.00118026  0.87491648  0.87471741  1
  V  V39  1  0.12248485  0.12252374  0.00127029  1
  V  V40  1  0.87553171  0.75148529  0.62457775  1
  V  V41  1  0.49887684  0.62432576  0.12423979  1
  V  V42  1  0.37406867  0.62666928  0.24987728  1
  V  V43  1  0.62447065  0.24851870  0.37556108  1
  V  V44  1  0.00111351  0.75179809  0.75033933  1
  V  V45  1  0.49912151  0.24938555  0.75056974  1
  V  V46  1  0.37406706  0.00745175  0.36589561  1
  V  V47  1  0.00143235  0.00198432  0.49876029  1
  V  V48  1  0.50035971  0.50095537  0.50010909  1
  V  V49  1  -0.00076534  -0.00068873  0.00027115  1
  V  V50  1  0.25108207  0.87645834  0.62541500  1
  V  V51  1  0.87622545  0.12484341  0.75016500  1
  V  V52  1  0.62587271  0.00036085  0.62465001  1
  V  V53  1  0.12383061  0.37359932  0.25023212  1
  V  V54  1  0.74992677  0.25011023  0.49987974  1
  V  V55  1  0.00377053  0.87711150  0.37293200  1
  V  V56  1  0.37583972  0.50168422  0.37466083  1
  V  V57  1  0.00306165  0.75544822  0.25014518  1
  V  V58  1  0.87398472  0.24100876  0.12942059  1
  V  V59  1  -0.00089940  0.62558395  0.12589245  1
  V  V60  1  0.12556671  0.87598091  0.74938987  1
  V  V61  1  0.49977114  0.87468517  0.37319462  1
  V  V62  1  0.74773210  0.24818515  0.00092310  1
  V  V63  1  0.87511810  0.25042038  0.62563672  1
  V  V64  1  0.37338415  -0.00110610  0.87657980  1
  V  V65  1  0.24957766  0.37600789  0.62598310  1
  V  V66  1  -0.00213885  0.49924482  0.00151504  1
  V  V67  1  0.00099881  0.12611664  0.62385043  1
  V  V68  1  0.62510984  0.37385317  0.25046294  1
  V  V69  1  0.24883592  0.25007621  0.00088631  1
  V  V70  1  0.37418954  0.37299107  0.00159076  1
  V  V71  1  0.37261001  0.75247085  0.10999694  1
  V  V72  1  0.12321424  0.25038076  0.87615572  1
  V  V73  1  0.49670189  0.24689367  0.25079108  1
  V  V74  1  -0.00058218  0.37595938  0.37555462  1
  V  V75  1  0.24941718  0.50303279  0.75289335  1
  V  V76  1  0.74990873  0.62638419  0.37504926  1
  V  V77  1  0.87446196  0.62572368  0.25015087  1
  V  V78  1  0.62788392  0.87443959  0.24711983  1
  V  V79  1  0.49402507  0.87379884  0.87700841  1
  V  V80  1  0.50128962  0.00187213  0.50067420  1
  V  V81  1  0.62614181  0.75030392  0.37372087  1
  V  V82  1  0.74951104  0.49904026  0.25062090  1
  V  V83  1  0.87378040  -0.00060716  0.87571260  1
  V  V84  1  0.74929901  0.75303804  0.00487203  1
  V  V85  1  0.49889164  0.37347308  0.87665296  1
  V  V86  1  -0.00062902  0.37294702  0.87601450  1
  V  V87  1  0.49521863  0.12171434  0.13006039  1
  V  V88  1  0.25162775  0.86971817  0.11710628  1
  V  V89  1  0.12435250  -0.00745017  0.13126574  1
  V  V90  1  0.25017293  0.12445279  0.87496595  1
  V  V91  1  0.12590409  0.50200005  0.62439158  1
  V  V92  1  0.50160103  0.75004297  0.74919192  1
  Zn  Zn93  1  0.12432868  0.24742374  0.37567098  1
  Zn  Zn94  1  0.25133256  0.00169000  0.74896256  1
  Zn  Zn95  1  0.74857254  0.12391298  0.87757555  1
  Zn  Zn96  1  0.25222563  0.13235739  0.36169972  1
  Zn  Zn97  1  0.37514599  0.12485686  0.75076507  1
  Zn  Zn98  1  0.25826400  0.63294102  0.88298059  1
  Zn  Zn99  1  0.62703492  0.62311801  0.00201619  1
  Zn  Zn100  1  -0.00199257  0.11919515  0.13000578  1
  Zn  Zn101  1  0.00152562  0.62604854  0.62474444  1
  Zn  Zn102  1  0.12328944  0.37576107  0.75161427  1
  Zn  Zn103  1  0.25069639  0.49877926  0.25145583  1
  Zn  Zn104  1  0.13165423  0.75598725  0.87864668  1
  Zn  Zn105  1  0.87578621  0.37680403  0.50229736  1
  Zn  Zn106  1  0.25069500  0.75152551  0.49893496  1
  Zn  Zn107  1  0.62516384  0.50010598  0.12609751  1
  Zn  Zn108  1  0.74961629  0.50050471  0.75121990  1
  Zn  Zn109  1  0.74901670  0.62333436  0.87638838  1
  Zn  Zn110  1  0.12788122  0.12505557  0.49775448  1
  Zn  Zn111  1  0.50069129  0.12587370  0.62665323  1
  Zn  Zn112  1  0.00130144  0.25159391  0.74934345  1
  Zn  Zn113  1  0.25015566  0.37361408  0.12626081  1
  Zn  Zn114  1  0.62499618  0.12273163  -0.00098042  1
  Zn  Zn115  1  0.37318487  0.49944726  0.87584635  1
  Zn  Zn116  1  0.62603830  0.12517385  0.49957429  1
  Zn  Zn117  1  0.62665223  0.62684032  0.50090176  1
  Zn  Zn118  1  0.37470236  0.37616513  0.49868659  1
  Zn  Zn119  1  0.25021977  0.00189615  0.24495237  1
  Zn  Zn120  1  0.62631139  0.87464261  0.74951156  1
  Zn  Zn121  1  0.75084393  0.87558972  0.62320578  1
  Zn  Zn122  1  0.18617891  0.18010512  0.18815554  1
  Zn  Zn123  1  0.18693317  0.18700318  0.68979232  1
  Zn  Zn124  1  0.18882686  0.68857244  0.18724766  1
  Zn  Zn125  1  0.18868330  0.68993038  0.68802219  1
  Zn  Zn126  1  0.68360218  0.18337904  0.18751986  1
  Zn  Zn127  1  0.68761969  0.18621201  0.68841083  1
  Zn  Zn128  1  0.68590022  0.68538770  0.18602603  1
  Zn  Zn129  1  0.68977260  0.68777178  0.68705624  1
  Zn  Zn130  1  0.31211115  0.31502215  0.31203593  1
  Zn  Zn131  1  0.31112252  0.31369906  0.81341912  1
  Zn  Zn132  1  0.30954318  0.81957827  0.30229546  1
  Zn  Zn133  1  0.31008710  0.81121402  0.81279162  1
  Zn  Zn134  1  0.81398885  0.31330029  0.31399573  1
  Zn  Zn135  1  0.81142228  0.31150486  0.81251628  1
  Zn  Zn136  1  0.81451856  0.81620068  0.31189942  1
  Zn  Zn137  1  0.81231702  0.81301002  0.81468575  1
  Zn  Zn138  1  0.18896640  0.43649275  0.43748890  1
  Zn  Zn139  1  0.18692809  0.43836620  0.93818429  1
  Zn  Zn140  1  0.19029444  0.93770244  0.43843162  1
  Zn  Zn141  1  0.18893603  0.93525300  0.94169423  1
  Zn  Zn142  1  0.68676941  0.43745423  0.43941074  1
  Zn  Zn143  1  0.68748201  0.43547960  0.93723311  1
  Zn  Zn144  1  0.68852969  0.93701681  0.43476239  1
  Zn  Zn145  1  0.68527487  0.93421612  0.93769992  1
  Zn  Zn146  1  0.30934434  0.05996076  0.06039245  1
  Zn  Zn147  1  0.31390423  0.06381213  0.56047331  1
  Zn  Zn148  1  0.31312344  0.56160176  0.06544589  1
  Zn  Zn149  1  0.31254582  0.56453623  0.56146127  1
  Zn  Zn150  1  0.81077071  0.06210040  0.06133712  1
  Zn  Zn151  1  0.81356558  0.06463132  0.55984567  1
  Zn  Zn152  1  0.81017626  0.56482915  0.06255588  1
  Zn  Zn153  1  0.81245955  0.56396117  0.56356651  1
  Zn  Zn154  1  0.43648872  0.43518742  0.18795700  1
  Zn  Zn155  1  0.43674045  0.43662082  0.68752940  1
  Zn  Zn156  1  0.43628482  0.93062843  0.18489376  1
  Zn  Zn157  1  0.43829865  0.93690902  0.69062143  1
  Zn  Zn158  1  0.93605720  0.43469147  0.18805720  1
  Zn  Zn159  1  0.93874006  0.43766208  0.68796181  1
  Zn  Zn160  1  0.93592354  0.93615700  0.18609383  1
  Zn  Zn161  1  0.93847309  0.93814050  0.68606488  1
  Zn  Zn162  1  0.06778941  0.06619884  0.31528040  1
  Zn  Zn163  1  0.06244641  0.06225704  0.81148915  1
  Zn  Zn164  1  0.06234643  0.56518170  0.31326635  1
  Zn  Zn165  1  0.05985307  0.56100358  0.81297486  1
  Zn  Zn166  1  0.56512516  0.06282212  0.31159037  1
  Zn  Zn167  1  0.56221901  0.06487718  0.81157820  1
  Zn  Zn168  1  0.56301476  0.56314737  0.31190498  1
  Zn  Zn169  1  0.56070358  0.56139348  0.81296690  1
  Zn  Zn170  1  0.43707412  0.18755469  0.44035872  1
  Zn  Zn171  1  0.43765911  0.18437466  0.94129624  1
  Zn  Zn172  1  0.43855219  0.68786884  0.43805808  1
  Zn  Zn173  1  0.44002721  0.68248668  0.93364836  1
  Zn  Zn174  1  0.93679869  0.18899471  0.43823729  1
  Zn  Zn175  1  0.93581471  0.18591192  0.93901339  1
  Zn  Zn176  1  0.93937814  0.68769285  0.43725609  1
  Zn  Zn177  1  0.94053061  0.68785072  0.93673966  1
  Zn  Zn178  1  0.05989484  0.31050179  0.06354855  1
  Zn  Zn179  1  0.06396303  0.31457619  0.56343962  1
  Zn  Zn180  1  0.06149272  0.81455727  0.06401630  1
  Zn  Zn181  1  0.06290112  0.81300922  0.56148537  1
  Zn  Zn182  1  0.56181432  0.31109068  0.06413669  1
  Zn  Zn183  1  0.56280244  0.31418248  0.56139464  1
  Zn  Zn184  1  0.56096099  0.81196057  0.06152604  1
  Zn  Zn185  1  0.56471429  0.81471207  0.56109303  1
  O  O186  1  0.12137443  0.11371776  0.11590627  1
  O  O187  1  0.11923000  0.11890161  0.62249645  1
  O  O188  1  0.11958377  0.61732753  0.11840772  1
  O  O189  1  0.12485310  0.62026461  0.61719746  1
  O  O190  1  0.61312497  0.11236145  0.12365669  1
  O  O191  1  0.62370582  0.11204392  0.62190703  1
  O  O192  1  0.61469757  0.62101476  0.12282815  1
  O  O193  1  0.61905248  0.61942460  0.62484681  1
  O  O194  1  0.38271168  0.38350891  0.37435323  1
  O  O195  1  0.38127026  0.37548219  0.88378919  1
  O  O196  1  0.38224676  0.88307647  0.37950312  1
  O  O197  1  0.38656621  0.88274482  0.86963774  1
  O  O198  1  0.88144518  0.38353211  0.37720777  1
  O  O199  1  0.87882039  0.37936823  0.88230989  1
  O  O200  1  0.88372499  0.88251564  0.37975118  1
  O  O201  1  0.88144671  0.88016406  0.88200894  1
  O  O202  1  0.26828865  -0.00336116  0.37546388  1
  O  O203  1  0.26042655  0.00398344  0.87845399  1
  O  O204  1  0.25701605  0.50734969  0.37357321  1
  O  O205  1  0.25009270  0.50479467  0.86450407  1
  O  O206  1  0.75482564  0.00752214  0.36787209  1
  O  O207  1  0.75415656  -0.00115770  0.86658067  1
  O  O208  1  0.75496144  0.50583467  0.37052770  1
  O  O209  1  0.75722544  0.50228641  0.87336004  1
  O  O210  1  0.23700518  0.49744230  0.12853463  1
  O  O211  1  0.24613992  0.49587092  0.63163834  1
  O  O212  1  0.24144412  0.99018963  0.12025719  1
  O  O213  1  0.24538517  0.99461941  0.62434251  1
  O  O214  1  0.74956058  0.49264933  0.13231411  1
  O  O215  1  0.74324748  0.49412038  0.62684196  1
  O  O216  1  0.73826411  1.00822820  0.13452185  1
  O  O217  1  0.74371702  0.99997046  0.63171577  1
  O  O218  1  0.00665902  0.36846568  0.25499613  1
  O  O219  1  0.00181811  0.37364041  0.76074790  1
  O  O220  1  -0.00636841  0.86173193  0.25583513  1
  O  O221  1  0.00450215  0.87149755  0.75533865  1
  O  O222  1  0.50538680  0.36763209  0.25569123  1
  O  O223  1  0.50494284  0.36927056  0.75646446  1
  O  O224  1  0.50723777  0.86823118  0.25411063  1
  O  O225  1  0.50369574  0.86881293  0.76008493  1
  O  O226  1  0.50429919  0.12960119  0.23771736  1
  O  O227  1  0.49671639  0.13424104  0.74701734  1
  O  O228  1  0.49439102  0.63058004  0.24412828  1
  O  O229  1  0.49481959  0.63012387  0.74361905  1
  O  O230  1  1.00503300  0.14078197  0.24967317  1
  O  O231  1  0.99305555  0.12566167  0.74224568  1
  O  O232  1  0.99346724  0.63461571  0.24637759  1
  O  O233  1  0.99052355  0.63155929  0.74946845  1
  O  O234  1  0.36986862  0.25365211  0.00967262  1
  O  O235  1  0.36899489  0.25308948  0.50972316  1
  O  O236  1  0.37942421  0.74125025  0.01165306  1
  O  O237  1  0.37618565  0.75795596  0.50621275  1
  O  O238  1  0.86856971  0.25508996  0.00915958  1
  O  O239  1  0.86756171  0.25292210  0.50753894  1
  O  O240  1  0.86828348  0.75334490  0.00387516  1
  O  O241  1  0.87182912  0.75585283  0.50351430  1
  O  O242  1  0.13717220  0.25081893  0.49981336  1
  O  O243  1  0.12892715  0.24376767  0.99679596  1
  O  O244  1  0.12561823  0.74506036  0.48783823  1
  O  O245  1  0.11798611  0.73279281  1.00278978  1
  O  O246  1  0.63114550  0.24863498  0.49321800  1
  O  O247  1  0.63006950  0.24922929  0.99510188  1
  O  O248  1  0.63267773  0.75115641  0.49158009  1
  O  O249  1  0.63204645  0.75030677  0.99297386  1
  O  O250  1  0.49222548  0.24029994  0.12904006  1
  O  O251  1  0.49160361  0.25146669  0.62981811  1
  O  O252  1  0.49224536  0.74568810  0.12882293  1
  O  O253  1  0.49716690  0.74664314  0.62961527  1
  O  O254  1  0.98975111  0.24922107  0.13265283  1
  O  O255  1  0.99357322  0.24487872  0.62575415  1
  O  O256  1  0.99495304  0.74551158  0.13353320  1
  O  O257  1  0.99294785  0.74949594  0.63134306  1
  O  O258  1  -0.00115731  0.25755377  0.36678211  1
  O  O259  1  0.00483853  0.25587686  0.87663968  1
  O  O260  1  0.00726564  0.75534270  0.36798133  1
  O  O261  1  0.00464159  0.75773193  0.86854152  1
  O  O262  1  0.50348846  0.25405952  0.37064644  1
  O  O263  1  0.50415275  0.25463161  0.87205092  1
  O  O264  1  0.50589449  0.75491200  0.36862701  1
  O  O265  1  0.50590884  0.75658970  0.87119437  1
  O  O266  1  0.25172945  0.13899156  0.49878451  1
  O  O267  1  0.24280655  0.13050916  0.99395753  1
  O  O268  1  0.24466071  0.62970854  0.49191277  1
  O  O269  1  0.23307321  0.61712059  1.00174136  1
  O  O270  1  0.74783034  0.13059105  0.48869225  1
  O  O271  1  0.74561844  0.13280592  0.99845037  1
  O  O272  1  0.74983887  0.63335424  0.49248676  1
  O  O273  1  0.74765791  0.63661612  0.99576525  1
  O  O274  1  0.25535240  0.36847993  0.00278678  1
  O  O275  1  0.25281452  0.36684732  0.50725250  1
  O  O276  1  0.25123103  0.87575767  0.01591941  1
  O  O277  1  0.25818424  0.87300658  0.50731531  1
  O  O278  1  0.75408947  0.36819675  0.00754489  1
  O  O279  1  0.75119555  0.36813550  0.50717544  1
  O  O280  1  0.75688712  0.86181750  -0.00612847  1
  O  O281  1  0.75884703  0.86977706  0.49767538  1
  O  O282  1  0.12112536  0.49247157  0.24136641  1
  O  O283  1  0.13393898  0.50204076  0.74433648  1
  O  O284  1  0.11846510  1.00244148  0.23305281  1
  O  O285  1  0.12585731  0.99338704  0.74164622  1
  O  O286  1  0.63156489  0.49210019  0.25010378  1
  O  O287  1  0.62510669  0.49293990  0.74465998  1
  O  O288  1  0.63081776  0.99391953  0.24281517  1
  O  O289  1  0.63297713  0.99989840  0.74260969  1
  O  O290  1  0.38485166  -0.00334858  0.26565775  1
  O  O291  1  0.37563800  0.00300225  0.76372806  1
  O  O292  1  0.37457481  0.50761332  0.25557598  1
  O  O293  1  0.36578277  0.50513900  0.74929603  1
  O  O294  1  0.86337010  -0.00608263  0.25481475  1
  O  O295  1  0.86801052  0.00404446  0.75457766  1
  O  O296  1  0.86996810  0.50560347  0.25586624  1
  O  O297  1  0.87537883  0.51017379  0.75583370  1
  O  O298  1  0.11852509  0.37528705  0.36432836  1
  O  O299  1  0.11667947  0.36886110  0.87781069  1
  O  O300  1  0.12017123  0.86397200  0.37924061  1
  O  O301  1  0.11839999  0.87756553  0.86870558  1
  O  O302  1  0.61965365  0.36833087  0.36955868  1
  O  O303  1  0.61834984  0.36808247  0.87001056  1
  O  O304  1  0.61918045  0.86989112  0.36774600  1
  O  O305  1  0.61467686  0.86442930  0.87344077  1
  O  O306  1  0.38400150  0.13293441  0.11694685  1
  O  O307  1  0.37681570  0.13814081  0.62691347  1
  O  O308  1  0.37880129  0.63215842  0.13078948  1
  O  O309  1  0.38211158  0.63182376  0.62925494  1
  O  O310  1  0.87628357  0.13768984  0.12205408  1
  O  O311  1  0.88063582  0.13007622  0.62993095  1
  O  O312  1  0.88021166  0.63140654  0.13108829  1
  O  O313  1  0.87707680  0.63165126  0.63533514  1
  O  O314  1  0.25739900  0.24852202  0.11917422  1
  O  O315  1  0.25721623  0.25543546  0.62030173  1
  O  O316  1  0.25700167  0.76105294  0.12992421  1
  O  O317  1  0.25898783  0.75816077  0.62359856  1
  O  O318  1  0.75538011  0.25315933  0.12349289  1
  O  O319  1  0.75427645  0.25424887  0.61991229  1
  O  O320  1  0.75595036  0.74401061  0.11406871  1
  O  O321  1  0.75687273  0.75336568  0.61737383  1
  O  O322  1  0.25164051  0.25215261  0.38630288  1
  O  O323  1  0.24427110  0.24495839  0.88190551  1
  O  O324  1  0.24126158  0.74755922  0.37143526  1
  O  O325  1  0.24247428  0.74290789  0.86709823  1
  O  O326  1  0.74583887  0.24319407  0.37776424  1
  O  O327  1  0.74281969  0.24978984  0.88292431  1
  O  O328  1  0.74631986  0.74580026  0.37759508  1
  O  O329  1  0.74059875  0.74908465  0.88238660  1
  O  O330  1  0.00484044  0.11622372  0.00174195  1
  O  O331  1  0.00039577  0.11895050  0.50619224  1
  O  O332  1  0.00660033  0.61831872  0.00737799  1
  O  O333  1  0.00778107  0.61879634  0.50033667  1
  O  O334  1  0.50300741  0.11298901  0.01002771  1
  O  O335  1  0.50335755  0.11242183  0.50235812  1
  O  O336  1  0.50066003  0.61322132  0.00525161  1
  O  O337  1  0.50302292  0.61963526  0.50670917  1
  O  O338  1  0.49855354  0.38242019  0.49214617  1
  O  O339  1  0.49443756  0.38062697  0.99742032  1
  O  O340  1  0.49638380  0.88433117  0.49391996  1
  O  O341  1  0.50407887  0.88493205  0.98940334  1
  O  O342  1  0.99996528  0.38315198  0.49294110  1
  O  O343  1  0.99228813  0.37979920  0.99661278  1
  O  O344  1  0.99549678  0.88211536  0.49262488  1
  O  O345  1  0.99336425  0.87941673  0.99394177  1
  O  O346  1  0.49574335  0.49610579  0.37986234  1
  O  O347  1  0.49853200  0.49242525  0.88532550  1
  O  O348  1  0.49501760  0.99606120  0.38254915  1
  O  O349  1  0.49533047  0.99347447  0.88127133  1
  O  O350  1  0.99492126  0.49646013  0.37942892  1
  O  O351  1  0.99301272  0.49306775  0.88239264  1
  O  O352  1  0.99656909  0.99665775  0.37773960  1
  O  O353  1  0.99297224  0.99436025  0.88038708  1
  O  O354  1  0.00552122  -0.00189914  0.11819954  1
  O  O355  1  0.00543239  0.00564496  0.61793536  1
  O  O356  1  0.00629750  0.50475655  0.12209640  1
  O  O357  1  0.00762855  0.50200521  0.61836482  1
  O  O358  1  0.50303736  0.00318001  0.11880024  1
  O  O359  1  0.50719448  -0.00069771  0.61700903  1
  O  O360  1  0.49923762  0.50400994  0.11657003  1
  O  O361  1  0.50494962  0.50502221  0.62043297  1
  O  O362  1  0.23610537  0.37691687  0.24763922  1
  O  O363  1  0.24872231  0.38708752  0.74558576  1
  O  O364  1  0.25385669  0.88676612  0.23081097  1
  O  O365  1  0.24395840  0.87952489  0.74213977  1
  O  O366  1  0.74480882  0.37974088  0.24692542  1
  O  O367  1  0.74231822  0.37592272  0.74359406  1
  O  O368  1  0.74222952  0.88844012  0.25677441  1
  O  O369  1  0.74999320  0.88798325  0.74795344  1
  O  O370  1  0.25143785  0.11505354  0.24984004  1
  O  O371  1  0.25287355  0.12155403  0.76008313  1
  O  O372  1  0.25595807  0.62293551  0.25602419  1
  O  O373  1  0.25655400  0.61443142  0.74586078  1
  O  O374  1  0.74228795  0.11312095  0.26083293  1
  O  O375  1  0.75634407  0.11314117  0.75103791  1
  O  O376  1  0.75537373  0.61967523  0.25500086  1
  O  O377  1  0.76334719  0.62510489  0.75364998  1
  O  O378  1  0.37647451  0.10960997  0.38000852  1
  O  O379  1  0.36912772  0.11624420  0.87621100  1
  O  O380  1  0.37067972  0.62192740  0.36931220  1
  O  O381  1  0.37525919  0.61954080  0.86481214  1
  O  O382  1  0.86292084  0.11994283  0.37777910  1
  O  O383  1  0.87245463  0.11666112  0.86902888  1
  O  O384  1  0.86987028  0.62094631  0.36893639  1
  O  O385  1  0.87659397  0.61977806  0.86643493  1
  O  O386  1  0.12191917  0.38377063  0.13254711  1
  O  O387  1  0.13232294  0.38405297  0.62818723  1
  O  O388  1  0.13616332  0.88073533  0.11984438  1
  O  O389  1  0.13052685  0.88118150  0.62888247  1
  O  O390  1  0.63107678  0.37414804  0.13343733  1
  O  O391  1  0.62949705  0.38021672  0.63129308  1
  O  O392  1  0.61738566  0.88765577  0.13056123  1
  O  O393  1  0.62814419  0.88790553  0.62715777  1
  O  O394  1  0.11523368  0.26102024  0.24708189  1
  O  O395  1  0.12301190  0.25362204  0.76038948  1
  O  O396  1  0.11306848  0.74239854  0.25919454  1
  O  O397  1  0.11647868  0.75846481  0.74768950  1
  O  O398  1  0.61779166  0.25416152  0.25603249  1
  O  O399  1  0.61928031  0.25523670  0.75537394  1
  O  O400  1  0.62004369  0.75496682  0.25344646  1
  O  O401  1  0.62094323  0.75131362  0.75877189  1
  O  O402  1  0.38006111  0.25533922  0.23755585  1
  O  O403  1  0.38004716  0.25124058  0.74180569  1
  O  O404  1  0.38211755  0.74472620  0.24280345  1
  O  O405  1  0.38322027  0.74517547  0.74329498  1
  O  O406  1  0.88356736  0.25779603  0.24016822  1
  O  O407  1  0.87537855  0.24224281  0.74364093  1
  O  O408  1  0.88184404  0.74520315  0.24613521  1
  O  O409  1  0.88016245  0.74444420  0.74643320  1
  O  O410  1  0.38238844  0.49974381  0.49326801  1
  O  O411  1  0.38407448  0.49315576  1.00115534  1
  O  O412  1  0.38558468  0.99480740  0.49351053  1
  O  O413  1  0.38646864  1.00343103  0.98930046  1
  O  O414  1  0.88221143  0.50083543  0.49387861  1
  O  O415  1  0.87864181  0.49466516  0.99680600  1
  O  O416  1  0.88168590  0.99586865  0.49201495  1
  O  O417  1  0.87801409  0.99363338  0.99605643  1
  O  O418  1  0.11720129  0.00326702  0.00686695  1
  O  O419  1  0.11876345  0.00030633  0.50585210  1
  O  O420  1  0.11755734  0.50556062  0.01017063  1
  O  O421  1  0.12125928  0.50642011  0.50385895  1
  O  O422  1  0.61679902  -0.00158756  0.00816496  1
  O  O423  1  0.61723066  -0.00173387  0.50615617  1
  O  O424  1  0.61252837  0.49835387  0.00242971  1
  O  O425  1  0.61836952  0.50278048  0.50730486  1
  O  O426  1  0.37361699  0.36299321  0.11973404  1
  O  O427  1  0.36905742  0.36474507  0.62414358  1
  O  O428  1  0.36570863  0.86547946  0.12344363  1
  O  O429  1  0.37201442  0.87169112  0.62024543  1
  O  O430  1  0.86837219  0.36634648  0.12015666  1
  O  O431  1  0.86805922  0.36916591  0.62514111  1
  O  O432  1  0.87997570  0.86511533  0.11494300  1
  O  O433  1  0.87480730  0.86990578  0.61651062  1
  O  O434  1  0.13314105  0.13001242  0.38092914  1
  O  O435  1  0.12968167  0.12885510  0.88165453  1
  O  O436  1  0.13050142  0.63409995  0.37898768  1
  O  O437  1  0.12025714  0.62150642  0.89284363  1
  O  O438  1  0.63460359  0.13046172  0.37673494  1
  O  O439  1  0.62680486  0.13323350  0.87767576  1
  O  O440  1  0.63215222  0.63292838  0.37512880  1
  O  O441  1  0.62244852  0.63830021  0.87727964  1
