# generated using pymatgen
data_V93Zn93O256
_symmetry_space_group_name_H-M   'P 1'
_cell_length_a   17.05447013
_cell_length_b   17.05311850
_cell_length_c   17.05389295
_cell_angle_alpha   89.95711427
_cell_angle_beta   90.05455186
_cell_angle_gamma   89.94873558
_symmetry_Int_Tables_number   1
_chemical_formula_structural   V93Zn93O256
_chemical_formula_sum   'V93 Zn93 O256'
_cell_volume   4959.81046453
_cell_formula_units_Z   1
loop_
 _symmetry_equiv_pos_site_id
 _symmetry_equiv_pos_as_xyz
  1  'x, y, z'
loop_
 _atom_site_type_symbol
 _atom_site_label
 _atom_site_symmetry_multiplicity
 _atom_site_fract_x
 _atom_site_fract_y
 _atom_site_fract_z
 _atom_site_occupancy
  V  V0  1  0.62173272  0.25421835  0.37626958  1
  V  V1  1  0.12206734  0.87041798  0.25040365  1
  V  V2  1  0.74997613  0.75142803  -0.00073319  1
  V  V3  1  0.12586022  0.37472380  0.75043643  1
  V  V4  1  0.12591702  0.12348025  0.50144853  1
  V  V5  1  0.37535145  0.49849408  0.87456451  1
  V  V6  1  0.49949486  0.75110840  0.74885503  1
  V  V7  1  0.24911169  0.49826664  0.74951763  1
  V  V8  1  0.37553772  0.24948992  0.62602170  1
  V  V9  1  0.12537216  0.24770032  0.37620928  1
  V  V10  1  -0.00127543  0.86850696  0.37138252  1
  V  V11  1  0.87488943  0.49951563  0.37388761  1
  V  V12  1  0.12510160  0.37380135  0.25109580  1
  V  V13  1  0.12404899  0.62247638  0.49845826  1
  V  V14  1  0.50104854  0.25055279  0.74946721  1
  V  V15  1  0.25278986  0.75060981  -0.00070981  1
  V  V16  1  0.74969301  0.62470335  0.37421437  1
  V  V17  1  0.25077567  0.87517379  0.12433574  1
  V  V18  1  0.62374093  0.87511933  0.24984905  1
  V  V19  1  0.49950737  0.75094557  0.24933189  1
  V  V20  1  0.12510758  0.12512108  0.00283987  1
  V  V21  1  0.75023392  0.25105101  0.00024710  1
  V  V22  1  0.49238343  0.87908755  0.37382894  1
  V  V23  1  0.12633415  0.87521655  0.74909882  1
  V  V24  1  0.62691870  0.25172320  0.87613898  1
  V  V25  1  0.49969663  0.49893882  0.49752279  1
  V  V26  1  0.62066335  0.00183099  0.11948647  1
  V  V27  1  0.12466935  -0.00123381  0.62534264  1
  V  V28  1  0.87614972  0.62822545  0.24993587  1
  V  V29  1  0.75143516  -0.00023635  0.75021242  1
  V  V30  1  0.24933455  0.87322797  0.62372918  1
  V  V31  1  0.37380494  0.74914023  0.62205302  1
  V  V32  1  0.87413438  0.37686573  0.00132283  1
  V  V33  1  0.50002774  0.62569352  0.12326011  1
  V  V34  1  0.00125883  0.37270354  0.37436047  1
  V  V35  1  0.25017974  0.62408609  0.37338596  1
  V  V36  1  0.62335523  0.37678524  0.25079738  1
  V  V37  1  0.62698111  -0.00016992  0.62306817  1
  V  V38  1  0.75203448  0.74807052  0.50440486  1
  V  V39  1  0.62474894  0.49976291  0.62441604  1
  V  V40  1  0.12462899  0.49940353  0.12537411  1
  V  V41  1  0.25094809  0.62504195  0.87462814  1
  V  V42  1  0.12315348  0.74864075  0.37265239  1
  V  V43  1  0.12424690  0.00035357  0.12654285  1
  V  V44  1  0.62518764  0.37659732  0.75023111  1
  V  V45  1  0.12331371  0.74963943  0.87487063  1
  V  V46  1  0.62390694  0.62593771  -0.00095090  1
  V  V47  1  0.37509558  0.37503558  0.00178988  1
  V  V48  1  0.87414791  -0.00132459  0.37419291  1
  V  V49  1  0.75231430  0.87252554  0.62508709  1
  V  V50  1  0.87535326  0.87576257  0.00078398  1
  V  V51  1  0.00134632  0.49837419  0.49942907  1
  V  V52  1  0.12445251  0.49917012  0.62461494  1
  V  V53  1  0.24921589  0.25096186  0.00295354  1
  V  V54  1  0.37560418  0.89173102  -0.00544899  1
  V  V55  1  0.62682677  0.12487121  0.49891716  1
  V  V56  1  0.25671013  0.11944613  0.37767848  1
  V  V57  1  0.24948386  0.74895159  0.49928136  1
  V  V58  1  0.37907361  0.37426210  0.49682342  1
  V  V59  1  0.62443070  0.87573278  0.74997971  1
  V  V60  1  0.37525647  0.62489480  0.24914789  1
  V  V61  1  0.00133544  0.24998425  0.75127684  1
  V  V62  1  0.75099357  0.50141408  0.74925484  1
  V  V63  1  0.75000355  0.24954692  0.50066341  1
  V  V64  1  0.87511665  0.37337598  0.49936348  1
  V  V65  1  0.25018866  0.37550359  0.12613407  1
  V  V66  1  0.00168076  0.12314803  0.62575225  1
  V  V67  1  0.49809981  0.25322274  0.25386019  1
  V  V68  1  -0.00101913  0.50114080  0.00039748  1
  V  V69  1  0.87507814  0.24957184  0.12803441  1
  V  V70  1  0.37458589  0.62437516  0.74874106  1
  V  V71  1  0.25707767  -0.00134397  0.25564919  1
  V  V72  1  0.75040892  0.12670092  0.87586019  1
  V  V73  1  0.87630677  0.00074852  0.87751051  1
  V  V74  1  0.00030617  0.62780152  0.12807825  1
  V  V75  1  0.62321552  0.75247682  0.87491986  1
  V  V76  1  0.49439048  -0.00084765  0.49571477  1
  V  V77  1  0.12632664  0.24870145  0.87705832  1
  V  V78  1  0.87565327  0.50436046  0.87289686  1
  V  V79  1  0.00021706  0.00022651  0.00182252  1
  V  V80  1  0.87672041  0.12483583  0.75105461  1
  V  V81  1  0.74987991  0.00171950  0.24999893  1
  V  V82  1  0.49456104  0.88913727  0.87618277  1
  V  V83  1  0.62514806  0.62426463  0.49782738  1
  V  V84  1  0.87786198  0.75114348  0.12692284  1
  V  V85  1  0.49953049  0.62541344  0.62338075  1
  V  V86  1  0.87507160  0.24955253  0.62524157  1
  V  V87  1  -0.00579666  0.74683857  0.74204141  1
  V  V88  1  0.87470622  0.86983753  0.50427722  1
  V  V89  1  0.50015159  0.37521820  0.87658216  1
  V  V90  1  0.37849230  0.49578651  0.37373457  1
  V  V91  1  0.50096969  0.12528513  0.62441095  1
  V  V92  1  0.49966267  0.12387908  0.12253852  1
  Zn  Zn93  1  0.26193643  0.11349377  0.87968133  1
  Zn  Zn94  1  0.37869658  0.12158714  0.25457421  1
  Zn  Zn95  1  0.25069760  0.49954109  0.24938623  1
  Zn  Zn96  1  -0.00054206  0.24567502  0.25138453  1
  Zn  Zn97  1  0.25085393  0.37314905  0.62485455  1
  Zn  Zn98  1  0.62204704  0.12268507  -0.00215608  1
  Zn  Zn99  1  0.62665897  0.49795387  0.12360166  1
  Zn  Zn100  1  0.74826765  0.49994456  0.24734016  1
  Zn  Zn101  1  0.74903642  0.87553107  0.12461558  1
  Zn  Zn102  1  0.74866755  0.37774376  0.12576519  1
  Zn  Zn103  1  -0.00028912  0.12417998  0.12953490  1
  Zn  Zn104  1  -0.00094355  -0.00208021  0.50025990  1
  Zn  Zn105  1  0.37478844  0.75122486  0.12311738  1
  Zn  Zn106  1  0.25148895  0.24892055  0.50063528  1
  Zn  Zn107  1  0.75159625  0.12594705  0.37564319  1
  Zn  Zn108  1  -0.00665220  0.62685817  0.61858252  1
  Zn  Zn109  1  0.50047576  0.49917101  -0.00014767  1
  Zn  Zn110  1  0.75005665  0.37492590  0.62429752  1
  Zn  Zn111  1  0.37928692  0.11428834  0.76218537  1
  Zn  Zn112  1  0.86889773  0.63233498  0.73970997  1
  Zn  Zn113  1  0.26040439  0.00031073  0.75627333  1
  Zn  Zn114  1  0.37204913  0.87719335  0.49647083  1
  Zn  Zn115  1  0.00006115  0.37679854  0.87522800  1
  Zn  Zn116  1  0.12546382  0.62456937  0.00156063  1
  Zn  Zn117  1  0.37461306  0.24937553  0.12912316  1
  Zn  Zn118  1  0.62436020  0.74937831  0.37444613  1
  Zn  Zn119  1  0.74942657  0.62808596  0.87304608  1
  Zn  Zn120  1  0.87783347  0.12559952  0.25112333  1
  Zn  Zn121  1  -0.00120880  0.87446917  0.87478923  1
  Zn  Zn122  1  0.18759719  0.18659450  0.19064331  1
  Zn  Zn123  1  0.19242088  0.18473034  0.69043196  1
  Zn  Zn124  1  0.18844053  0.68708256  0.18722007  1
  Zn  Zn125  1  0.18460184  0.68522999  0.68530126  1
  Zn  Zn126  1  0.68789582  0.18791986  0.18779166  1
  Zn  Zn127  1  0.68817732  0.18782979  0.68751074  1
  Zn  Zn128  1  0.68934779  0.68859218  0.18560209  1
  Zn  Zn129  1  0.68598061  0.68737921  0.68584674  1
  Zn  Zn130  1  0.30984709  0.31045828  0.31384412  1
  Zn  Zn131  1  0.31329994  0.30676194  0.81443128  1
  Zn  Zn132  1  0.31196775  0.81007841  0.31144905  1
  Zn  Zn133  1  0.31415916  0.81467964  0.81239996  1
  Zn  Zn134  1  0.80890814  0.31303840  0.31269047  1
  Zn  Zn135  1  0.81408893  0.31578601  0.81334789  1
  Zn  Zn136  1  0.80986119  0.81062341  0.31333619  1
  Zn  Zn137  1  0.81192723  0.81483680  0.81550207  1
  Zn  Zn138  1  0.19188664  0.43519280  0.43787165  1
  Zn  Zn139  1  0.18660776  0.43649909  0.93833941  1
  Zn  Zn140  1  0.18615146  0.93798005  0.43893819  1
  Zn  Zn141  1  0.18751662  0.93729376  0.93836601  1
  Zn  Zn142  1  0.68906035  0.43673877  0.43560581  1
  Zn  Zn143  1  0.68922104  0.43905328  0.93750243  1
  Zn  Zn144  1  0.68529604  0.93574355  0.43621754  1
  Zn  Zn145  1  0.68775080  0.93645251  0.93696725  1
  Zn  Zn146  1  0.31047174  0.06731100  0.06839448  1
  Zn  Zn147  1  0.31209127  0.06092830  0.57107725  1
  Zn  Zn148  1  0.31258121  0.56122464  0.06167499  1
  Zn  Zn149  1  0.31033925  0.56099230  0.56151223  1
  Zn  Zn150  1  0.81048080  0.06475067  0.06396611  1
  Zn  Zn151  1  0.81379748  0.06124015  0.56217923  1
  Zn  Zn152  1  0.80900772  0.56221034  0.06291805  1
  Zn  Zn153  1  0.81532813  0.56226012  0.56363666  1
  Zn  Zn154  1  0.44002547  0.43766409  0.18744526  1
  Zn  Zn155  1  0.43747666  0.43612959  0.68611634  1
  Zn  Zn156  1  0.43628796  0.93666080  0.18176817  1
  Zn  Zn157  1  0.43889636  0.93539260  0.68307930  1
  Zn  Zn158  1  0.93759027  0.43739250  0.18870114  1
  Zn  Zn159  1  0.93867320  0.43691520  0.68601229  1
  Zn  Zn160  1  0.93893231  0.93635967  0.18754714  1
  Zn  Zn161  1  0.93954761  0.93621903  0.68863039  1
  Zn  Zn162  1  0.06365346  0.06054126  0.31303254  1
  Zn  Zn163  1  0.06751594  0.06156760  0.81633032  1
  Zn  Zn164  1  0.06155206  0.56016096  0.31085817  1
  Zn  Zn165  1  0.06290140  0.56434274  0.81216116  1
  Zn  Zn166  1  0.56291521  0.06536137  0.31283996  1
  Zn  Zn167  1  0.56443687  0.06622749  0.80975313  1
  Zn  Zn168  1  0.56103584  0.56221380  0.31236824  1
  Zn  Zn169  1  0.56151383  0.56277082  0.81282582  1
  Zn  Zn170  1  0.43883342  0.18658481  0.43879315  1
  Zn  Zn171  1  0.43849450  0.18939081  0.94218395  1
  Zn  Zn172  1  0.43778219  0.68839575  0.43438636  1
  Zn  Zn173  1  0.43774279  0.69267575  0.93425680  1
  Zn  Zn174  1  0.93953307  0.18573278  0.43892874  1
  Zn  Zn175  1  0.93960920  0.18765580  0.94055094  1
  Zn  Zn176  1  0.93697918  0.68693732  0.43695660  1
  Zn  Zn177  1  0.93754938  0.68652253  0.93742470  1
  Zn  Zn178  1  0.05967271  0.31383026  0.06402127  1
  Zn  Zn179  1  0.06384849  0.31116286  0.56310483  1
  Zn  Zn180  1  0.06209776  0.81397181  0.06257366  1
  Zn  Zn181  1  0.06252138  0.81208346  0.55965176  1
  Zn  Zn182  1  0.56237772  0.31017223  0.06520722  1
  Zn  Zn183  1  0.56167971  0.31466210  0.56202926  1
  Zn  Zn184  1  0.55807924  0.81518814  0.05981697  1
  Zn  Zn185  1  0.56433609  0.81266047  0.56053854  1
  O  O186  1  0.12461080  0.11760434  0.12056102  1
  O  O187  1  0.12046002  0.11926300  0.62141088  1
  O  O188  1  0.11489301  0.62109378  0.12624481  1
  O  O189  1  0.12066257  0.61760087  0.61606504  1
  O  O190  1  0.61841232  0.11707335  0.12683317  1
  O  O191  1  0.62078694  0.12002227  0.61921047  1
  O  O192  1  0.61627060  0.62839383  0.11534304  1
  O  O193  1  0.61871602  0.61909330  0.61791990  1
  O  O194  1  0.36923684  0.38553601  0.38323497  1
  O  O195  1  0.38049847  0.37886798  0.88089093  1
  O  O196  1  0.38821333  0.87099972  0.37580577  1
  O  O197  1  0.38285692  0.87203931  0.88193434  1
  O  O198  1  0.88045534  0.37925473  0.37968340  1
  O  O199  1  0.87697739  0.38800152  0.88094601  1
  O  O200  1  0.88050529  0.87898493  0.38034175  1
  O  O201  1  0.87635435  0.88328822  0.88283876  1
  O  O202  1  0.24305140  0.00704410  0.36659973  1
  O  O203  1  0.23351211  0.00463665  0.86658600  1
  O  O204  1  0.26129497  0.50663656  0.37400659  1
  O  O205  1  0.25495486  0.50555685  0.86989725  1
  O  O206  1  0.75767903  -0.00321700  0.36684104  1
  O  O207  1  0.75544698  0.00575151  0.86949616  1
  O  O208  1  0.75794777  0.50766419  0.37395661  1
  O  O209  1  0.75770579  0.50305393  0.86564737  1
  O  O210  1  0.24257635  0.49453210  0.12594402  1
  O  O211  1  0.24295335  0.49892328  0.63230682  1
  O  O212  1  0.24287185  0.99392374  0.13482048  1
  O  O213  1  0.23907491  0.98972883  0.62554235  1
  O  O214  1  0.74432432  0.49755686  0.12919505  1
  O  O215  1  0.74346330  0.49849487  0.63380192  1
  O  O216  1  0.74240473  0.99805478  0.13533588  1
  O  O217  1  0.74625064  0.99358211  0.63071042  1
  O  O218  1  0.00713518  0.37353914  0.25792126  1
  O  O219  1  0.00719673  0.36757588  0.75178744  1
  O  O220  1  0.01101341  0.87933926  0.25925671  1
  O  O221  1  0.00839842  0.86287365  0.75182048  1
  O  O222  1  0.50971498  0.36350974  0.24589539  1
  O  O223  1  0.50664747  0.37111337  0.75581174  1
  O  O224  1  0.50525568  0.87264405  0.25502246  1
  O  O225  1  0.50562827  0.86949444  0.75474761  1
  O  O226  1  0.49960684  0.13418748  0.24442045  1
  O  O227  1  0.50122759  0.13388521  0.74116099  1
  O  O228  1  0.49668454  0.63107052  0.24147606  1
  O  O229  1  0.49473882  0.63060848  0.74326714  1
  O  O230  1  0.99626176  0.12610166  0.24809126  1
  O  O231  1  0.99581997  0.12991466  0.74601145  1
  O  O232  1  0.98903524  0.62082028  0.23896456  1
  O  O233  1  1.00205554  0.64037649  0.74920799  1
  O  O234  1  0.36707524  0.25975871  0.00610938  1
  O  O235  1  0.37889909  0.25931620  0.50688012  1
  O  O236  1  0.36135780  0.75536592  -0.00219498  1
  O  O237  1  0.36734450  0.74863840  0.50479346  1
  O  O238  1  0.87028150  0.25625601  0.00664176  1
  O  O239  1  0.87031605  0.25342185  0.50525858  1
  O  O240  1  0.87019044  0.75431847  0.00671212  1
  O  O241  1  0.86454391  0.75999197  0.49277311  1
  O  O242  1  0.12765889  0.24168216  0.49498224  1
  O  O243  1  0.12785872  0.24689261  0.99528483  1
  O  O244  1  0.12980142  0.74303262  0.49276641  1
  O  O245  1  0.13471862  0.75202247  0.99116836  1
  O  O246  1  0.62817784  0.24640194  0.49384559  1
  O  O247  1  0.63304824  0.25036185  0.99296011  1
  O  O248  1  0.63457918  0.74334575  0.49759638  1
  O  O249  1  0.62897265  0.74508815  0.99552055  1
  O  O250  1  0.50092589  0.24124410  0.13812027  1
  O  O251  1  0.49599431  0.24549395  0.62911988  1
  O  O252  1  0.49768896  0.74113429  0.12960069  1
  O  O253  1  0.49556048  0.74487984  0.62866284  1
  O  O254  1  0.98725508  0.24900641  0.12704946  1
  O  O255  1  0.99489158  0.24281754  0.63130635  1
  O  O256  1  0.98900739  0.74037344  0.11810955  1
  O  O257  1  1.00536100  0.75040451  0.63941699  1
  O  O258  1  0.00671194  0.25578823  0.37536637  1
  O  O259  1  0.00912124  0.25226840  0.87065301  1
  O  O260  1  0.00530998  0.76152109  0.37844689  1
  O  O261  1  0.01069712  0.74970647  0.86888170  1
  O  O262  1  0.51157371  0.24270829  0.36666653  1
  O  O263  1  0.50873682  0.25749421  0.86962626  1
  O  O264  1  0.50363255  0.75934354  0.36784275  1
  O  O265  1  0.50503961  0.75874119  0.86615696  1
  O  O266  1  0.24429397  0.12214341  0.49342090  1
  O  O267  1  0.24192930  0.13389082  1.00175360  1
  O  O268  1  0.24322641  0.62906623  0.49314365  1
  O  O269  1  0.24855074  0.63454070  0.99417624  1
  O  O270  1  0.74416395  0.13086792  0.50010849  1
  O  O271  1  0.74819680  0.13263417  0.99228694  1
  O  O272  1  0.74593886  0.63125026  0.49514584  1
  O  O273  1  0.73898507  0.63264476  0.99814548  1
  O  O274  1  0.25444124  0.37067296  0.00696241  1
  O  O275  1  0.26459438  0.37212585  0.50316968  1
  O  O276  1  0.25579052  0.86801089  0.00378737  1
  O  O277  1  0.25036568  0.86705323  0.50442356  1
  O  O278  1  0.75687503  0.36882359  0.00051856  1
  O  O279  1  0.75719999  0.36792710  0.50139316  1
  O  O280  1  0.75676446  0.86908487  0.00305964  1
  O  O281  1  0.75514809  0.86692855  0.50333852  1
  O  O282  1  0.12663520  0.49241573  0.24341238  1
  O  O283  1  0.12925524  0.49520558  0.74587078  1
  O  O284  1  0.13360542  0.98783045  0.24701624  1
  O  O285  1  0.11727989  0.98459162  0.74326724  1
  O  O286  1  0.62268746  0.48796214  0.25156665  1
  O  O287  1  0.63224725  0.49700015  0.74581881  1
  O  O288  1  0.63224662  0.99316296  0.24456228  1
  O  O289  1  0.63263287  0.99509308  0.74324584  1
  O  O290  1  0.36016194  -0.00238602  0.24597934  1
  O  O291  1  0.37082905  0.00633060  0.72965631  1
  O  O292  1  0.37596394  0.50519478  0.25887174  1
  O  O293  1  0.36983313  0.50492082  0.75438887  1
  O  O294  1  0.86548006  -0.00565368  0.25822293  1
  O  O295  1  0.87082729  0.00457080  0.75628564  1
  O  O296  1  0.87374411  0.51099663  0.25575617  1
  O  O297  1  0.86693398  0.49812221  0.75742913  1
  O  O298  1  0.12163255  0.36870194  0.37171353  1
  O  O299  1  0.12157629  0.36649826  0.87034447  1
  O  O300  1  0.11717216  0.87007088  0.36940696  1
  O  O301  1  0.12377411  0.86324289  0.86609171  1
  O  O302  1  0.62830188  0.36251954  0.36814172  1
  O  O303  1  0.62057978  0.37179100  0.86959714  1
  O  O304  1  0.61561825  0.87440213  0.36294475  1
  O  O305  1  0.61708127  0.87134614  0.86968784  1
  O  O306  1  0.38508033  0.12741468  0.13226623  1
  O  O307  1  0.38452358  0.13961974  0.61798309  1
  O  O308  1  0.38427058  0.62628417  0.12887064  1
  O  O309  1  0.37985710  0.62889167  0.62936029  1
  O  O310  1  0.87558408  0.13654331  0.12699227  1
  O  O311  1  0.88073843  0.12892292  0.63153903  1
  O  O312  1  0.88084898  0.63166087  0.13055582  1
  O  O313  1  0.88119423  0.62287534  0.62807781  1
  O  O314  1  0.25035871  0.25740492  0.12095772  1
  O  O315  1  0.26303918  0.25106638  0.62194811  1
  O  O316  1  0.24883682  0.75585041  0.11429788  1
  O  O317  1  0.25311377  0.75251166  0.61818393  1
  O  O318  1  0.75884880  0.25114896  0.11906988  1
  O  O319  1  0.75706827  0.25162763  0.61961380  1
  O  O320  1  0.76145450  0.75172574  0.11833838  1
  O  O321  1  0.74495183  0.75563915  0.61250265  1
  O  O322  1  0.24310594  0.23820761  0.37758360  1
  O  O323  1  0.23546353  0.25515401  0.88458376  1
  O  O324  1  0.24365827  0.74376994  0.37978804  1
  O  O325  1  0.24224097  0.74573376  0.88024304  1
  O  O326  1  0.74091141  0.24687133  0.38228970  1
  O  O327  1  0.74670493  0.24607167  0.87892212  1
  O  O328  1  0.74684389  0.74394897  0.38544145  1
  O  O329  1  0.74178525  0.74969662  0.88057584  1
  O  O330  1  0.00712355  0.11762314  0.00459972  1
  O  O331  1  0.00655824  0.12103724  0.50804123  1
  O  O332  1  0.00095133  0.62004781  0.01154720  1
  O  O333  1  0.00706398  0.61704595  0.49611521  1
  O  O334  1  0.50464966  0.13463686  0.01768014  1
  O  O335  1  0.50765362  0.11690073  0.50347383  1
  O  O336  1  0.50690460  0.62900025  0.00666534  1
  O  O337  1  0.50528976  0.62031519  0.50436203  1
  O  O338  1  0.48821015  0.38347497  0.50363376  1
  O  O339  1  0.49445997  0.37583658  0.99466743  1
  O  O340  1  0.50206079  0.88200765  0.49035842  1
  O  O341  1  0.48750084  0.87026340  0.98859660  1
  O  O342  1  0.99506675  0.37872869  0.49383138  1
  O  O343  1  0.99201885  0.38451974  0.99926527  1
  O  O344  1  0.99045705  0.87426563  0.49156749  1
  O  O345  1  0.99356238  0.88157874  0.99815377  1
  O  O346  1  0.48562321  0.50772516  0.38170188  1
  O  O347  1  0.49285034  0.49338977  0.87499916  1
  O  O348  1  0.50707558  0.99187031  0.38411988  1
  O  O349  1  0.50569843  0.98759512  0.86830418  1
  O  O350  1  0.99477964  0.49305013  0.38032862  1
  O  O351  1  0.99127932  0.50213963  0.88019313  1
  O  O352  1  0.99058316  0.98682613  0.37647666  1
  O  O353  1  0.99379134  0.99865045  0.88288858  1
  O  O354  1  0.00687812  -0.00064405  0.11970722  1
  O  O355  1  0.00565316  0.00547507  0.62356309  1
  O  O356  1  0.00350761  0.50917723  0.12024877  1
  O  O357  1  0.00803787  0.49863147  0.61624947  1
  O  O358  1  0.51062028  0.01112798  0.13549476  1
  O  O359  1  0.51044433  0.00394751  0.61507969  1
  O  O360  1  0.50352588  0.51458225  0.12237740  1
  O  O361  1  0.50496153  0.50679359  0.61913911  1
  O  O362  1  0.24331832  0.37665888  0.24418120  1
  O  O363  1  0.24389235  0.38129544  0.75023617  1
  O  O364  1  0.24328088  0.88011332  0.24647249  1
  O  O365  1  0.23786366  0.86917063  0.74273685  1
  O  O366  1  0.73667473  0.37682942  0.24919842  1
  O  O367  1  0.74429581  0.38623514  0.74928642  1
  O  O368  1  0.73978412  0.88229862  0.24938338  1
  O  O369  1  0.74509170  0.87989625  0.74525272  1
  O  O370  1  0.24973214  0.11461023  0.25962562  1
  O  O371  1  0.25627714  0.12197703  0.75565710  1
  O  O372  1  0.25698521  0.62304456  0.25511388  1
  O  O373  1  0.25488364  0.61983722  0.75494679  1
  O  O374  1  0.75182745  0.11160256  0.25363547  1
  O  O375  1  0.75673091  0.11935691  0.75526929  1
  O  O376  1  0.75893596  0.62489014  0.25524964  1
  O  O377  1  0.74877439  0.61465401  0.75158281  1
  O  O378  1  0.36098369  0.12835810  0.37553226  1
  O  O379  1  0.36921424  0.14913104  0.86910064  1
  O  O380  1  0.36953824  0.61768162  0.36932646  1
  O  O381  1  0.37074104  0.62044449  0.86803413  1
  O  O382  1  0.87423491  0.10948232  0.37599596  1
  O  O383  1  0.87045391  0.12056506  0.87028694  1
  O  O384  1  0.87139016  0.62146190  0.36657383  1
  O  O385  1  0.87260315  0.61447013  0.87061071  1
  O  O386  1  0.12954249  0.38023625  0.13069450  1
  O  O387  1  0.12794715  0.38028443  0.63174692  1
  O  O388  1  0.12979777  0.87838492  0.13290589  1
  O  O389  1  0.12875929  0.87687604  0.63126423  1
  O  O390  1  0.62611460  0.37573701  0.13622157  1
  O  O391  1  0.62591607  0.38261094  0.63182665  1
  O  O392  1  0.62141439  0.88319640  0.13503033  1
  O  O393  1  0.63150990  0.88002792  0.63046543  1
  O  O394  1  0.12360508  0.25650931  0.25814339  1
  O  O395  1  0.12091554  0.25401926  0.75855805  1
  O  O396  1  0.13233141  0.76349748  0.25572441  1
  O  O397  1  0.11756843  0.75585620  0.75643222  1
  O  O398  1  0.61962591  0.25562043  0.25799395  1
  O  O399  1  0.62176160  0.25688383  0.75524240  1
  O  O400  1  0.62021675  0.76103744  0.24817271  1
  O  O401  1  0.61971669  0.75646546  0.75369746  1
  O  O402  1  0.38668204  0.24979944  0.25188318  1
  O  O403  1  0.38435673  0.25750595  0.73606044  1
  O  O404  1  0.38119787  0.74299075  0.24672883  1
  O  O405  1  0.37947736  0.74351497  0.74287961  1
  O  O406  1  0.87396478  0.24889803  0.24122682  1
  O  O407  1  0.88043302  0.24478843  0.74619259  1
  O  O408  1  0.86932013  0.74041463  0.23982743  1
  O  O409  1  0.89138827  0.75240191  0.75885585  1
  O  O410  1  0.37921574  0.49430686  0.49343130  1
  O  O411  1  0.37651199  0.49386942  0.99166436  1
  O  O412  1  0.39165493  0.99794980  0.50854686  1
  O  O413  1  0.36645527  0.98979934  1.00306179  1
  O  O414  1  0.88078709  0.49307573  0.49279873  1
  O  O415  1  0.87792390  0.49824963  0.99161421  1
  O  O416  1  0.87247783  0.98766705  0.48946955  1
  O  O417  1  0.87896821  0.99566443  0.99722857  1
  O  O418  1  0.11971009  0.00388823  0.00815862  1
  O  O419  1  0.12089764  0.00465610  0.50745990  1
  O  O420  1  0.11798068  0.50238385  0.00677857  1
  O  O421  1  0.12107704  0.50297556  0.50332268  1
  O  O422  1  0.63218236  0.00095907  0.01596159  1
  O  O423  1  0.61989060  0.00442984  0.50432663  1
  O  O424  1  0.62242937  0.51430093  -0.00163625  1
  O  O425  1  0.62029440  0.50413814  0.50377557  1
  O  O426  1  0.36849483  0.37622794  0.11981099  1
  O  O427  1  0.37559224  0.36714303  0.61561634  1
  O  O428  1  0.36924103  0.87145306  0.11326815  1
  O  O429  1  0.36790572  0.86417020  0.62053703  1
  O  O430  1  0.87337882  0.36699703  0.12009383  1
  O  O431  1  0.87435670  0.36715663  0.61766561  1
  O  O432  1  0.87528255  0.86506861  0.12103287  1
  O  O433  1  0.86933486  0.88177728  0.61184095  1
  O  O434  1  0.13222268  0.12766620  0.38203102  1
  O  O435  1  0.12254283  0.13847472  0.88404886  1
  O  O436  1  0.12941672  0.62879329  0.37739765  1
  O  O437  1  0.13175600  0.63508297  0.87650430  1
  O  O438  1  0.62867707  0.13485261  0.38118858  1
  O  O439  1  0.63211440  0.13268820  0.87588551  1
  O  O440  1  0.63093580  0.62569148  0.38048688  1
  O  O441  1  0.62211039  0.63350084  0.88424187  1
