# generated using pymatgen
data_V93Zn93O256
_symmetry_space_group_name_H-M   'P 1'
_cell_length_a   17.05467272
_cell_length_b   17.04954110
_cell_length_c   17.05077873
_cell_angle_alpha   90.02811949
_cell_angle_beta   90.03517429
_cell_angle_gamma   89.99610559
_symmetry_Int_Tables_number   1
_chemical_formula_structural   V93Zn93O256
_chemical_formula_sum   'V93 Zn93 O256'
_cell_volume   4957.92744855
_cell_formula_units_Z   1
loop_
 _symmetry_equiv_pos_site_id
 _symmetry_equiv_pos_as_xyz
  1  'x, y, z'
loop_
 _atom_site_type_symbol
 _atom_site_label
 _atom_site_symmetry_multiplicity
 _atom_site_fract_x
 _atom_site_fract_y
 _atom_site_fract_z
 _atom_site_occupancy
  V  V0  1  0.00122475  0.49894687  -0.00011029  1
  V  V1  1  0.50174389  0.37572976  0.37481731  1
  V  V2  1  -0.00166925  0.62469845  0.12525267  1
  V  V3  1  0.37548531  0.50229385  0.37531697  1
  V  V4  1  0.00047420  0.37383811  0.87506034  1
  V  V5  1  0.62391623  0.75134300  0.37624908  1
  V  V6  1  -0.00096076  0.87522141  0.37428056  1
  V  V7  1  0.00011251  0.24830103  0.74974031  1
  V  V8  1  0.62048139  0.12520738  0.00591755  1
  V  V9  1  0.49570034  0.87320076  0.86731598  1
  V  V10  1  0.50110591  0.62833976  0.62777743  1
  V  V11  1  0.25486352  0.00006573  0.75298035  1
  V  V12  1  0.37621680  0.74946846  0.12550970  1
  V  V13  1  0.38037763  0.75155621  0.62821086  1
  V  V14  1  0.50027134  0.24733353  0.24827424  1
  V  V15  1  0.87488204  0.50095724  0.37385104  1
  V  V16  1  0.74971251  0.87942834  0.63326131  1
  V  V17  1  0.74790690  0.87006240  0.12162712  1
  V  V18  1  0.87456078  0.49950039  0.87404014  1
  V  V19  1  0.25097062  0.24894860  0.00040564  1
  V  V20  1  0.12673505  0.62482397  -0.00161322  1
  V  V21  1  0.75002911  0.50115129  0.75053531  1
  V  V22  1  0.62495350  0.37533791  0.75066024  1
  V  V23  1  0.37583678  0.50075696  0.87576537  1
  V  V24  1  0.74932111  -0.00054264  0.24949749  1
  V  V25  1  0.50037379  0.50119045  0.50038104  1
  V  V26  1  0.62581003  0.37542035  0.24931547  1
  V  V27  1  0.49952664  0.00239817  0.00249540  1
  V  V28  1  0.12457547  -0.00072579  0.62505817  1
  V  V29  1  0.74941611  0.75200233  0.50142821  1
  V  V30  1  0.87285143  0.87542882  0.49981619  1
  V  V31  1  0.62430472  0.87657694  0.24929513  1
  V  V32  1  0.25256261  -0.00005162  0.25149727  1
  V  V33  1  0.75112409  0.37549593  0.62475024  1
  V  V34  1  0.00172775  0.75008429  0.74862493  1
  V  V35  1  0.25034514  0.49859642  0.25048063  1
  V  V36  1  0.87540813  0.62427327  0.74937593  1
  V  V37  1  0.25125701  0.24980835  0.49980658  1
  V  V38  1  0.12443335  0.87491817  0.24950430  1
  V  V39  1  0.00109744  0.62442732  0.62469694  1
  V  V40  1  0.74978889  0.63091119  0.88298909  1
  V  V41  1  0.37908812  0.12106355  0.24983028  1
  V  V42  1  0.37445219  0.88127563  0.49769430  1
  V  V43  1  0.87402611  0.00029211  0.37434961  1
  V  V44  1  0.12549132  0.24852791  0.87486753  1
  V  V45  1  0.62424673  0.12291700  0.50073337  1
  V  V46  1  0.87513386  0.37310307  -0.00122203  1
  V  V47  1  -0.00136236  -0.00105862  -0.00041877  1
  V  V48  1  0.50009016  0.37678079  0.87555080  1
  V  V49  1  0.00057325  0.24914682  0.24925668  1
  V  V50  1  0.87519464  0.37421215  0.50005199  1
  V  V51  1  0.25488148  0.11980052  0.37491768  1
  V  V52  1  0.86660568  -0.00090822  0.87078657  1
  V  V53  1  0.24844355  0.87536345  0.12455303  1
  V  V54  1  0.62534688  0.62664515  0.50159040  1
  V  V55  1  0.37484118  0.88180617  -0.00395017  1
  V  V56  1  0.87614420  0.24771140  0.12414877  1
  V  V57  1  0.24994850  0.87463958  0.62528693  1
  V  V58  1  0.12667433  0.74765697  0.37707888  1
  V  V59  1  0.25106390  0.50023420  0.74970173  1
  V  V60  1  0.12520128  0.12384192  -0.00047452  1
  V  V61  1  0.24920180  0.75025265  -0.00029537  1
  V  V62  1  0.00050455  0.37401414  0.37367291  1
  V  V63  1  0.25648116  0.12004672  0.87465077  1
  V  V64  1  0.00019081  0.00009834  0.49994497  1
  V  V65  1  0.12370153  -0.00062683  0.12523616  1
  V  V66  1  0.74870357  0.24690445  -0.00396469  1
  V  V67  1  0.87559670  0.24947284  0.62510058  1
  V  V68  1  0.74800141  0.37720894  0.12532921  1
  V  V69  1  0.62538244  0.50153803  0.62576114  1
  V  V70  1  0.86887689  0.86811527  0.00008152  1
  V  V71  1  0.00044310  0.87415756  0.87420378  1
  V  V72  1  0.62730923  0.00092799  0.63517902  1
  V  V73  1  0.12496427  0.25003597  0.37414501  1
  V  V74  1  0.12478007  0.12432137  0.50052780  1
  V  V75  1  0.37977208  0.24581621  0.12486152  1
  V  V76  1  0.37572842  0.24848356  0.62590890  1
  V  V77  1  0.62582057  0.75113087  0.87499180  1
  V  V78  1  0.49516554  0.88286888  0.37604285  1
  V  V79  1  0.62596031  0.24994816  0.37555985  1
  V  V80  1  0.75114426  0.62534963  0.37509123  1
  V  V81  1  0.00176703  0.50021490  0.49977403  1
  V  V82  1  -0.00157709  0.74937836  0.24843636  1
  V  V83  1  0.37557276  0.37475921  0.00013382  1
  V  V84  1  -0.00061404  0.12448219  0.12486838  1
  V  V85  1  0.74977989  0.12450507  0.37386178  1
  V  V86  1  0.50001851  0.24885504  0.75046541  1
  V  V87  1  0.38002816  0.62868925  0.75122159  1
  V  V88  1  0.86875192  0.12086931  0.75006125  1
  V  V89  1  0.49825777  0.74959536  0.24950599  1
  V  V90  1  0.12571455  0.49958333  0.62502751  1
  V  V91  1  0.37630009  0.37478699  0.49998966  1
  V  V92  1  0.12621713  0.37474456  0.75000648  1
  Zn  Zn93  1  0.24988931  0.37516880  0.62442838  1
  Zn  Zn94  1  0.49665662  0.00308959  0.49996973  1
  Zn  Zn95  1  0.87437201  0.12388923  0.24915999  1
  Zn  Zn96  1  0.87040185  0.74749772  0.12296471  1
  Zn  Zn97  1  0.74463233  0.11813177  0.87187518  1
  Zn  Zn98  1  0.87385571  0.75051350  0.62394546  1
  Zn  Zn99  1  0.37852687  0.12164887  0.75382641  1
  Zn  Zn100  1  0.75070822  0.25025846  0.49967854  1
  Zn  Zn101  1  0.12788322  0.62436984  0.50042909  1
  Zn  Zn102  1  0.62432903  0.24777583  0.87440722  1
  Zn  Zn103  1  0.37400551  0.62477903  0.25176501  1
  Zn  Zn104  1  0.62093263  0.50494806  0.12477605  1
  Zn  Zn105  1  0.74939348  0.50279558  0.25005790  1
  Zn  Zn106  1  0.25063736  0.74810672  0.50089237  1
  Zn  Zn107  1  0.12718446  0.49640801  0.12590040  1
  Zn  Zn108  1  0.12730005  0.75045347  0.87405313  1
  Zn  Zn109  1  0.12570851  0.37436645  0.24702005  1
  Zn  Zn110  1  0.50169364  0.50406078  0.00332143  1
  Zn  Zn111  1  0.62164462  0.00366630  0.12704737  1
  Zn  Zn112  1  0.87289749  0.62514272  0.24924136  1
  Zn  Zn113  1  0.24908162  0.37407897  0.12566970  1
  Zn  Zn114  1  0.25164087  0.62731777  0.87426896  1
  Zn  Zn115  1  0.12589167  0.87524162  0.74970738  1
  Zn  Zn116  1  0.62302542  0.87322061  0.75019763  1
  Zn  Zn117  1  0.50249349  0.62288992  0.12242638  1
  Zn  Zn118  1  0.62378865  0.62875155  0.00327047  1
  Zn  Zn119  1  0.50110206  0.12183704  0.62726706  1
  Zn  Zn120  1  0.25220959  0.62553735  0.37691871  1
  Zn  Zn121  1  -0.00097496  0.12368555  0.62557752  1
  Zn  Zn122  1  0.18920102  0.18763082  0.18735070  1
  Zn  Zn123  1  0.18809078  0.18570983  0.68749582  1
  Zn  Zn124  1  0.18758919  0.68438241  0.18866395  1
  Zn  Zn125  1  0.19007855  0.68710517  0.68657245  1
  Zn  Zn126  1  0.68793506  0.18848345  0.18678831  1
  Zn  Zn127  1  0.68840732  0.18861247  0.68587959  1
  Zn  Zn128  1  0.68610928  0.68783917  0.18841730  1
  Zn  Zn129  1  0.68707991  0.69226509  0.69263017  1
  Zn  Zn130  1  0.31341535  0.31239623  0.31255850  1
  Zn  Zn131  1  0.31207925  0.31259471  0.81368114  1
  Zn  Zn132  1  0.31167641  0.81460342  0.31338280  1
  Zn  Zn133  1  0.31180987  0.81183216  0.81219960  1
  Zn  Zn134  1  0.81375231  0.31102123  0.31166678  1
  Zn  Zn135  1  0.81325958  0.31124260  0.81078244  1
  Zn  Zn136  1  0.81206119  0.81142623  0.31040565  1
  Zn  Zn137  1  0.81366718  0.80937900  0.81247443  1
  Zn  Zn138  1  0.18836869  0.43639379  0.43646075  1
  Zn  Zn139  1  0.19042741  0.43809502  0.93670609  1
  Zn  Zn140  1  0.18808308  0.93620421  0.43839281  1
  Zn  Zn141  1  0.18664636  0.93797313  0.93684566  1
  Zn  Zn142  1  0.68894586  0.43857856  0.43778753  1
  Zn  Zn143  1  0.68402546  0.44088159  0.93849056  1
  Zn  Zn144  1  0.68570740  0.93838245  0.43944190  1
  Zn  Zn145  1  0.68217823  0.93599149  0.93912575  1
  Zn  Zn146  1  0.31252745  0.06310814  0.06568139  1
  Zn  Zn147  1  0.31067136  0.06287004  0.56596730  1
  Zn  Zn148  1  0.31407823  0.56146844  0.06374645  1
  Zn  Zn149  1  0.31025730  0.56466531  0.56178744  1
  Zn  Zn150  1  0.81080570  0.05862458  0.06145860  1
  Zn  Zn151  1  0.81043144  0.06199789  0.56267324  1
  Zn  Zn152  1  0.81415943  0.56027830  0.06142177  1
  Zn  Zn153  1  0.81436307  0.56298296  0.56173114  1
  Zn  Zn154  1  0.43613134  0.43564369  0.18655094  1
  Zn  Zn155  1  0.43746934  0.43840060  0.68793472  1
  Zn  Zn156  1  0.43767204  0.93759879  0.18448457  1
  Zn  Zn157  1  0.43760367  0.94089306  0.68276513  1
  Zn  Zn158  1  0.93608943  0.43740209  0.18836649  1
  Zn  Zn159  1  0.93884770  0.43692046  0.68728766  1
  Zn  Zn160  1  0.93470167  0.93672071  0.18694045  1
  Zn  Zn161  1  0.93610065  0.93785212  0.68623561  1
  Zn  Zn162  1  0.06355281  0.06330277  0.31239552  1
  Zn  Zn163  1  0.06202696  0.06161048  0.81093004  1
  Zn  Zn164  1  0.06366873  0.56143956  0.31129536  1
  Zn  Zn165  1  0.06333611  0.56190653  0.81257849  1
  Zn  Zn166  1  0.56325870  0.06300383  0.31204894  1
  Zn  Zn167  1  0.56063342  0.06106077  0.82060352  1
  Zn  Zn168  1  0.56482469  0.56246020  0.31056746  1
  Zn  Zn169  1  0.56320148  0.56407372  0.81571994  1
  Zn  Zn170  1  0.43887580  0.18773933  0.43571643  1
  Zn  Zn171  1  0.43890451  0.18816604  0.93798715  1
  Zn  Zn172  1  0.43640971  0.69063865  0.43958464  1
  Zn  Zn173  1  0.44105243  0.69068319  0.93732242  1
  Zn  Zn174  1  0.93731042  0.18671770  0.43736711  1
  Zn  Zn175  1  0.93677000  0.18492605  0.93585639  1
  Zn  Zn176  1  0.93810072  0.68750902  0.43825659  1
  Zn  Zn177  1  0.93758680  0.68688218  0.93620240  1
  Zn  Zn178  1  0.06517862  0.31229494  0.06357747  1
  Zn  Zn179  1  0.06238468  0.31224528  0.56261253  1
  Zn  Zn180  1  0.06042978  0.81063438  0.06133907  1
  Zn  Zn181  1  0.06239732  0.81357584  0.56225618  1
  Zn  Zn182  1  0.56183705  0.31300633  0.06204990  1
  Zn  Zn183  1  0.56318889  0.31194336  0.56306854  1
  Zn  Zn184  1  0.56399881  0.81307819  0.05817704  1
  Zn  Zn185  1  0.56204319  0.81579161  0.56297862  1
  O  O186  1  0.12007495  0.11896508  0.11897229  1
  O  O187  1  0.12391945  0.11839602  0.61757841  1
  O  O188  1  0.11556829  0.62332925  0.11452162  1
  O  O189  1  0.11827929  0.61766062  0.62543014  1
  O  O190  1  0.62826860  0.12481119  0.11103070  1
  O  O191  1  0.62650148  0.11863467  0.61705903  1
  O  O192  1  0.62274858  0.62512228  0.12189214  1
  O  O193  1  0.62128452  0.62131967  0.62189747  1
  O  O194  1  0.38306139  0.37986864  0.38127060  1
  O  O195  1  0.38042931  0.38009015  0.87958273  1
  O  O196  1  0.38322561  0.86829856  0.38591783  1
  O  O197  1  0.38521196  0.86841475  0.88495816  1
  O  O198  1  0.88041093  0.37958021  0.38059817  1
  O  O199  1  0.88058640  0.37944740  0.87907193  1
  O  O200  1  0.87949654  0.88063438  0.37987337  1
  O  O201  1  0.88154262  0.88011334  0.87962890  1
  O  O202  1  0.24331067  0.01208435  0.36827059  1
  O  O203  1  0.24246395  0.00878229  0.86554347  1
  O  O204  1  0.25745570  0.49988289  0.36789436  1
  O  O205  1  0.25787722  0.50366252  0.86772739  1
  O  O206  1  0.75414450  0.00395000  0.36951005  1
  O  O207  1  0.76360823  -0.00300162  0.87914223  1
  O  O208  1  0.75712095  0.50738048  0.37617979  1
  O  O209  1  0.75581087  0.50683748  0.86844701  1
  O  O210  1  0.25152795  0.49812900  0.13702285  1
  O  O211  1  0.24431032  0.49744910  0.63166828  1
  O  O212  1  0.24250550  0.99468343  0.13071697  1
  O  O213  1  0.24326604  0.99482065  0.63278958  1
  O  O214  1  0.75273272  0.48485402  0.12505221  1
  O  O215  1  0.74494713  0.49589158  0.63054855  1
  O  O216  1  0.74846501  0.98940320  0.13205623  1
  O  O217  1  0.73963335  0.98951743  0.61821212  1
  O  O218  1  0.00042726  0.36702168  0.25620171  1
  O  O219  1  0.00553206  0.36909160  0.75664240  1
  O  O220  1  0.00544053  0.87048997  0.25424339  1
  O  O221  1  -0.00132707  0.86720831  0.75772774  1
  O  O222  1  0.50578054  0.36744062  0.25661723  1
  O  O223  1  0.50492606  0.36753262  0.75401170  1
  O  O224  1  0.50199617  0.86892591  0.25688158  1
  O  O225  1  0.49522940  0.88408557  0.76570571  1
  O  O226  1  0.48802959  0.13147909  0.25904619  1
  O  O227  1  0.49781629  0.13608625  0.75246016  1
  O  O228  1  0.49854541  0.64132274  0.25057591  1
  O  O229  1  0.48728953  0.61837928  0.74350355  1
  O  O230  1  0.99885882  0.13011685  0.24250940  1
  O  O231  1  0.99002808  0.13099836  0.74942273  1
  O  O232  1  1.00065322  0.62927812  0.23848245  1
  O  O233  1  0.99567524  0.63159936  0.74632517  1
  O  O234  1  0.37136064  0.25210054  0.00771333  1
  O  O235  1  0.37241800  0.25424063  0.50707725  1
  O  O236  1  0.36985669  0.76084958  0.00821015  1
  O  O237  1  0.37334358  0.76022699  0.51083851  1
  O  O238  1  0.86800651  0.25334381  0.00353556  1
  O  O239  1  0.87441211  0.25616886  0.50654157  1
  O  O240  1  0.88003110  0.76474474  -0.00031497  1
  O  O241  1  0.86858437  0.75787479  0.50090235  1
  O  O242  1  0.13102436  0.24431516  0.49513148  1
  O  O243  1  0.13056564  0.24280431  0.99423140  1
  O  O244  1  0.12501587  0.75109387  0.48808785  1
  O  O245  1  0.13002071  0.74109358  0.99972044  1
  O  O246  1  0.62622069  0.24058135  0.49522695  1
  O  O247  1  0.63213766  0.24334738  0.99877611  1
  O  O248  1  0.62899306  0.74552682  0.49578520  1
  O  O249  1  0.62294924  0.75063981  0.98199870  1
  O  O250  1  0.48799395  0.25443684  0.13195953  1
  O  O251  1  0.49336669  0.24937989  0.63450084  1
  O  O252  1  0.49079600  0.75735453  0.13447777  1
  O  O253  1  0.48873791  0.74531458  0.62096342  1
  O  O254  1  0.99529728  0.24365295  0.12816676  1
  O  O255  1  0.99344739  0.24815666  0.63181680  1
  O  O256  1  0.99918460  0.74020950  0.12978650  1
  O  O257  1  0.99894204  0.74545375  0.63379506  1
  O  O258  1  0.00491717  0.25372297  0.36960275  1
  O  O259  1  0.00563623  0.25444949  0.87071196  1
  O  O260  1  0.00690421  0.75616342  0.36913141  1
  O  O261  1  -0.00049859  0.75843060  0.86628915  1
  O  O262  1  0.50648097  0.25676787  0.36939203  1
  O  O263  1  0.49873050  0.25718511  0.86407417  1
  O  O264  1  0.50388921  0.75932517  0.36754319  1
  O  O265  1  0.50620990  0.76698707  0.87689294  1
  O  O266  1  0.24641485  0.12879905  0.49237989  1
  O  O267  1  0.24466988  0.12706408  0.99314307  1
  O  O268  1  0.24525546  0.63002614  0.49553108  1
  O  O269  1  0.24106870  0.63061410  1.00118802  1
  O  O270  1  0.73973442  0.12646201  0.49332977  1
  O  O271  1  0.74341771  0.13343931  0.99892419  1
  O  O272  1  0.74412881  0.63148297  0.49647065  1
  O  O273  1  0.75292772  0.62022842  0.98518700  1
  O  O274  1  0.25801971  0.36553599  -0.00237597  1
  O  O275  1  0.25837438  0.36711923  0.50070103  1
  O  O276  1  0.25602694  0.87222424  0.00405130  1
  O  O277  1  0.25864804  0.87384558  0.50602922  1
  O  O278  1  0.75455825  0.36642788  0.00614831  1
  O  O279  1  0.75695914  0.37465979  0.50719837  1
  O  O280  1  0.75854983  0.88242220  0.00947866  1
  O  O281  1  0.75361356  0.87012894  0.50684446  1
  O  O282  1  0.13634695  0.49746544  0.24936771  1
  O  O283  1  0.13014666  0.49460617  0.74577789  1
  O  O284  1  0.13047634  0.99428463  0.24422467  1
  O  O285  1  0.13362938  0.99864448  0.74314257  1
  O  O286  1  0.62950672  0.49036567  0.24770342  1
  O  O287  1  0.63023248  0.49542648  0.74445223  1
  O  O288  1  0.63017476  0.99419831  0.24790286  1
  O  O289  1  0.62067982  1.00120122  0.73840844  1
  O  O290  1  0.36819644  0.01159158  0.24029810  1
  O  O291  1  0.35906702  0.00392580  0.74138592  1
  O  O292  1  0.36810812  0.50066873  0.25779767  1
  O  O293  1  0.37015105  0.50772390  0.75392401  1
  O  O294  1  0.86831965  0.00057120  0.25729040  1
  O  O295  1  0.88186598  0.00944745  0.75918828  1
  O  O296  1  0.87180068  0.50279655  0.25879045  1
  O  O297  1  0.87063209  0.50413938  0.75540470  1
  O  O298  1  0.11750188  0.36675620  0.37426341  1
  O  O299  1  0.11974614  0.36876159  0.87043297  1
  O  O300  1  0.11895108  0.86849211  0.36908906  1
  O  O301  1  0.11057466  0.87407197  0.87476942  1
  O  O302  1  0.62114472  0.36992713  0.37068119  1
  O  O303  1  0.61885681  0.37282177  0.86708442  1
  O  O304  1  0.61659749  0.86982062  0.37070140  1
  O  O305  1  0.61451715  0.87120752  0.87255604  1
  O  O306  1  0.36957439  0.13572799  0.13601276  1
  O  O307  1  0.37806003  0.13808285  0.62611282  1
  O  O308  1  0.37508762  0.64197312  0.12697281  1
  O  O309  1  0.38063977  0.63250884  0.63107923  1
  O  O310  1  0.88171541  0.12942560  0.12371333  1
  O  O311  1  0.87536219  0.12906406  0.63304927  1
  O  O312  1  0.88591776  0.62733641  0.12293933  1
  O  O313  1  0.88244860  0.62614326  0.63176692  1
  O  O314  1  0.25983431  0.24901637  0.11812832  1
  O  O315  1  0.25969617  0.25062661  0.61957159  1
  O  O316  1  0.25652750  0.75639252  0.12118843  1
  O  O317  1  0.26022116  0.75712465  0.62473909  1
  O  O318  1  0.75541963  0.25705195  0.11515868  1
  O  O319  1  0.75743987  0.25844681  0.62348512  1
  O  O320  1  0.75249398  0.76603615  0.13246596  1
  O  O321  1  0.75015116  0.75966281  0.61872493  1
  O  O322  1  0.24558494  0.24063593  0.38005104  1
  O  O323  1  0.24409042  0.24084297  0.87958101  1
  O  O324  1  0.23740413  0.75113887  0.37411244  1
  O  O325  1  0.24692701  0.74817911  0.88331351  1
  O  O326  1  0.74337277  0.24353679  0.37613538  1
  O  O327  1  0.75006349  0.25056127  0.88800976  1
  O  O328  1  0.74310129  0.74654051  0.38111873  1
  O  O329  1  0.74462373  0.73939018  0.86989930  1
  O  O330  1  0.00559016  0.11896243  0.00432693  1
  O  O331  1  0.00701045  0.11755774  0.50029734  1
  O  O332  1  0.00636274  0.62044018  0.00570395  1
  O  O333  1  0.00222810  0.61800528  0.50710409  1
  O  O334  1  0.50813201  0.11523289  -0.00871382  1
  O  O335  1  0.51155069  0.12434135  0.49970562  1
  O  O336  1  0.50179554  0.62397006  0.00317435  1
  O  O337  1  0.50641729  0.62101765  0.50675418  1
  O  O338  1  0.49683717  0.38122414  0.49503493  1
  O  O339  1  0.49200613  0.37290613  0.99159466  1
  O  O340  1  0.49230351  0.87548453  0.49133077  1
  O  O341  1  0.49090610  0.88097700  0.99265403  1
  O  O342  1  0.99444622  0.37988319  0.49394980  1
  O  O343  1  0.99505247  0.37830092  0.99409502  1
  O  O344  1  0.99340887  0.88071885  0.49384456  1
  O  O345  1  0.99206005  0.87918116  0.99234330  1
  O  O346  1  0.49671562  0.49542163  0.38088912  1
  O  O347  1  0.49232491  0.49205833  0.87370954  1
  O  O348  1  0.50392906  0.98577701  0.37619926  1
  O  O349  1  0.50368323  0.98472131  0.88885416  1
  O  O350  1  0.99534364  0.49424400  0.37987526  1
  O  O351  1  0.99430332  0.49376162  0.87947646  1
  O  O352  1  0.99551084  0.99431946  0.37937599  1
  O  O353  1  0.99222175  0.99064924  0.87905997  1
  O  O354  1  0.00476714  0.00386455  0.11979547  1
  O  O355  1  0.00640630  0.00001420  0.61751027  1
  O  O356  1  -0.00018129  0.50884210  0.11826654  1
  O  O357  1  0.00573166  0.50450289  0.62045995  1
  O  O358  1  0.50352288  -0.00810197  0.10858706  1
  O  O359  1  0.51119974  0.00313390  0.62053906  1
  O  O360  1  0.50003355  0.50363161  0.12432120  1
  O  O361  1  0.50606808  0.50626387  0.61959700  1
  O  O362  1  0.24958087  0.38513721  0.25065214  1
  O  O363  1  0.24347041  0.38109401  0.74929667  1
  O  O364  1  0.24450719  0.88067334  0.24434067  1
  O  O365  1  0.24828383  0.88328583  0.74594072  1
  O  O366  1  0.74509389  0.37207350  0.23938482  1
  O  O367  1  0.74559833  0.38091524  0.74492278  1
  O  O368  1  0.74379514  0.88071576  0.24424097  1
  O  O369  1  0.75174083  0.87098096  0.73596658  1
  O  O370  1  0.25730426  0.12065693  0.25762141  1
  O  O371  1  0.25007366  0.11794415  0.75881010  1
  O  O372  1  0.25269470  0.61423623  0.25382650  1
  O  O373  1  0.26174639  0.61913077  0.75046409  1
  O  O374  1  0.75033038  0.11824031  0.25565136  1
  O  O375  1  0.76445445  0.13281354  0.75388295  1
  O  O376  1  0.75213566  0.62468131  0.25975006  1
  O  O377  1  0.75681693  0.61910499  0.75654888  1
  O  O378  1  0.36356240  0.13143495  0.36524761  1
  O  O379  1  0.35986245  0.12978176  0.87482948  1
  O  O380  1  0.37546241  0.61798640  0.37390308  1
  O  O381  1  0.37574001  0.62194224  0.86534779  1
  O  O382  1  0.86785806  0.11786798  0.37414022  1
  O  O383  1  0.87382241  0.11496994  0.86844169  1
  O  O384  1  0.86906221  0.61858564  0.37608178  1
  O  O385  1  0.86962519  0.61954932  0.86954242  1
  O  O386  1  0.13046688  0.37807733  0.12780434  1
  O  O387  1  0.12594110  0.38083421  0.63260811  1
  O  O388  1  0.12880986  0.87946853  0.12916720  1
  O  O389  1  0.13198091  0.88123698  0.62594847  1
  O  O390  1  0.63558509  0.37127915  0.13081524  1
  O  O391  1  0.63025603  0.38174425  0.63014554  1
  O  O392  1  0.63254487  0.87562256  0.13027181  1
  O  O393  1  0.63100453  0.88304882  0.62756632  1
  O  O394  1  0.11899102  0.24903646  0.25666443  1
  O  O395  1  0.12043135  0.25428055  0.75522292  1
  O  O396  1  0.11904152  0.75582469  0.25607903  1
  O  O397  1  0.11342228  0.75107984  0.75206596  1
  O  O398  1  0.61974378  0.25412520  0.25559262  1
  O  O399  1  0.61563921  0.25556151  0.74943495  1
  O  O400  1  0.61520160  0.75773648  0.25637851  1
  O  O401  1  0.62555729  0.75500049  0.76526952  1
  O  O402  1  0.37916930  0.24227921  0.24352921  1
  O  O403  1  0.38323432  0.25117653  0.74173492  1
  O  O404  1  0.38196016  0.75427078  0.24178741  1
  O  O405  1  0.37009499  0.74043309  0.73984026  1
  O  O406  1  0.88204671  0.24658930  0.24215469  1
  O  O407  1  0.88129551  0.24261483  0.74563918  1
  O  O408  1  0.88468920  0.74748769  0.24743538  1
  O  O409  1  0.88723833  0.74354919  0.74814633  1
  O  O410  1  0.38172149  0.49477372  0.49662322  1
  O  O411  1  0.37450564  0.49237939  0.99274499  1
  O  O412  1  0.37672110  0.98568998  0.50966719  1
  O  O413  1  0.37965998  0.98834874  1.00690080  1
  O  O414  1  0.88205922  0.49372324  0.49488712  1
  O  O415  1  0.88156902  0.49229499  0.99285932  1
  O  O416  1  0.87990485  0.99515595  0.49374517  1
  O  O417  1  0.88074462  0.99116452  0.99087736  1
  O  O418  1  0.11875330  0.00393095  0.00599867  1
  O  O419  1  0.12018531  0.00452735  0.50470639  1
  O  O420  1  0.12007562  0.50858937  0.00010418  1
  O  O421  1  0.11838331  0.49880533  0.50641202  1
  O  O422  1  0.61789114  0.00875200  0.00215869  1
  O  O423  1  0.62319542  0.01068277  0.50720231  1
  O  O424  1  0.62124112  0.50469710  0.00497056  1
  O  O425  1  0.61993355  0.50659582  0.50628780  1
  O  O426  1  0.37124245  0.36213583  0.11906445  1
  O  O427  1  0.37589482  0.36427006  0.61905130  1
  O  O428  1  0.36804549  0.86741224  0.11717678  1
  O  O429  1  0.37152466  0.86742549  0.61966261  1
  O  O430  1  0.86809769  0.36802787  0.11825793  1
  O  O431  1  0.87063911  0.37035321  0.62040070  1
  O  O432  1  0.86766305  0.87497952  0.11540476  1
  O  O433  1  0.86613502  0.87566604  0.61781932  1
  O  O434  1  0.13405862  0.13016411  0.38046678  1
  O  O435  1  0.13175683  0.12924626  0.88063434  1
  O  O436  1  0.12319756  0.63826896  0.37545311  1
  O  O437  1  0.12495409  0.62671975  0.88772670  1
  O  O438  1  0.62989005  0.12940171  0.38236853  1
  O  O439  1  0.62925887  0.12754613  0.88660661  1
  O  O440  1  0.62956088  0.63140670  0.38219882  1
  O  O441  1  0.63459196  0.63246864  0.87388171  1
