# generated using pymatgen
data_V93Zn93O256
_symmetry_space_group_name_H-M   'P 1'
_cell_length_a   17.06018724
_cell_length_b   17.05965204
_cell_length_c   17.06193438
_cell_angle_alpha   90.01506622
_cell_angle_beta   89.96928152
_cell_angle_gamma   89.96839264
_symmetry_Int_Tables_number   1
_chemical_formula_structural   V93Zn93O256
_chemical_formula_sum   'V93 Zn93 O256'
_cell_volume   4965.71838281
_cell_formula_units_Z   1
loop_
 _symmetry_equiv_pos_site_id
 _symmetry_equiv_pos_as_xyz
  1  'x, y, z'
loop_
 _atom_site_type_symbol
 _atom_site_label
 _atom_site_symmetry_multiplicity
 _atom_site_fract_x
 _atom_site_fract_y
 _atom_site_fract_z
 _atom_site_occupancy
  V  V0  1  0.62456125  0.75031926  0.87556179  1
  V  V1  1  0.87541764  0.12554458  0.75052997  1
  V  V2  1  0.24945698  0.24920476  -0.00222569  1
  V  V3  1  0.25264152  0.75234485  0.49997008  1
  V  V4  1  0.38083850  0.24838780  0.12634610  1
  V  V5  1  0.37442545  0.75198945  0.62141789  1
  V  V6  1  0.50146108  0.87887989  0.87393922  1
  V  V7  1  0.61802441  0.12125909  0.01014047  1
  V  V8  1  0.49495513  -0.00723411  0.49956445  1
  V  V9  1  -0.00159324  0.75087090  0.25176975  1
  V  V10  1  0.25027403  0.62460146  0.37482126  1
  V  V11  1  0.00049713  0.12473890  0.62522811  1
  V  V12  1  0.12629326  0.74997215  0.87568436  1
  V  V13  1  0.62482131  0.49925768  0.62599309  1
  V  V14  1  0.62586616  0.49874459  0.12446834  1
  V  V15  1  0.00090673  0.37444718  0.37486105  1
  V  V16  1  0.24947539  0.37544333  0.12444166  1
  V  V17  1  0.62848566  -0.00764603  0.62404581  1
  V  V18  1  0.62512832  0.25062108  0.37482306  1
  V  V19  1  0.00516169  0.24965726  0.75710595  1
  V  V20  1  0.49966248  0.62496589  0.12530412  1
  V  V21  1  0.49915688  0.62462415  0.62430191  1
  V  V22  1  0.62562500  0.62462879  0.00034582  1
  V  V23  1  0.62543493  0.24930551  0.87382445  1
  V  V24  1  0.87551365  0.25020237  0.62543507  1
  V  V25  1  0.75083750  -0.00623388  0.74526541  1
  V  V26  1  0.87531406  0.12485923  0.24829133  1
  V  V27  1  0.12396986  0.75029533  0.37536543  1
  V  V28  1  0.24893497  0.25000284  0.49861673  1
  V  V29  1  0.37485547  0.37553490  0.49903519  1
  V  V30  1  0.00136335  0.87487101  0.87630725  1
  V  V31  1  0.38105756  0.12640440  0.24963325  1
  V  V32  1  0.62404159  0.12485682  0.49903884  1
  V  V33  1  0.87448412  0.50089464  0.37517549  1
  V  V34  1  0.12508626  0.62484093  -0.00023198  1
  V  V35  1  0.24878295  0.87470447  0.12487550  1
  V  V36  1  0.12434948  0.37365116  0.25042516  1
  V  V37  1  0.87539886  0.37503875  0.00005503  1
  V  V38  1  0.74970268  0.12516295  0.37385512  1
  V  V39  1  0.74653460  0.87672623  0.12453061  1
  V  V40  1  0.24730712  0.12948582  0.87487136  1
  V  V41  1  0.37673490  0.00004257  0.87482364  1
  V  V42  1  0.50101051  0.25004548  0.74847507  1
  V  V43  1  0.74430600  0.00053677  0.24459831  1
  V  V44  1  0.12526931  0.12594506  0.49987493  1
  V  V45  1  -0.00235776  0.87505542  0.37812234  1
  V  V46  1  0.00063109  0.00028368  0.00011109  1
  V  V47  1  0.74980695  0.37560510  0.62527916  1
  V  V48  1  0.12607389  0.87428926  0.75041155  1
  V  V49  1  0.12649111  0.37105918  0.75702734  1
  V  V50  1  0.62142453  0.87696216  0.24573082  1
  V  V51  1  0.12392353  0.62519710  0.50155862  1
  V  V52  1  0.25059906  0.50095900  0.25082515  1
  V  V53  1  0.12454837  0.50016913  0.12398473  1
  V  V54  1  0.62388939  0.62535056  0.49958042  1
  V  V55  1  0.37599274  0.50093805  0.87397744  1
  V  V56  1  0.75053486  0.75066483  -0.00003024  1
  V  V57  1  0.00022320  0.50120476  0.50182986  1
  V  V58  1  0.37307645  -0.00644432  0.37929818  1
  V  V59  1  0.87598721  0.37525966  0.49991730  1
  V  V60  1  0.49900177  0.75025597  0.75058901  1
  V  V61  1  0.87481148  0.75014072  0.12638917  1
  V  V62  1  0.50161724  0.37466102  0.87378389  1
  V  V63  1  0.75082501  0.24912805  0.50011185  1
  V  V64  1  -0.00767158  0.62614830  0.62896801  1
  V  V65  1  0.25437448  0.87518890  0.62028652  1
  V  V66  1  0.24881167  0.75049687  -0.00080912  1
  V  V67  1  0.87606425  0.25059604  0.12484561  1
  V  V68  1  0.00064893  0.49970584  0.00009537  1
  V  V69  1  0.50063110  0.49955891  -0.00080325  1
  V  V70  1  0.87570487  0.87600688  0.00053346  1
  V  V71  1  0.75095126  0.37521942  0.12432084  1
  V  V72  1  0.49874350  0.12443874  0.62557098  1
  V  V73  1  0.87683037  0.50204150  0.86906919  1
  V  V74  1  0.37522486  0.37474567  -0.00011903  1
  V  V75  1  0.12775812  0.12923132  -0.00232792  1
  V  V76  1  0.24887606  0.00091388  0.25056364  1
  V  V77  1  0.00062226  0.12441242  0.12454218  1
  V  V78  1  -0.00053749  0.00067056  0.50004556  1
  V  V79  1  0.74904150  0.62615500  0.37671943  1
  V  V80  1  0.37362197  0.62455495  0.74927061  1
  V  V81  1  -0.00567231  0.74514883  0.74962596  1
  V  V82  1  0.24964046  0.37577290  0.62506789  1
  V  V83  1  0.74915577  0.12487803  0.87469058  1
  V  V84  1  0.25035627  0.49934440  0.74976086  1
  V  V85  1  0.87443121  0.62602375  0.25089518  1
  V  V86  1  0.24882318  0.00044741  0.74908289  1
  V  V87  1  0.75514247  0.62366174  0.87014368  1
  V  V88  1  0.49944828  0.37373675  0.37406672  1
  V  V89  1  0.87428162  -0.00053555  0.37519971  1
  V  V90  1  0.37386509  0.74666545  0.12606831  1
  V  V91  1  0.62377412  0.75084352  0.37339378  1
  V  V92  1  0.62548492  0.37499121  0.24938658  1
  Zn  Zn93  1  0.75616382  0.50097596  0.74713932  1
  Zn  Zn94  1  0.50396169  0.24488073  0.24468960  1
  Zn  Zn95  1  0.00252799  0.24835376  0.25098040  1
  Zn  Zn96  1  0.37296111  0.12667831  0.75017770  1
  Zn  Zn97  1  0.87512963  -0.00062825  0.87420062  1
  Zn  Zn98  1  0.24928831  0.12487108  0.37468796  1
  Zn  Zn99  1  0.86229254  0.87847734  0.51259941  1
  Zn  Zn100  1  0.51321497  -0.00504210  0.02343410  1
  Zn  Zn101  1  0.37590135  0.24934905  0.62439801  1
  Zn  Zn102  1  0.63120793  0.87000081  0.74537121  1
  Zn  Zn103  1  0.75063037  0.50010910  0.24892742  1
  Zn  Zn104  1  0.12312528  0.87589346  0.24983701  1
  Zn  Zn105  1  0.62848445  0.37661705  0.75129473  1
  Zn  Zn106  1  0.12535411  -0.00212221  0.62442048  1
  Zn  Zn107  1  0.12383573  0.24979125  0.37224333  1
  Zn  Zn108  1  0.86501631  0.75675560  0.62847139  1
  Zn  Zn109  1  0.37706048  0.62284161  0.25292894  1
  Zn  Zn110  1  0.49473370  0.87089409  0.37641774  1
  Zn  Zn111  1  0.49849365  0.49989606  0.49958681  1
  Zn  Zn112  1  0.37596997  0.50159640  0.37333495  1
  Zn  Zn113  1  -0.00057981  0.62585702  0.12591182  1
  Zn  Zn114  1  0.49810016  0.74910765  0.25004426  1
  Zn  Zn115  1  0.74552432  0.76457344  0.51414016  1
  Zn  Zn116  1  0.00292462  0.37226160  0.87751477  1
  Zn  Zn117  1  0.12389647  0.50086111  0.62742852  1
  Zn  Zn118  1  0.25058059  0.62585473  0.87385405  1
  Zn  Zn119  1  0.37868848  0.87451105  0.00027289  1
  Zn  Zn120  1  0.12640738  0.00117252  0.12492063  1
  Zn  Zn121  1  0.75021870  0.24860868  -0.00042003  1
  Zn  Zn122  1  0.19017365  0.18733211  0.18455745  1
  Zn  Zn123  1  0.18750030  0.18851832  0.68583693  1
  Zn  Zn124  1  0.18533483  0.68596906  0.18920773  1
  Zn  Zn125  1  0.18453923  0.68727646  0.68691246  1
  Zn  Zn126  1  0.68935703  0.19067829  0.18703243  1
  Zn  Zn127  1  0.68698394  0.18435441  0.68674946  1
  Zn  Zn128  1  0.68754689  0.68826489  0.18850897  1
  Zn  Zn129  1  0.68527965  0.68531334  0.69003480  1
  Zn  Zn130  1  0.31114586  0.31256644  0.31207402  1
  Zn  Zn131  1  0.31511381  0.31238455  0.81180314  1
  Zn  Zn132  1  0.31030083  0.81150814  0.31112325  1
  Zn  Zn133  1  0.31308026  0.81339650  0.81025157  1
  Zn  Zn134  1  0.81336006  0.31286032  0.31085797  1
  Zn  Zn135  1  0.81426436  0.31454901  0.81188063  1
  Zn  Zn136  1  0.81057902  0.81387028  0.31651439  1
  Zn  Zn137  1  0.81465324  0.81239375  0.81450650  1
  Zn  Zn138  1  0.18567122  0.43932966  0.43639344  1
  Zn  Zn139  1  0.18903372  0.43837716  0.93625618  1
  Zn  Zn140  1  0.18481151  0.93699890  0.43736251  1
  Zn  Zn141  1  0.18880108  0.94064472  0.93833929  1
  Zn  Zn142  1  0.68789706  0.43860236  0.43851330  1
  Zn  Zn143  1  0.69009300  0.43710192  0.93767940  1
  Zn  Zn144  1  0.68286368  0.93933179  0.43336705  1
  Zn  Zn145  1  0.68708536  0.93991830  0.93619895  1
  Zn  Zn146  1  0.34470519  0.04649698  0.07827814  1
  Zn  Zn147  1  0.31246948  0.06211848  0.56318920  1
  Zn  Zn148  1  0.31121489  0.56301884  0.06152374  1
  Zn  Zn149  1  0.31096332  0.56280609  0.56211925  1
  Zn  Zn150  1  0.81163494  0.06295251  0.06122303  1
  Zn  Zn151  1  0.81364212  0.06128330  0.56243717  1
  Zn  Zn152  1  0.81357316  0.56234974  0.06064545  1
  Zn  Zn153  1  0.81100128  0.56666847  0.56202757  1
  Zn  Zn154  1  0.43755790  0.43688492  0.18812084  1
  Zn  Zn155  1  0.43772631  0.43649987  0.68639173  1
  Zn  Zn156  1  0.43635287  0.93488222  0.19184171  1
  Zn  Zn157  1  0.43734128  0.93732020  0.69006240  1
  Zn  Zn158  1  0.93854981  0.43845374  0.18851293  1
  Zn  Zn159  1  0.94088519  0.43602883  0.68713128  1
  Zn  Zn160  1  0.93571006  0.93808844  0.18777986  1
  Zn  Zn161  1  0.93915686  0.93759030  0.68885104  1
  Zn  Zn162  1  0.06268133  0.06289152  0.31311433  1
  Zn  Zn163  1  0.06398056  0.06111928  0.81340181  1
  Zn  Zn164  1  0.06237372  0.56249344  0.31271766  1
  Zn  Zn165  1  0.06408221  0.56150452  0.81296308  1
  Zn  Zn166  1  0.56057435  0.06063588  0.31398406  1
  Zn  Zn167  1  0.56601445  0.06222734  0.81148892  1
  Zn  Zn168  1  0.56130819  0.56069156  0.31026155  1
  Zn  Zn169  1  0.56387003  0.56424066  0.81149924  1
  Zn  Zn170  1  0.43605970  0.18488230  0.43523722  1
  Zn  Zn171  1  0.43668531  0.18622974  0.93728551  1
  Zn  Zn172  1  0.43641388  0.68713392  0.43860372  1
  Zn  Zn173  1  0.43663024  0.68817235  0.93824229  1
  Zn  Zn174  1  0.93798608  0.18800661  0.43558028  1
  Zn  Zn175  1  0.93648406  0.18663443  0.93895691  1
  Zn  Zn176  1  0.93311727  0.69136351  0.44412300  1
  Zn  Zn177  1  0.93898236  0.68676089  0.93814157  1
  Zn  Zn178  1  0.06170759  0.31130536  0.06285503  1
  Zn  Zn179  1  0.06353049  0.31345953  0.56670439  1
  Zn  Zn180  1  0.06264497  0.81226154  0.06394616  1
  Zn  Zn181  1  0.06163838  0.81208459  0.56477392  1
  Zn  Zn182  1  0.56514648  0.31024320  0.05931755  1
  Zn  Zn183  1  0.56346100  0.31302191  0.56138336  1
  Zn  Zn184  1  0.56118729  0.81164955  0.06129963  1
  Zn  Zn185  1  0.56265340  0.81047118  0.56113811  1
  O  O186  1  0.12069743  0.12254758  0.11516455  1
  O  O187  1  0.11998486  0.12449449  0.61398011  1
  O  O188  1  0.12338804  0.61791927  0.11814000  1
  O  O189  1  0.11640035  0.62296538  0.61781615  1
  O  O190  1  0.62929659  0.13280165  0.10859321  1
  O  O191  1  0.61538958  0.11635917  0.61936393  1
  O  O192  1  0.62080898  0.62014700  0.11901505  1
  O  O193  1  0.61798822  0.61661865  0.61980830  1
  O  O194  1  0.38303335  0.37382999  0.38268619  1
  O  O195  1  0.38195397  0.38060811  0.88044628  1
  O  O196  1  0.37641923  0.88906188  0.36716119  1
  O  O197  1  0.38555066  0.88061293  0.87296899  1
  O  O198  1  0.87948109  0.38039818  0.38093009  1
  O  O199  1  0.87636221  0.38407445  0.88239080  1
  O  O200  1  0.88663778  0.88195683  0.37271807  1
  O  O201  1  0.88299883  0.87632090  0.88388922  1
  O  O202  1  0.25588308  -0.00060100  0.36841321  1
  O  O203  1  0.25629977  0.00758126  0.86747045  1
  O  O204  1  0.25035350  0.50670047  0.36865870  1
  O  O205  1  0.25926811  0.50118389  0.86804591  1
  O  O206  1  0.75377407  0.00724706  0.36376680  1
  O  O207  1  0.74982939  0.01038837  0.86476871  1
  O  O208  1  0.75477086  0.50922269  0.37354782  1
  O  O209  1  0.75878888  0.50750169  0.87604402  1
  O  O210  1  0.24450583  0.49406935  0.12907549  1
  O  O211  1  0.24949853  0.49275803  0.63231582  1
  O  O212  1  0.25560735  0.99014809  0.13459330  1
  O  O213  1  0.25012805  0.99189447  0.63015994  1
  O  O214  1  0.74334734  0.49390317  0.12467651  1
  O  O215  1  0.74200891  0.49646469  0.62537456  1
  O  O216  1  0.75508560  0.99448350  0.13818602  1
  O  O217  1  0.73900365  1.01025075  0.63391551  1
  O  O218  1  0.00674719  0.37441536  0.25669636  1
  O  O219  1  0.00940176  0.36604436  0.75044591  1
  O  O220  1  0.00077606  0.87100130  0.26000132  1
  O  O221  1  0.00806463  0.86722135  0.75753168  1
  O  O222  1  0.50556471  0.37250930  0.25977460  1
  O  O223  1  0.50267188  0.36555385  0.75424322  1
  O  O224  1  0.50932646  0.87302316  0.25204731  1
  O  O225  1  0.50287059  0.86839874  0.75883428  1
  O  O226  1  0.48578116  0.12595094  0.25517993  1
  O  O227  1  0.50136198  0.13249931  0.74123470  1
  O  O228  1  0.49792575  0.62707497  0.24045758  1
  O  O229  1  0.49396376  0.63084965  0.74438437  1
  O  O230  1  0.99331917  0.12384954  0.24327320  1
  O  O231  1  0.99707150  0.13107197  0.74601121  1
  O  O232  1  0.99212290  0.63265611  0.25055192  1
  O  O233  1  1.00905731  0.63408780  0.74156293  1
  O  O234  1  0.37088406  0.25493301  0.00712264  1
  O  O235  1  0.36679506  0.25808361  0.49980812  1
  O  O236  1  0.36825910  0.75121539  0.00965502  1
  O  O237  1  0.36602297  0.74544950  0.50898207  1
  O  O238  1  0.87406484  0.25648940  0.00666312  1
  O  O239  1  0.87003658  0.25454420  0.50556404  1
  O  O240  1  0.87008292  0.75610165  0.00578193  1
  O  O241  1  0.86682819  0.75663163  0.50410253  1
  O  O242  1  0.13288053  0.24311140  0.50114697  1
  O  O243  1  0.13225982  0.23776666  1.00515925  1
  O  O244  1  0.13091043  0.74454022  0.49406017  1
  O  O245  1  0.12919755  0.74515027  0.99538360  1
  O  O246  1  0.63146331  0.24450069  0.49497451  1
  O  O247  1  0.62772236  0.23918615  0.99129532  1
  O  O248  1  0.62450173  0.74387750  0.48889407  1
  O  O249  1  0.63109707  0.74458852  0.99474595  1
  O  O250  1  0.48523208  0.25868166  0.12624605  1
  O  O251  1  0.50271908  0.24082792  0.63092994  1
  O  O252  1  0.48925106  0.74426908  0.12302104  1
  O  O253  1  0.49527710  0.74506069  0.62997237  1
  O  O254  1  0.99330334  0.24215447  0.12718544  1
  O  O255  1  0.99421145  0.24449457  0.63354851  1
  O  O256  1  0.99245892  0.75052240  0.13304160  1
  O  O257  1  1.00395118  0.74074233  0.63553445  1
  O  O258  1  0.00198717  0.25857757  0.37234248  1
  O  O259  1  -0.00559285  0.25026636  0.86041887  1
  O  O260  1  0.00335941  0.75800450  0.37193449  1
  O  O261  1  0.00661615  0.75425149  0.86957520  1
  O  O262  1  0.50635939  0.25921567  0.37526729  1
  O  O263  1  0.50420949  0.25424787  0.86619272  1
  O  O264  1  0.51031823  0.75047791  0.37313493  1
  O  O265  1  0.50399864  0.75824225  0.87159439  1
  O  O266  1  0.24236479  0.13320158  0.50164827  1
  O  O267  1  0.24322620  0.12976481  0.99144881  1
  O  O268  1  0.24364971  0.63104868  0.49516446  1
  O  O269  1  0.24317006  0.63213840  0.99777218  1
  O  O270  1  0.74451302  0.12954657  0.49372118  1
  O  O271  1  0.74167765  0.12464069  0.98917296  1
  O  O272  1  0.74219996  0.62361168  0.48628421  1
  O  O273  1  0.74440547  0.63129095  0.99263411  1
  O  O274  1  0.25590373  0.36980804  0.00345581  1
  O  O275  1  0.25549713  0.36841143  0.50355434  1
  O  O276  1  0.25102589  0.86984580  0.00985396  1
  O  O277  1  0.24261384  0.86946819  0.51251269  1
  O  O278  1  0.75703057  0.37216135  0.00651713  1
  O  O279  1  0.75628246  0.36865134  0.50471556  1
  O  O280  1  0.75390736  0.87072074  0.00408900  1
  O  O281  1  0.75134924  0.87525377  0.48816619  1
  O  O282  1  0.13032378  0.49450815  0.24376321  1
  O  O283  1  0.13224799  0.48989095  0.74925699  1
  O  O284  1  0.13791500  1.00064529  0.24848874  1
  O  O285  1  0.13154497  0.99293524  0.74793457  1
  O  O286  1  0.62644045  0.49250386  0.24159463  1
  O  O287  1  0.62629144  0.49945116  0.73655440  1
  O  O288  1  0.63401997  0.99043888  0.25736053  1
  O  O289  1  0.63359780  0.99945361  0.74002017  1
  O  O290  1  0.36554456  0.00800123  0.25989692  1
  O  O291  1  0.36811662  0.00254511  0.75899500  1
  O  O292  1  0.36583102  0.50097657  0.25137878  1
  O  O293  1  0.37096013  0.50417730  0.75449487  1
  O  O294  1  0.86506926  0.00533228  0.25544860  1
  O  O295  1  0.86732044  0.00823300  0.75099417  1
  O  O296  1  0.87376127  0.50726638  0.25760339  1
  O  O297  1  0.87659157  0.49427473  0.76488115  1
  O  O298  1  0.11814924  0.37458397  0.36871426  1
  O  O299  1  0.12495569  0.37682768  0.86150379  1
  O  O300  1  0.11509662  0.86943039  0.37231004  1
  O  O301  1  0.12095348  0.86988951  0.87143001  1
  O  O302  1  0.61862514  0.37024418  0.37171345  1
  O  O303  1  0.61947232  0.36857443  0.87414694  1
  O  O304  1  0.62189158  0.86574449  0.36338866  1
  O  O305  1  0.61659345  0.86954918  0.87359348  1
  O  O306  1  0.36300672  0.14199535  0.13738975  1
  O  O307  1  0.38795182  0.12617102  0.62673172  1
  O  O308  1  0.37973658  0.63305888  0.12434866  1
  O  O309  1  0.38018433  0.63011708  0.63000412  1
  O  O310  1  0.87992410  0.13013113  0.12870827  1
  O  O311  1  0.88069744  0.13114267  0.63043242  1
  O  O312  1  0.87463060  0.63241899  0.13171201  1
  O  O313  1  0.89037384  0.62576813  0.62132895  1
  O  O314  1  0.25829411  0.25833363  0.11787665  1
  O  O315  1  0.25316156  0.25560645  0.61413835  1
  O  O316  1  0.25460686  0.75542621  0.12106628  1
  O  O317  1  0.25429858  0.75708134  0.62077663  1
  O  O318  1  0.75858728  0.25759430  0.12260556  1
  O  O319  1  0.75496543  0.25333543  0.61930262  1
  O  O320  1  0.75481297  0.75607252  0.11911965  1
  O  O321  1  0.75258206  0.73880998  0.62444052  1
  O  O322  1  0.24761378  0.24895895  0.38835494  1
  O  O323  1  0.26000185  0.23755018  0.88093961  1
  O  O324  1  0.24438910  0.74603862  0.38009348  1
  O  O325  1  0.24458212  0.75085480  0.88106235  1
  O  O326  1  0.74534148  0.24479813  0.38053465  1
  O  O327  1  0.74538326  0.23955894  0.87262193  1
  O  O328  1  0.73731313  0.73952275  0.37075763  1
  O  O329  1  0.74596639  0.74322001  0.88031544  1
  O  O330  1  0.00839657  0.12091920  0.00311556  1
  O  O331  1  0.00720868  0.12208978  0.50452917  1
  O  O332  1  0.00749936  0.61859461  0.00279800  1
  O  O333  1  0.00498802  0.62075333  0.50730982  1
  O  O334  1  0.51585507  0.12383025  -0.00743938  1
  O  O335  1  0.50430317  0.11839315  0.50778176  1
  O  O336  1  0.50596270  0.61914069  0.00453468  1
  O  O337  1  0.50590302  0.62198166  0.50658799  1
  O  O338  1  0.49133791  0.37320894  0.49206953  1
  O  O339  1  0.49508650  0.38013749  0.99341558  1
  O  O340  1  0.50318093  0.88963371  0.49882701  1
  O  O341  1  0.50019997  0.87918146  0.98806841  1
  O  O342  1  0.99475149  0.38022010  0.49685154  1
  O  O343  1  0.99504422  0.38071172  0.99779876  1
  O  O344  1  1.00573198  0.88234458  0.48794028  1
  O  O345  1  0.99600949  0.87997377  0.99617245  1
  O  O346  1  0.49976590  0.48622959  0.37795870  1
  O  O347  1  0.49618930  0.49506557  0.87935618  1
  O  O348  1  0.49126879  0.99963008  0.38445751  1
  O  O349  1  0.49295498  0.99140676  0.86844336  1
  O  O350  1  0.99376397  0.49512915  0.38195300  1
  O  O351  1  0.99225737  0.49930587  0.88155178  1
  O  O352  1  0.99505054  0.99361372  0.37900067  1
  O  O353  1  0.99866481  0.99321863  0.88164938  1
  O  O354  1  0.00113673  0.00596064  0.11845955  1
  O  O355  1  0.00336489  0.00904643  0.61868927  1
  O  O356  1  0.00694591  0.50178555  0.11820151  1
  O  O357  1  0.00133566  0.50796036  0.61994347  1
  O  O358  1  0.45082621  0.00842327  0.11246643  1
  O  O359  1  0.50522959  0.00680971  0.61992093  1
  O  O360  1  0.50540886  0.50390445  0.11788781  1
  O  O361  1  0.50812201  0.50494699  0.62330670  1
  O  O362  1  0.24427974  0.38080739  0.24460441  1
  O  O363  1  0.24521313  0.37706418  0.74551997  1
  O  O364  1  0.24866349  0.88351659  0.24193535  1
  O  O365  1  0.24447397  0.87975706  0.74207879  1
  O  O366  1  0.74328473  0.37703215  0.24350096  1
  O  O367  1  0.74778359  0.37768828  0.74080400  1
  O  O368  1  0.74200868  0.88237768  0.24591066  1
  O  O369  1  0.74979459  0.88997339  0.75819930  1
  O  O370  1  0.25721395  0.11592708  0.25202155  1
  O  O371  1  0.24968861  0.12142416  0.75740587  1
  O  O372  1  0.24994869  0.61835471  0.25710331  1
  O  O373  1  0.25615999  0.61848994  0.74996233  1
  O  O374  1  0.75317216  0.11805462  0.25362524  1
  O  O375  1  0.75464469  0.11832764  0.75684256  1
  O  O376  1  0.75458252  0.62337404  0.26026873  1
  O  O377  1  0.74476951  0.62115534  0.76761137  1
  O  O378  1  0.37040647  0.11644886  0.36723213  1
  O  O379  1  0.36652546  0.11702564  0.87298971  1
  O  O380  1  0.36687299  0.62231897  0.37357971  1
  O  O381  1  0.37507624  0.61889851  0.86774978  1
  O  O382  1  0.86886694  0.12002507  0.36876766  1
  O  O383  1  0.86463409  0.12407115  0.87005587  1
  O  O384  1  0.86623922  0.62130986  0.37165886  1
  O  O385  1  0.86541256  0.61496749  0.88424164  1
  O  O386  1  0.13076334  0.38050942  0.12931665  1
  O  O387  1  0.13198883  0.37748546  0.63599715  1
  O  O388  1  0.13718255  0.87732517  0.12750532  1
  O  O389  1  0.13581025  0.87518135  0.63208829  1
  O  O390  1  0.63003908  0.37868935  0.12863937  1
  O  O391  1  0.63076367  0.38390121  0.62344291  1
  O  O392  1  0.63024287  0.86842502  0.13643854  1
  O  O393  1  0.61879356  0.88926265  0.62618034  1
  O  O394  1  0.12541587  0.25744789  0.25110472  1
  O  O395  1  0.11568886  0.25802983  0.74365307  1
  O  O396  1  0.11732062  0.75118144  0.25778779  1
  O  O397  1  0.11878986  0.75561922  0.75715416  1
  O  O398  1  0.62315986  0.25586361  0.25656837  1
  O  O399  1  0.61496026  0.24982984  0.75379995  1
  O  O400  1  0.62317328  0.75821979  0.25708807  1
  O  O401  1  0.61675835  0.75066716  0.75821751  1
  O  O402  1  0.37527411  0.24351080  0.24441127  1
  O  O403  1  0.38912759  0.24832642  0.74652232  1
  O  O404  1  0.37514977  0.74730138  0.23760880  1
  O  O405  1  0.37997158  0.74368378  0.74301788  1
  O  O406  1  0.87583365  0.24182452  0.24329643  1
  O  O407  1  0.88353909  0.24546701  0.74376302  1
  O  O408  1  0.87830317  0.74593001  0.24653007  1
  O  O409  1  0.89187591  0.75258384  0.75351570  1
  O  O410  1  0.37489556  0.48618289  0.49764276  1
  O  O411  1  0.38086808  0.49451866  0.99480540  1
  O  O412  1  0.38317697  1.00778343  0.49025629  1
  O  O413  1  0.36820645  0.99461132  0.97847928  1
  O  O414  1  0.87990155  0.49455346  0.49461159  1
  O  O415  1  0.88143901  0.49424565  0.99325114  1
  O  O416  1  0.88277407  1.00214126  0.49188098  1
  O  O417  1  0.88143957  0.99362902  0.99844300  1
  O  O418  1  0.12031473  0.01092506  0.00255353  1
  O  O419  1  0.11952315  0.01103942  0.50081477  1
  O  O420  1  0.12109001  0.50410192  0.00434026  1
  O  O421  1  0.11758035  0.50675549  0.50201227  1
  O  O422  1  0.62529937  0.01485253  -0.00203799  1
  O  O423  1  0.61552944  0.00688193  0.50517926  1
  O  O424  1  0.61937726  0.50455793  0.00462407  1
  O  O425  1  0.62345165  0.50501447  0.51082831  1
  O  O426  1  0.36867437  0.36923049  0.11924144  1
  O  O427  1  0.37049231  0.37220767  0.61445073  1
  O  O428  1  0.36334443  0.86211639  0.12434074  1
  O  O429  1  0.36220504  0.86861497  0.63270929  1
  O  O430  1  0.87080542  0.37122502  0.12023499  1
  O  O431  1  0.87030817  0.37000383  0.61902707  1
  O  O432  1  0.86719027  0.86947335  0.12018372  1
  O  O433  1  0.88686788  0.86949347  0.62214907  1
  O  O434  1  0.12636517  0.12760937  0.38820899  1
  O  O435  1  0.13695300  0.11927978  0.88446088  1
  O  O436  1  0.12959385  0.63103923  0.38151519  1
  O  O437  1  0.12797973  0.63178645  0.88197113  1
  O  O438  1  0.62969241  0.13054293  0.37938629  1
  O  O439  1  0.63420213  0.13003427  0.87835546  1
  O  O440  1  0.62980167  0.63063041  0.37740981  1
  O  O441  1  0.63185507  0.62971196  0.88215490  1
