# generated using pymatgen
data_V93Zn93O256
_symmetry_space_group_name_H-M   'P 1'
_cell_length_a   17.05145475
_cell_length_b   17.04948427
_cell_length_c   17.04899121
_cell_angle_alpha   90.06586617
_cell_angle_beta   89.98759901
_cell_angle_gamma   90.03519330
_symmetry_Int_Tables_number   1
_chemical_formula_structural   V93Zn93O256
_chemical_formula_sum   'V93 Zn93 O256'
_cell_volume   4956.45298666
_cell_formula_units_Z   1
loop_
 _symmetry_equiv_pos_site_id
 _symmetry_equiv_pos_as_xyz
  1  'x, y, z'
loop_
 _atom_site_type_symbol
 _atom_site_label
 _atom_site_symmetry_multiplicity
 _atom_site_fract_x
 _atom_site_fract_y
 _atom_site_fract_z
 _atom_site_occupancy
  V  V0  1  0.49892834  0.37199561  0.87179245  1
  V  V1  1  0.24850389  0.00167218  0.25059620  1
  V  V2  1  0.12289814  0.50249853  0.62536971  1
  V  V3  1  0.87430666  0.49806321  0.87470049  1
  V  V4  1  0.25071378  0.75095064  0.50163819  1
  V  V5  1  0.24685053  0.24552867  0.50072197  1
  V  V6  1  0.49914551  0.49821003  -0.00104671  1
  V  V7  1  0.00342120  0.87486206  0.87718948  1
  V  V8  1  0.62967874  -0.00402713  0.63112853  1
  V  V9  1  0.87681027  0.87410587  0.00104441  1
  V  V10  1  0.87664542  0.00070007  0.38108035  1
  V  V11  1  0.74911545  0.49822579  0.74929144  1
  V  V12  1  -0.00034996  0.12400532  0.12445310  1
  V  V13  1  0.87402229  0.62615394  0.25074402  1
  V  V14  1  0.74935987  0.87418521  0.12473769  1
  V  V15  1  0.74857277  0.37371338  0.12362919  1
  V  V16  1  0.62446625  0.74821634  0.87542743  1
  V  V17  1  0.49995267  0.12033857  0.11659574  1
  V  V18  1  0.74929339  0.62561450  0.37655467  1
  V  V19  1  0.12450071  0.12457434  0.00025832  1
  V  V20  1  0.37488673  0.50648325  0.87114235  1
  V  V21  1  0.37610410  0.00118984  0.37629713  1
  V  V22  1  0.49967532  0.87599400  0.37419975  1
  V  V23  1  0.87620243  0.12077625  0.74727628  1
  V  V24  1  0.87416886  0.24866002  0.12421285  1
  V  V25  1  0.49738932  0.62476811  0.62662721  1
  V  V26  1  0.74879257  0.49970607  0.24875606  1
  V  V27  1  0.37916254  0.87708072  0.00082989  1
  V  V28  1  0.37697037  0.87593970  0.50062557  1
  V  V29  1  0.38220644  0.13351269  0.74941975  1
  V  V30  1  -0.00026637  0.49969207  0.00074664  1
  V  V31  1  0.12538122  0.24950098  0.87578816  1
  V  V32  1  0.37573118  0.75032208  0.62792347  1
  V  V33  1  0.24823160  0.50163716  0.25106156  1
  V  V34  1  0.37474761  0.74991828  0.12547394  1
  V  V35  1  0.62459809  0.62448252  0.50041224  1
  V  V36  1  0.75190445  0.75912000  0.50815064  1
  V  V37  1  0.62095462  0.24828735  0.87104019  1
  V  V38  1  0.24992620  0.37329882  0.12590134  1
  V  V39  1  -0.00031352  0.24974897  0.25074114  1
  V  V40  1  0.25134507  0.00005455  0.75058071  1
  V  V41  1  0.12364359  0.49991327  0.12574804  1
  V  V42  1  0.12820789  0.87674265  0.75175183  1
  V  V43  1  0.37350499  0.62526377  0.25111852  1
  V  V44  1  0.12310102  0.62566894  0.50205487  1
  V  V45  1  -0.00017182  0.37387677  0.87439507  1
  V  V46  1  0.00734805  0.12466377  0.61072985  1
  V  V47  1  -0.00041481  0.37676729  0.37705964  1
  V  V48  1  0.74995992  -0.00031323  0.24904572  1
  V  V49  1  0.24896877  0.62586741  0.37545467  1
  V  V50  1  0.24988466  0.12579806  0.87744397  1
  V  V51  1  0.62424288  0.49728249  0.12400214  1
  V  V52  1  0.49830647  0.24874924  0.24699821  1
  V  V53  1  0.00138115  0.24849192  0.74897711  1
  V  V54  1  0.50073368  0.74969731  0.25092147  1
  V  V55  1  0.74998633  0.37337890  0.62318189  1
  V  V56  1  0.87617684  0.24978638  0.62343062  1
  V  V57  1  0.00021128  -0.00025506  0.00079721  1
  V  V58  1  0.12307638  0.75202232  0.37658410  1
  V  V59  1  0.49764001  0.74580353  0.75152626  1
  V  V60  1  0.24911214  0.87470778  0.12644691  1
  V  V61  1  0.62420637  0.87470978  0.24980315  1
  V  V62  1  0.75150092  0.12006467  0.86850276  1
  V  V63  1  -0.00237276  0.87919716  0.38442728  1
  V  V64  1  0.62128082  -0.00110950  0.11651665  1
  V  V65  1  0.87369314  -0.00206053  0.87039127  1
  V  V66  1  0.00207585  0.74895811  0.74945480  1
  V  V67  1  0.24993074  0.37611632  0.62476000  1
  V  V68  1  0.87364858  0.12363124  0.24907679  1
  V  V69  1  -0.00194686  0.75115227  0.25273403  1
  V  V70  1  0.37385017  0.37575467  0.49889531  1
  V  V71  1  0.12782554  0.00723724  0.61219470  1
  V  V72  1  0.62457292  0.62275053  -0.00000404  1
  V  V73  1  0.62580464  0.24925080  0.37350470  1
  V  V74  1  0.87548871  0.62512523  0.74919891  1
  V  V75  1  0.87526715  0.74967834  0.12678483  1
  V  V76  1  0.61909716  0.36983669  0.74722345  1
  V  V77  1  0.37497685  0.12497981  0.24989543  1
  V  V78  1  0.74981756  0.24752113  -0.00220860  1
  V  V79  1  0.25312426  0.50711783  0.75126029  1
  V  V80  1  0.75104186  0.74732151  0.00085816  1
  V  V81  1  0.62175341  0.12467468  0.49851685  1
  V  V82  1  0.12443408  0.24344165  0.37872220  1
  V  V83  1  0.12688703  0.62606835  -0.00152403  1
  V  V84  1  0.74928355  0.62199317  0.87513078  1
  V  V85  1  0.49829965  0.37698287  0.37344620  1
  V  V86  1  0.87442693  0.49977359  0.37599442  1
  V  V87  1  0.87485264  0.37361068  -0.00091574  1
  V  V88  1  0.49911401  0.62326981  0.12577196  1
  V  V89  1  0.12547467  0.37562570  0.75050310  1
  V  V90  1  0.37359992  0.37417518  -0.00011450  1
  V  V91  1  0.50229123  0.87585007  0.87666282  1
  V  V92  1  0.38083691  -0.00012165  0.87777978  1
  Zn  Zn93  1  0.87444479  0.88587402  0.51110993  1
  Zn  Zn94  1  0.38184324  0.25613895  0.63098115  1
  Zn  Zn95  1  0.13034600  0.75000448  0.87500730  1
  Zn  Zn96  1  0.12344669  0.00003286  0.12655202  1
  Zn  Zn97  1  0.62360101  0.37395087  0.24789688  1
  Zn  Zn98  1  0.49958904  0.00051846  0.50381666  1
  Zn  Zn99  1  0.37461067  0.24686810  0.12230691  1
  Zn  Zn100  1  0.25059577  0.87719224  0.62508268  1
  Zn  Zn101  1  0.87049816  0.75962561  0.63127500  1
  Zn  Zn102  1  0.49813475  0.50148817  0.49954036  1
  Zn  Zn103  1  0.25426583  0.62934368  0.87311619  1
  Zn  Zn104  1  0.62229060  0.11988929  -0.00552499  1
  Zn  Zn105  1  -0.00332478  0.50318668  0.50240832  1
  Zn  Zn106  1  0.74989549  0.12544782  0.37326678  1
  Zn  Zn107  1  0.79443887  -0.06538201  0.68882740  1
  Zn  Zn108  1  0.24943206  0.24905090  0.00204923  1
  Zn  Zn109  1  0.62257045  0.49779250  0.62442910  1
  Zn  Zn110  1  0.37371171  0.50205946  0.37497347  1
  Zn  Zn111  1  0.24970311  0.74979144  -0.00268797  1
  Zn  Zn112  1  0.24704447  0.12340649  0.38031664  1
  Zn  Zn113  1  -0.00450420  0.62632666  0.62259564  1
  Zn  Zn114  1  0.75051360  0.25151981  0.49645147  1
  Zn  Zn115  1  0.12501606  0.37542142  0.25129576  1
  Zn  Zn116  1  0.87330694  0.37628417  0.50017595  1
  Zn  Zn117  1  0.63284119  0.87328487  0.74706230  1
  Zn  Zn118  1  0.62655120  0.75217088  0.37543804  1
  Zn  Zn119  1  0.12186024  0.87619124  0.25143683  1
  Zn  Zn120  1  -0.00045098  0.62516205  0.12622512  1
  Zn  Zn121  1  0.50519705  0.13170950  0.62936647  1
  Zn  Zn122  1  0.18460430  0.18825029  0.18964741  1
  Zn  Zn123  1  0.19140612  0.18811689  0.68704050  1
  Zn  Zn124  1  0.18436670  0.68850545  0.18808142  1
  Zn  Zn125  1  0.18672685  0.68813272  0.68648893  1
  Zn  Zn126  1  0.68536343  0.18521454  0.18681832  1
  Zn  Zn127  1  0.68832518  0.18598411  0.68579612  1
  Zn  Zn128  1  0.68655609  0.68638816  0.18780352  1
  Zn  Zn129  1  0.68484468  0.68712956  0.68835835  1
  Zn  Zn130  1  0.31165748  0.31065423  0.31186751  1
  Zn  Zn131  1  0.30945727  0.31609095  0.81540336  1
  Zn  Zn132  1  0.31293144  0.81272645  0.31335084  1
  Zn  Zn133  1  0.31332753  0.81157461  0.81269832  1
  Zn  Zn134  1  0.81265992  0.31439230  0.30971379  1
  Zn  Zn135  1  0.81109797  0.30853603  0.80894592  1
  Zn  Zn136  1  0.81145134  0.81385657  0.31706660  1
  Zn  Zn137  1  0.81477557  0.80834124  0.81711807  1
  Zn  Zn138  1  0.18476936  0.43760016  0.43815409  1
  Zn  Zn139  1  0.18808670  0.43906301  0.93825919  1
  Zn  Zn140  1  0.19093082  0.93385409  0.43546468  1
  Zn  Zn141  1  0.18938141  0.93881343  0.93898604  1
  Zn  Zn142  1  0.68533985  0.43879142  0.43739743  1
  Zn  Zn143  1  0.68677132  0.43436750  0.93623045  1
  Zn  Zn144  1  0.68606185  0.94147586  0.43666050  1
  Zn  Zn145  1  0.69153986  0.93474505  0.93398321  1
  Zn  Zn146  1  0.31311423  0.06092023  0.06264901  1
  Zn  Zn147  1  0.31410247  0.06285388  0.56476551  1
  Zn  Zn148  1  0.31130110  0.56047424  0.06212560  1
  Zn  Zn149  1  0.31139454  0.56313029  0.56276889  1
  Zn  Zn150  1  0.81069948  0.06150013  0.05878980  1
  Zn  Zn151  1  0.80849929  0.07214846  0.56043424  1
  Zn  Zn152  1  0.81318387  0.56168760  0.06368628  1
  Zn  Zn153  1  0.81276945  0.56397666  0.56384580  1
  Zn  Zn154  1  0.43432010  0.43759712  0.18844273  1
  Zn  Zn155  1  0.43667142  0.43917333  0.68681201  1
  Zn  Zn156  1  0.43751437  0.93931638  0.18898666  1
  Zn  Zn157  1  0.44589982  0.93927987  0.68761537  1
  Zn  Zn158  1  0.93672850  0.43697473  0.18894298  1
  Zn  Zn159  1  0.93753603  0.43784951  0.68708411  1
  Zn  Zn160  1  0.93720811  0.93676642  0.19112507  1
  Zn  Zn161  1  0.95450440  0.94007128  0.68539769  1
  Zn  Zn162  1  0.06027870  0.06194926  0.31458969  1
  Zn  Zn163  1  0.06214455  0.06318702  0.81016727  1
  Zn  Zn164  1  0.06206968  0.56411015  0.31329441  1
  Zn  Zn165  1  0.06355262  0.56287068  0.81352085  1
  Zn  Zn166  1  0.56096766  0.06152163  0.30862882  1
  Zn  Zn167  1  0.56393080  0.06166586  0.81216981  1
  Zn  Zn168  1  0.56350246  0.56185255  0.31241942  1
  Zn  Zn169  1  0.56241843  0.55929909  0.81056452  1
  Zn  Zn170  1  0.43645183  0.18915390  0.43710069  1
  Zn  Zn171  1  0.43642416  0.18922645  0.93776311  1
  Zn  Zn172  1  0.43723256  0.69029389  0.43759738  1
  Zn  Zn173  1  0.43714696  0.68883734  0.94109501  1
  Zn  Zn174  1  0.93422942  0.18963672  0.43637596  1
  Zn  Zn175  1  0.93749492  0.18560027  0.93598406  1
  Zn  Zn176  1  0.93514710  0.68987913  0.43936014  1
  Zn  Zn177  1  0.94025544  0.68647503  0.93600403  1
  Zn  Zn178  1  0.06304331  0.31184836  0.06253250  1
  Zn  Zn179  1  0.06305719  0.31378802  0.56202389  1
  Zn  Zn180  1  0.06366238  0.81083665  0.06504518  1
  Zn  Zn181  1  0.06462244  0.81694846  0.56624478  1
  Zn  Zn182  1  0.56169138  0.30888114  0.05881856  1
  Zn  Zn183  1  0.55842608  0.30810431  0.56169404  1
  Zn  Zn184  1  0.56230883  0.81081780  0.06234051  1
  Zn  Zn185  1  0.56369309  0.81335855  0.56087181  1
  O  O186  1  0.11720149  0.12393009  0.11897013  1
  O  O187  1  0.11917860  0.11946094  0.63169473  1
  O  O188  1  0.12250792  0.61889769  0.11656476  1
  O  O189  1  0.12276411  0.61986767  0.61921694  1
  O  O190  1  0.61765213  0.11554257  0.12228251  1
  O  O191  1  0.62562927  0.11841695  0.61614797  1
  O  O192  1  0.61917436  0.61787723  0.11906747  1
  O  O193  1  0.61466883  0.62478088  0.61697525  1
  O  O194  1  0.38257745  0.37568818  0.38087889  1
  O  O195  1  0.37981252  0.38304672  0.87979692  1
  O  O196  1  0.37970956  0.88066593  0.38050904  1
  O  O197  1  0.38287211  0.88061709  0.88118478  1
  O  O198  1  0.88306057  0.38010418  0.37489888  1
  O  O199  1  0.87935971  0.37788970  0.87879667  1
  O  O200  1  0.88116240  0.88445024  0.37797198  1
  O  O201  1  0.88342880  0.87844323  0.88309282  1
  O  O202  1  0.25550899  0.00181666  0.36603393  1
  O  O203  1  0.26057504  0.00425772  0.86854501  1
  O  O204  1  0.24850716  0.50775818  0.36892351  1
  O  O205  1  0.25859929  0.49948582  0.86758409  1
  O  O206  1  0.75736524  0.00093491  0.36537479  1
  O  O207  1  0.75703105  0.01203736  0.88090935  1
  O  O208  1  0.75372088  0.50458440  0.36874167  1
  O  O209  1  0.75467607  0.50274061  0.87004757  1
  O  O210  1  0.24429543  0.49183394  0.13075769  1
  O  O211  1  0.24518847  0.49632715  0.63311934  1
  O  O212  1  0.25142350  0.99075174  0.13395650  1
  O  O213  1  0.24629881  1.00134624  0.63744335  1
  O  O214  1  0.74402758  0.49377326  0.12804087  1
  O  O215  1  0.74845958  0.48952848  0.63119677  1
  O  O216  1  0.74338124  0.99336772  0.12877135  1
  O  O217  1  0.73605004  1.00608468  0.62183178  1
  O  O218  1  -0.00085698  0.36846469  0.26029671  1
  O  O219  1  0.00566322  0.36899324  0.75534195  1
  O  O220  1  -0.00012309  0.86885188  0.26159096  1
  O  O221  1  0.00875079  0.86798661  0.75833796  1
  O  O222  1  0.49883667  0.36926185  0.25792433  1
  O  O223  1  0.51186577  0.38075789  0.75434592  1
  O  O224  1  0.50409554  0.86889200  0.25368265  1
  O  O225  1  0.50451678  0.86483065  0.76145423  1
  O  O226  1  0.49430217  0.12917202  0.23958182  1
  O  O227  1  0.48348614  0.12267216  0.75591584  1
  O  O228  1  0.49452868  0.62894383  0.24479488  1
  O  O229  1  0.50640613  0.63494452  0.74010274  1
  O  O230  1  0.99355823  0.12996775  0.24393431  1
  O  O231  1  0.99451156  0.13158605  0.74423533  1
  O  O232  1  0.99143910  0.63269881  0.25076528  1
  O  O233  1  0.99542293  0.63419278  0.75179837  1
  O  O234  1  0.37025579  0.25865592  0.00165009  1
  O  O235  1  0.36564850  0.26375650  0.49640204  1
  O  O236  1  0.37258443  0.75944132  0.00745959  1
  O  O237  1  0.37065144  0.75626182  0.50862758  1
  O  O238  1  0.87062019  0.25449207  0.00422230  1
  O  O239  1  0.87004304  0.25424756  0.50743306  1
  O  O240  1  0.87094105  0.75375193  0.00536493  1
  O  O241  1  0.85973219  0.75184477  0.50403288  1
  O  O242  1  0.13657156  0.25886764  0.49127902  1
  O  O243  1  0.12494239  0.24260966  0.99317904  1
  O  O244  1  0.13131406  0.74698549  0.49742458  1
  O  O245  1  0.12624724  0.73927474  0.99976548  1
  O  O246  1  0.62420572  0.24372179  0.48755452  1
  O  O247  1  0.63197262  0.24798334  0.98692936  1
  O  O248  1  0.63409741  0.74127742  0.49942128  1
  O  O249  1  0.63032768  0.74192926  0.99589736  1
  O  O250  1  0.49987629  0.23972051  0.12950973  1
  O  O251  1  0.49327475  0.24395522  0.62350469  1
  O  O252  1  0.49473626  0.74287490  0.13031621  1
  O  O253  1  0.49572476  0.74496879  0.63233369  1
  O  O254  1  0.99358242  0.24500121  0.12992875  1
  O  O255  1  0.99765115  0.24467215  0.63059476  1
  O  O256  1  0.99226914  0.75002098  0.13388627  1
  O  O257  1  0.99887924  0.75174538  0.64012121  1
  O  O258  1  0.00527212  0.25734923  0.37113841  1
  O  O259  1  0.00517980  0.25465159  0.86926982  1
  O  O260  1  0.00258758  0.75896665  0.37148639  1
  O  O261  1  0.00335753  0.75586830  0.86541183  1
  O  O262  1  0.50656107  0.25823412  0.36827115  1
  O  O263  1  0.51322990  0.25510895  0.88013984  1
  O  O264  1  0.50179673  0.75723002  0.36777570  1
  O  O265  1  0.50283421  0.75417255  0.86912969  1
  O  O266  1  0.25987419  0.14173655  0.50004179  1
  O  O267  1  0.24402806  0.12469282  0.99473353  1
  O  O268  1  0.24428616  0.63216990  0.49555224  1
  O  O269  1  0.23925087  0.62542025  1.00025365  1
  O  O270  1  0.73517628  0.13168407  0.49307123  1
  O  O271  1  0.74972187  0.13082366  0.98759105  1
  O  O272  1  0.74101625  0.63217841  0.49697940  1
  O  O273  1  0.74442154  0.62745173  0.99518250  1
  O  O274  1  0.25420258  0.37593121  0.01058957  1
  O  O275  1  0.25670886  0.36968714  0.50423101  1
  O  O276  1  0.26006979  0.87548410  0.01024854  1
  O  O277  1  0.25891500  0.86774497  0.50342712  1
  O  O278  1  0.75573656  0.36836060  0.00359812  1
  O  O279  1  0.74772010  0.37447425  0.51226898  1
  O  O280  1  0.75669946  0.86647419  0.00446402  1
  O  O281  1  0.74724060  0.86073695  0.49581709  1
  O  O282  1  0.13045488  0.49987607  0.24386349  1
  O  O283  1  0.13238725  0.49413585  0.74678351  1
  O  O284  1  0.13656604  0.99895677  0.24969256  1
  O  O285  1  0.13788446  0.99710416  0.74905633  1
  O  O286  1  0.63079949  0.49810122  0.24174349  1
  O  O287  1  0.63136990  0.48797613  0.74879231  1
  O  O288  1  0.63048345  0.99393440  0.23939829  1
  O  O289  1  0.62221416  1.00116865  0.73452313  1
  O  O290  1  0.36627882  0.00439040  0.25546570  1
  O  O291  1  0.36900505  0.00536529  0.75943904  1
  O  O292  1  0.36691833  0.50850439  0.25162318  1
  O  O293  1  0.36529713  0.49324693  0.75990370  1
  O  O294  1  0.86880636  0.00484679  0.25723234  1
  O  O295  1  0.87856753  0.00373931  0.75378569  1
  O  O296  1  0.86784323  0.50609356  0.25476935  1
  O  O297  1  0.86917808  0.50415973  0.75636931  1
  O  O298  1  0.11496329  0.36745248  0.37303745  1
  O  O299  1  0.11922458  0.37059638  0.87092913  1
  O  O300  1  0.11554947  0.87047578  0.37505964  1
  O  O301  1  0.12098666  0.87519091  0.87020909  1
  O  O302  1  0.61486756  0.36739540  0.37414204  1
  O  O303  1  0.62087104  0.36692249  0.86651869  1
  O  O304  1  0.61822499  0.87540311  0.36693650  1
  O  O305  1  0.61398852  0.86713591  0.88080358  1
  O  O306  1  0.38373774  0.12303973  0.12999938  1
  O  O307  1  0.37415870  0.12381091  0.64410480  1
  O  O308  1  0.37979046  0.62927945  0.13007594  1
  O  O309  1  0.38594009  0.63833351  0.61644791  1
  O  O310  1  0.87960677  0.12952131  0.12824380  1
  O  O311  1  0.88458998  0.12938666  0.62815636  1
  O  O312  1  0.87514529  0.63174186  0.13202183  1
  O  O313  1  0.87558456  0.63028775  0.63531018  1
  O  O314  1  0.25001263  0.26164110  0.12505121  1
  O  O315  1  0.25431027  0.25801116  0.61764041  1
  O  O316  1  0.25630737  0.76111823  0.12766591  1
  O  O317  1  0.26109229  0.75167639  0.62261951  1
  O  O318  1  0.75459570  0.25329081  0.11896630  1
  O  O319  1  0.75628744  0.25953740  0.62534860  1
  O  O320  1  0.75446951  0.75434874  0.11958753  1
  O  O321  1  0.74754605  0.74801358  0.61220864  1
  O  O322  1  0.24050489  0.25020479  0.38159247  1
  O  O323  1  0.24216005  0.24445006  0.87777417  1
  O  O324  1  0.24398996  0.74628385  0.38114144  1
  O  O325  1  0.24908269  0.74589079  0.87783494  1
  O  O326  1  0.73685376  0.25149048  0.37208586  1
  O  O327  1  0.74295692  0.24176324  0.87830428  1
  O  O328  1  0.74812971  0.74311024  0.38672516  1
  O  O329  1  0.74448868  0.74029520  0.88311719  1
  O  O330  1  0.00397920  0.11916849  0.00479194  1
  O  O331  1  -0.00013448  0.13249376  0.51212722  1
  O  O332  1  0.00804665  0.61782584  0.00159515  1
  O  O333  1  0.00742030  0.62568443  0.50190862  1
  O  O334  1  0.50111391  0.12731173  0.01205432  1
  O  O335  1  0.51186295  0.12376705  0.49689102  1
  O  O336  1  0.50513761  0.61869882  0.00620346  1
  O  O337  1  0.50811916  0.62779925  0.50740506  1
  O  O338  1  0.49103828  0.37608715  0.49020593  1
  O  O339  1  0.49449844  0.38000143  0.99297566  1
  O  O340  1  0.49394453  0.87559474  0.49202958  1
  O  O341  1  0.48912377  0.86717235  0.99011109  1
  O  O342  1  0.99771490  0.37719410  0.48759037  1
  O  O343  1  0.99415451  0.37914075  0.99412914  1
  O  O344  1  0.99536508  0.86920901  0.48834507  1
  O  O345  1  0.99624356  0.87953418  0.99725533  1
  O  O346  1  0.49793022  0.48873048  0.37546607  1
  O  O347  1  0.49326935  0.49346936  0.87864644  1
  O  O348  1  0.49268424  0.99304360  0.37390832  1
  O  O349  1  0.49166016  0.98812135  0.86874333  1
  O  O350  1  0.99408521  0.49108159  0.37436704  1
  O  O351  1  0.99370250  0.49279907  0.87973531  1
  O  O352  1  0.98877571  0.99129237  0.36942847  1
  O  O353  1  0.99432024  0.99477442  0.88029755  1
  O  O354  1  -0.00025453  0.00547945  0.11981440  1
  O  O355  1  0.01638584  0.01343551  0.62811714  1
  O  O356  1  0.00473374  0.49975142  0.11886057  1
  O  O357  1  0.00753606  0.50280979  0.62419125  1
  O  O358  1  0.51011189  0.00778652  0.13086378  1
  O  O359  1  0.51141461  0.00959465  0.62255801  1
  O  O360  1  0.50376746  0.50374246  0.11900437  1
  O  O361  1  0.49982857  0.51269107  0.62301463  1
  O  O362  1  0.24957157  0.38152181  0.24112950  1
  O  O363  1  0.24428199  0.38390482  0.74502481  1
  O  O364  1  0.25183854  0.88436015  0.24265543  1
  O  O365  1  0.24851044  0.88626232  0.74972214  1
  O  O366  1  0.74779235  0.38179541  0.24105590  1
  O  O367  1  0.74155460  0.37791408  0.74195856  1
  O  O368  1  0.74449794  0.87873044  0.24327580  1
  O  O369  1  0.74331965  0.87580266  0.76645188  1
  O  O370  1  0.25536814  0.11516220  0.24865865  1
  O  O371  1  0.25921952  0.11643657  0.75801118  1
  O  O372  1  0.25406645  0.62203367  0.25552711  1
  O  O373  1  0.24469530  0.61032265  0.75136161  1
  O  O374  1  0.75636320  0.11824669  0.24941743  1
  O  O375  1  0.75887295  0.13119879  0.76134603  1
  O  O376  1  0.75377497  0.61974870  0.25556389  1
  O  O377  1  0.75317871  0.61913043  0.75626409  1
  O  O378  1  0.37313984  0.11928701  0.36745219  1
  O  O379  1  0.37201504  0.11728764  0.86929262  1
  O  O380  1  0.36760049  0.62578893  0.36968095  1
  O  O381  1  0.37609947  0.61004921  0.88177183  1
  O  O382  1  0.87425244  0.11814688  0.36733775  1
  O  O383  1  0.86987125  0.11890892  0.86840292  1
  O  O384  1  0.86865640  0.61993197  0.36990468  1
  O  O385  1  0.86866386  0.61756737  0.87077793  1
  O  O386  1  0.13348901  0.38053326  0.12627447  1
  O  O387  1  0.13041915  0.38180524  0.63101923  1
  O  O388  1  0.13713573  0.87720035  0.12816639  1
  O  O389  1  0.12782338  0.88837730  0.63373302  1
  O  O390  1  0.63013941  0.37972284  0.12339094  1
  O  O391  1  0.63170319  0.37336610  0.63172544  1
  O  O392  1  0.62882907  0.88017622  0.12861296  1
  O  O393  1  0.62003267  0.89178144  0.62415382  1
  O  O394  1  0.11786548  0.25325759  0.25997312  1
  O  O395  1  0.12175927  0.25606557  0.75593645  1
  O  O396  1  0.11746446  0.75186212  0.25899586  1
  O  O397  1  0.11858439  0.75689904  0.75104173  1
  O  O398  1  0.61753702  0.25072315  0.25756500  1
  O  O399  1  0.63170863  0.25918773  0.76033647  1
  O  O400  1  0.61868309  0.75620485  0.25019759  1
  O  O401  1  0.61471709  0.75104711  0.75724655  1
  O  O402  1  0.38055363  0.24273041  0.24702374  1
  O  O403  1  0.36742130  0.23567754  0.75443216  1
  O  O404  1  0.38055895  0.74469531  0.24473591  1
  O  O405  1  0.38718395  0.75547563  0.74094411  1
  O  O406  1  0.87954051  0.24382247  0.24371583  1
  O  O407  1  0.88230125  0.24335144  0.74306971  1
  O  O408  1  0.87722801  0.74559313  0.24626767  1
  O  O409  1  0.88513417  0.74342447  0.75284950  1
  O  O410  1  0.37419646  0.48845353  0.49671597  1
  O  O411  1  0.38030234  0.49339316  0.99238517  1
  O  O412  1  0.37579229  0.99470863  0.49482631  1
  O  O413  1  0.37087316  0.99003826  0.98800593  1
  O  O414  1  0.87575854  0.49809314  0.49164119  1
  O  O415  1  0.87898116  0.49333029  0.99441497  1
  O  O416  1  0.86344867  1.00252779  0.48479393  1
  O  O417  1  0.88096553  0.99290212  0.99358600  1
  O  O418  1  0.11814465  0.00667883  0.00155534  1
  O  O419  1  0.14074445  0.00023808  0.51405736  1
  O  O420  1  0.11922453  0.50638148  0.00532161  1
  O  O421  1  0.12407122  0.50790671  0.50755546  1
  O  O422  1  0.63117199  -0.00170554  0.01307375  1
  O  O423  1  0.62351732  0.00910940  0.50724922  1
  O  O424  1  0.61898288  0.50337142  0.00322102  1
  O  O425  1  0.62220984  0.51249446  0.50280119  1
  O  O426  1  0.36507306  0.37494403  0.11893357  1
  O  O427  1  0.36896298  0.37670619  0.61563415  1
  O  O428  1  0.37012324  0.87201546  0.11859731  1
  O  O429  1  0.37859203  0.86539903  0.62091849  1
  O  O430  1  0.86899253  0.36845384  0.11874677  1
  O  O431  1  0.86552596  0.36923687  0.62652409  1
  O  O432  1  0.86861865  0.86980136  0.12047215  1
  O  O433  1  0.87615305  0.87909208  0.62664505  1
  O  O434  1  0.12434455  0.13935752  0.37258974  1
  O  O435  1  0.12993176  0.12961128  0.88004503  1
  O  O436  1  0.12969124  0.63263315  0.38176735  1
  O  O437  1  0.12749878  0.62447392  0.88751949  1
  O  O438  1  0.62355347  0.13372985  0.37823948  1
  O  O439  1  0.63251517  0.13053169  0.87321537  1
  O  O440  1  0.62924908  0.62655028  0.38439716  1
  O  O441  1  0.62903881  0.62774997  0.88059032  1
