# generated using pymatgen
data_V93Zn93O256
_symmetry_space_group_name_H-M   'P 1'
_cell_length_a   17.05207349
_cell_length_b   17.04912787
_cell_length_c   17.05365563
_cell_angle_alpha   90.02317967
_cell_angle_beta   90.01183895
_cell_angle_gamma   89.95888811
_symmetry_Int_Tables_number   1
_chemical_formula_structural   V93Zn93O256
_chemical_formula_sum   'V93 Zn93 O256'
_cell_volume   4957.88782046
_cell_formula_units_Z   1
loop_
 _symmetry_equiv_pos_site_id
 _symmetry_equiv_pos_as_xyz
  1  'x, y, z'
loop_
 _atom_site_type_symbol
 _atom_site_label
 _atom_site_symmetry_multiplicity
 _atom_site_fract_x
 _atom_site_fract_y
 _atom_site_fract_z
 _atom_site_occupancy
  V  V0  1  0.37568068  0.49881014  0.37596662  1
  V  V1  1  0.12471854  0.50057081  0.12559691  1
  V  V2  1  0.24979430  0.37513409  0.12446298  1
  V  V3  1  0.12902691  0.24172400  0.37509019  1
  V  V4  1  0.12394275  0.37488358  0.25020459  1
  V  V5  1  0.74849303  0.37762689  0.62413856  1
  V  V6  1  0.11790700  0.75263411  0.37539923  1
  V  V7  1  0.37562231  0.11833917  0.75386756  1
  V  V8  1  0.50126391  0.12424598  0.62402375  1
  V  V9  1  0.00240108  0.49992221  0.50156427  1
  V  V10  1  0.87730400  0.24863555  0.62507067  1
  V  V11  1  0.75013283  0.87418798  0.62361684  1
  V  V12  1  0.74605537  -0.00171857  0.25022548  1
  V  V13  1  0.74929958  0.49781864  0.25085215  1
  V  V14  1  0.87349450  0.37436027  -0.00050246  1
  V  V15  1  0.74725005  0.50114069  0.74787963  1
  V  V16  1  0.12520480  0.87623820  0.74973297  1
  V  V17  1  0.50010869  0.75018368  0.74914687  1
  V  V18  1  0.49959556  0.50436068  0.00589807  1
  V  V19  1  -0.00043017  0.00185120  0.00002771  1
  V  V20  1  0.37494794  0.37562740  0.00097231  1
  V  V21  1  0.37652453  0.87340933  0.49879821  1
  V  V22  1  0.25099315  0.62595343  0.87464414  1
  V  V23  1  0.50436243  0.86193222  0.36612093  1
  V  V24  1  0.24950085  0.50045187  0.24993273  1
  V  V25  1  0.36829387  0.12538627  0.25356984  1
  V  V26  1  0.37983314  0.62882881  0.24566056  1
  V  V27  1  0.11757217  0.87465988  0.25422517  1
  V  V28  1  0.00000753  0.87607141  0.87492216  1
  V  V29  1  0.12656275  0.37585882  0.74890703  1
  V  V30  1  0.50356473  0.49957577  0.50647013  1
  V  V31  1  0.24888164  0.62797101  0.37665533  1
  V  V32  1  0.50092552  0.25030069  0.74889923  1
  V  V33  1  0.00258410  0.62358081  0.62459019  1
  V  V34  1  0.87549795  0.50020659  0.87398794  1
  V  V35  1  0.87567663  0.37319902  0.50037656  1
  V  V36  1  0.12573700  0.00230741  0.62514158  1
  V  V37  1  0.74990740  0.25144575  0.00016295  1
  V  V38  1  0.62238133  0.62704769  0.00194789  1
  V  V39  1  -0.00022247  0.75017118  0.74943988  1
  V  V40  1  -0.00056265  0.50016482  0.00013908  1
  V  V41  1  0.87363883  0.87522228  -0.00025480  1
  V  V42  1  0.12703216  0.24899450  0.87677770  1
  V  V43  1  0.74966680  0.12462639  0.87489485  1
  V  V44  1  0.37679968  0.74729715  0.62506771  1
  V  V45  1  0.00007708  0.37354333  0.37549028  1
  V  V46  1  0.74906969  0.87441422  0.12284193  1
  V  V47  1  0.87526082  -0.00434997  0.37477235  1
  V  V48  1  0.74796044  0.12351226  0.37435101  1
  V  V49  1  0.62354307  0.12513883  0.00084435  1
  V  V50  1  0.87507695  0.00026949  0.87352636  1
  V  V51  1  0.62535833  0.00024364  0.62298481  1
  V  V52  1  0.37075130  0.00269486  0.37408712  1
  V  V53  1  0.75061585  -0.00051688  0.74857536  1
  V  V54  1  0.87547116  0.62448350  0.75040395  1
  V  V55  1  0.37531084  0.50082695  0.87485883  1
  V  V56  1  0.24902919  0.87677070  0.12812419  1
  V  V57  1  0.62306495  0.50309998  0.12669538  1
  V  V58  1  0.74511994  0.74893919  0.49605063  1
  V  V59  1  0.49892218  0.25039303  0.24977418  1
  V  V60  1  0.87766912  0.62378174  0.25042765  1
  V  V61  1  0.12328219  0.00027955  0.12621032  1
  V  V62  1  0.62462374  0.75005328  0.87537842  1
  V  V63  1  0.62474543  0.24865252  0.37518134  1
  V  V64  1  0.25380070  0.11969460  0.87566849  1
  V  V65  1  0.12479836  0.75040454  0.87564055  1
  V  V66  1  0.25141608  0.87506064  0.62554500  1
  V  V67  1  0.00055935  -0.00542911  0.49412747  1
  V  V68  1  0.87541755  0.12521963  0.74828495  1
  V  V69  1  0.62449077  0.37537431  0.24960805  1
  V  V70  1  0.37540587  0.24904796  0.62362700  1
  V  V71  1  0.87592071  0.74971392  0.62417732  1
  V  V72  1  -0.00115888  0.12551927  0.12467519  1
  V  V73  1  0.49441682  0.88297716  0.87424975  1
  V  V74  1  0.74445790  0.62639437  0.37583889  1
  V  V75  1  0.87553996  0.49843069  0.37577144  1
  V  V76  1  0.25065034  0.24209160  0.49616535  1
  V  V77  1  0.62602235  0.62066431  0.50779195  1
  V  V78  1  0.61963755  -0.00048978  0.12620445  1
  V  V79  1  0.62505996  0.87472699  0.74979996  1
  V  V80  1  0.62462796  0.25067105  0.87441710  1
  V  V81  1  0.00135845  0.37480165  0.87436051  1
  V  V82  1  0.62437247  0.37845850  0.74684666  1
  V  V83  1  0.25056415  0.37464670  0.62330685  1
  V  V84  1  0.12450197  0.62577703  0.00037334  1
  V  V85  1  0.87690326  0.87355254  0.49504648  1
  V  V86  1  0.37293386  0.88204570  -0.00296013  1
  V  V87  1  0.87369394  0.12426397  0.24988312  1
  V  V88  1  0.37513118  0.25099575  0.12595983  1
  V  V89  1  0.50103650  -0.00098367  0.49799003  1
  V  V90  1  -0.00040573  0.62620191  0.12742521  1
  V  V91  1  0.37866873  0.74945175  0.12681664  1
  V  V92  1  -0.00105532  0.24885738  0.25022339  1
  Zn  Zn93  1  0.12625030  0.12078480  0.49646540  1
  Zn  Zn94  1  0.74972373  0.24804098  0.49929111  1
  Zn  Zn95  1  -0.00518066  0.75415737  0.25315400  1
  Zn  Zn96  1  0.12690177  0.12520519  0.00086257  1
  Zn  Zn97  1  0.25302037  0.50068868  0.74737077  1
  Zn  Zn98  1  0.25370940  -0.00217996  0.75425191  1
  Zn  Zn99  1  0.37785402  0.62474366  0.75046865  1
  Zn  Zn100  1  0.24885090  0.75242167  0.00020164  1
  Zn  Zn101  1  0.62437279  0.85186221  0.25214772  1
  Zn  Zn102  1  0.12575533  0.62584283  0.50197322  1
  Zn  Zn103  1  0.49678037  0.12456817  0.12337681  1
  Zn  Zn104  1  0.49444745  0.00511681  -0.00400067  1
  Zn  Zn105  1  0.49941687  0.37552719  0.87429435  1
  Zn  Zn106  1  0.25181779  0.24853238  0.00096214  1
  Zn  Zn107  1  0.87282333  0.25108702  0.12524091  1
  Zn  Zn108  1  0.00126595  0.12420835  0.62360096  1
  Zn  Zn109  1  0.24522348  0.00522368  0.25719378  1
  Zn  Zn110  1  0.50108515  0.37465247  0.37755597  1
  Zn  Zn111  1  0.12876059  0.50225026  0.62317701  1
  Zn  Zn112  1  0.00085899  0.24761618  0.74968789  1
  Zn  Zn113  1  0.87754647  0.75004461  0.12411620  1
  Zn  Zn114  1  0.50496645  0.62024129  0.63015599  1
  Zn  Zn115  1  0.62532965  0.12531032  0.49970459  1
  Zn  Zn116  1  0.75000935  0.37480041  0.12398468  1
  Zn  Zn117  1  0.54327928  0.68803985  0.18742642  1
  Zn  Zn118  1  0.24863942  0.74974176  0.50134149  1
  Zn  Zn119  1  0.75001131  0.62610628  0.87551147  1
  Zn  Zn120  1  0.75259502  0.74744795  -0.00247431  1
  Zn  Zn121  1  0.37697918  0.37435051  0.49939622  1
  Zn  Zn122  1  0.18720879  0.18835179  0.18701459  1
  Zn  Zn123  1  0.19033218  0.18737022  0.68838261  1
  Zn  Zn124  1  0.18885246  0.69051497  0.18982865  1
  Zn  Zn125  1  0.18870225  0.68818589  0.68894360  1
  Zn  Zn126  1  0.68681059  0.18710120  0.18608062  1
  Zn  Zn127  1  0.68861504  0.18897295  0.68706299  1
  Zn  Zn128  1  0.70336195  0.68631090  0.18517976  1
  Zn  Zn129  1  0.68776185  0.68829387  0.68669677  1
  Zn  Zn130  1  0.31124525  0.31292919  0.31194305  1
  Zn  Zn131  1  0.31292830  0.30936065  0.81223992  1
  Zn  Zn132  1  0.31209177  0.81341488  0.31194445  1
  Zn  Zn133  1  0.31227172  0.81279068  0.81149143  1
  Zn  Zn134  1  0.81088911  0.31113178  0.31163862  1
  Zn  Zn135  1  0.81212962  0.31216576  0.81246055  1
  Zn  Zn136  1  0.81180329  0.81187928  0.31058926  1
  Zn  Zn137  1  0.81157465  0.81180065  0.81352409  1
  Zn  Zn138  1  0.18667593  0.43512482  0.43810873  1
  Zn  Zn139  1  0.18881839  0.43812204  0.93854128  1
  Zn  Zn140  1  0.18892082  0.93363430  0.43977930  1
  Zn  Zn141  1  0.18622695  0.93913726  0.94004735  1
  Zn  Zn142  1  0.68707849  0.43717060  0.43783034  1
  Zn  Zn143  1  0.68706381  0.43862262  0.93539698  1
  Zn  Zn144  1  0.68510640  0.93498155  0.43559918  1
  Zn  Zn145  1  0.68466395  0.93839680  0.93806307  1
  Zn  Zn146  1  0.30962189  0.06470566  0.06534978  1
  Zn  Zn147  1  0.31477377  0.06110823  0.56344749  1
  Zn  Zn148  1  0.31133892  0.56385327  0.06199312  1
  Zn  Zn149  1  0.31470532  0.56229214  0.56160907  1
  Zn  Zn150  1  0.81086683  0.06236337  0.06293826  1
  Zn  Zn151  1  0.81188046  0.06284746  0.55900023  1
  Zn  Zn152  1  0.81097520  0.56110923  0.06357800  1
  Zn  Zn153  1  0.81572471  0.56157584  0.56317300  1
  Zn  Zn154  1  0.43855137  0.43767086  0.18901494  1
  Zn  Zn155  1  0.43579856  0.43653645  0.68775241  1
  Zn  Zn156  1  0.43591169  0.93674079  0.18962674  1
  Zn  Zn157  1  0.43910830  0.93647811  0.68557141  1
  Zn  Zn158  1  0.93606116  0.43681424  0.18632906  1
  Zn  Zn159  1  0.93866280  0.43717081  0.68751313  1
  Zn  Zn160  1  0.93542383  0.93972512  0.18718630  1
  Zn  Zn161  1  0.93874651  0.93724122  0.68348676  1
  Zn  Zn162  1  0.05977737  0.06070546  0.31135048  1
  Zn  Zn163  1  0.06243469  0.06437950  0.81051796  1
  Zn  Zn164  1  0.06246926  0.56327532  0.31431653  1
  Zn  Zn165  1  0.06395765  0.56154594  0.81138991  1
  Zn  Zn166  1  0.55667977  0.06114662  0.31048162  1
  Zn  Zn167  1  0.56415101  0.06351358  0.81047114  1
  Zn  Zn168  1  0.56329718  0.56015411  0.31881101  1
  Zn  Zn169  1  0.56221016  0.56366263  0.81519691  1
  Zn  Zn170  1  0.43797123  0.18600282  0.43712039  1
  Zn  Zn171  1  0.43827424  0.18910390  0.93741297  1
  Zn  Zn172  1  0.43816477  0.68437588  0.43944852  1
  Zn  Zn173  1  0.43757333  0.69308084  0.94050219  1
  Zn  Zn174  1  0.93884698  0.18243598  0.43843815  1
  Zn  Zn175  1  0.93792712  0.18820977  0.93711675  1
  Zn  Zn176  1  0.93600960  0.68512608  0.43823226  1
  Zn  Zn177  1  0.93698932  0.68802085  0.93829405  1
  Zn  Zn178  1  0.06114806  0.31195575  0.06238497  1
  Zn  Zn179  1  0.06417442  0.31147350  0.56064680  1
  Zn  Zn180  1  0.06065924  0.81198570  0.06395988  1
  Zn  Zn181  1  0.06402818  0.81291535  0.56091021  1
  Zn  Zn182  1  0.56131478  0.31586355  0.06308642  1
  Zn  Zn183  1  0.56224123  0.31365347  0.56101393  1
  Zn  Zn184  1  0.56177922  0.81763175  0.05706428  1
  Zn  Zn185  1  0.56198894  0.81200733  0.55895773  1
  O  O186  1  0.11794706  0.11885130  0.12503895  1
  O  O187  1  0.12545741  0.11318088  0.62448339  1
  O  O188  1  0.12194074  0.61971011  0.12097148  1
  O  O189  1  0.11940557  0.62303831  0.62413541  1
  O  O190  1  0.62284071  0.11559565  0.11926092  1
  O  O191  1  0.61939385  0.11901955  0.62502336  1
  O  O192  1  0.62362981  0.62118443  0.11654067  1
  O  O193  1  0.62604168  0.62468760  0.61234965  1
  O  O194  1  0.37409005  0.38943265  0.37431905  1
  O  O195  1  0.37369760  0.38520370  0.88020440  1
  O  O196  1  0.38406329  0.88114711  0.37799802  1
  O  O197  1  0.38206544  0.86951044  0.88443924  1
  O  O198  1  0.87994123  0.37834520  0.38047766  1
  O  O199  1  0.88153341  0.38032627  0.87830789  1
  O  O200  1  0.86662996  0.88264059  0.38266986  1
  O  O201  1  0.88048765  0.88135005  0.87844618  1
  O  O202  1  0.26638627  -0.00753100  0.37593561  1
  O  O203  1  0.24150542  0.01512303  0.87258668  1
  O  O204  1  0.25613520  0.50727047  0.37083689  1
  O  O205  1  0.25953662  0.50851366  0.87645524  1
  O  O206  1  0.75297919  0.00394885  0.36929171  1
  O  O207  1  0.75481317  0.00430632  0.86833668  1
  O  O208  1  0.75624958  0.50682973  0.37171861  1
  O  O209  1  0.75666888  0.50035580  0.86247312  1
  O  O210  1  0.24388389  0.49544320  0.13006281  1
  O  O211  1  0.25109437  0.48825126  0.62564536  1
  O  O212  1  0.24256104  0.99015633  0.12758612  1
  O  O213  1  0.24061665  0.99393281  0.62506587  1
  O  O214  1  0.74110924  0.49990419  0.13371005  1
  O  O215  1  0.75913262  0.48784268  0.63571986  1
  O  O216  1  0.74094177  0.99267116  0.12919261  1
  O  O217  1  0.74586745  0.99355844  0.62888859  1
  O  O218  1  0.00453876  0.36952799  0.25570765  1
  O  O219  1  0.01041062  0.37331625  0.75543840  1
  O  O220  1  0.01342936  0.87494680  0.24434223  1
  O  O221  1  0.00431847  0.86976662  0.75491642  1
  O  O222  1  0.50643268  0.36970927  0.25421362  1
  O  O223  1  0.50984500  0.37050068  0.74833264  1
  O  O224  1  0.49947915  0.87417874  0.26282510  1
  O  O225  1  0.50494522  0.87054915  0.75589362  1
  O  O226  1  0.48802705  0.13230294  0.24622442  1
  O  O227  1  0.49440422  0.13027079  0.74497637  1
  O  O228  1  0.48463358  0.61667325  0.25405353  1
  O  O229  1  0.49949824  0.63314524  0.74800857  1
  O  O230  1  0.99329206  0.12929041  0.24455881  1
  O  O231  1  0.99105106  0.12744317  0.74495446  1
  O  O232  1  0.99389741  0.62354245  0.24445639  1
  O  O233  1  0.99538654  0.63033799  0.74549229  1
  O  O234  1  0.37520734  0.25843444  0.00699196  1
  O  O235  1  0.36766679  0.25187222  0.50376915  1
  O  O236  1  0.37030792  0.76116634  0.00869704  1
  O  O237  1  0.37430251  0.75406555  0.51036990  1
  O  O238  1  0.86813552  0.25667206  -0.00114079  1
  O  O239  1  0.87384140  0.25471769  0.50778149  1
  O  O240  1  0.87329123  0.75932153  0.00148191  1
  O  O241  1  0.86664638  0.75282747  0.50516516  1
  O  O242  1  0.13212118  0.24742676  0.49163947  1
  O  O243  1  0.12702379  0.25020112  0.98783570  1
  O  O244  1  0.12875702  0.74850369  0.49021495  1
  O  O245  1  0.12499784  0.74405358  0.99291086  1
  O  O246  1  0.62632771  0.24920022  0.48744478  1
  O  O247  1  0.62882348  0.24606576  0.99415260  1
  O  O248  1  0.63901261  0.74084791  0.50471892  1
  O  O249  1  0.62362658  0.74117168  0.99500951  1
  O  O250  1  0.49264253  0.25140096  0.13247288  1
  O  O251  1  0.49570447  0.24466151  0.62926193  1
  O  O252  1  0.48386527  0.75635896  0.11837048  1
  O  O253  1  0.49152970  0.75049248  0.62985724  1
  O  O254  1  0.99850383  0.24397597  0.13237438  1
  O  O255  1  0.98830325  0.24935864  0.62552446  1
  O  O256  1  0.99791545  0.74143461  0.12933767  1
  O  O257  1  0.99543732  0.74539098  0.63034776  1
  O  O258  1  0.00801277  0.25414386  0.37093325  1
  O  O259  1  0.01030878  0.25590182  0.87312956  1
  O  O260  1  0.01343377  0.74250485  0.37346369  1
  O  O261  1  0.00495412  0.75594930  0.86897141  1
  O  O262  1  0.50892782  0.25115576  0.36930601  1
  O  O263  1  0.50662661  0.25334476  0.86663030  1
  O  O264  1  0.49370559  0.76360174  0.37916097  1
  O  O265  1  0.50465796  0.76039981  0.86913204  1
  O  O266  1  0.24878375  0.13844767  0.50559563  1
  O  O267  1  0.24805232  0.12821849  0.99068123  1
  O  O268  1  0.25012754  0.62586126  0.48709208  1
  O  O269  1  0.24317288  0.62643128  0.98961537  1
  O  O270  1  0.74569349  0.12734453  0.49059894  1
  O  O271  1  0.74430248  0.13011116  0.99329260  1
  O  O272  1  0.74592039  0.62838539  0.49536636  1
  O  O273  1  0.73611467  0.62395937  0.99801354  1
  O  O274  1  0.25683688  0.37496448  0.00749291  1
  O  O275  1  0.25100995  0.36610306  0.50982397  1
  O  O276  1  0.25533289  0.87529585  0.00910181  1
  O  O277  1  0.25926042  0.87172452  0.50794124  1
  O  O278  1  0.75548525  0.36989519  -0.00146244  1
  O  O279  1  0.75585389  0.37501671  0.50964177  1
  O  O280  1  0.75485320  0.87698393  0.00811054  1
  O  O281  1  0.75378769  0.86583334  0.50371385  1
  O  O282  1  0.12968277  0.49445194  0.24582411  1
  O  O283  1  0.12975065  0.48654264  0.74952738  1
  O  O284  1  0.12649001  0.99217427  0.24649198  1
  O  O285  1  0.12441580  0.99407793  0.73974226  1
  O  O286  1  0.62914496  0.49620947  0.24733127  1
  O  O287  1  0.63445760  0.49046328  0.75553419  1
  O  O288  1  0.62928632  1.00129446  0.23869621  1
  O  O289  1  0.63158123  0.99413240  0.74329657  1
  O  O290  1  0.37327388  0.00835972  0.25690797  1
  O  O291  1  0.37517037  0.01438829  0.74338424  1
  O  O292  1  0.36906043  0.50753414  0.25644715  1
  O  O293  1  0.37477384  0.50240374  0.76256838  1
  O  O294  1  0.86718493  0.00415296  0.25549006  1
  O  O295  1  0.86960193  0.00367462  0.75326639  1
  O  O296  1  0.86987325  0.50319333  0.25698375  1
  O  O297  1  0.86815399  0.50406791  0.75465517  1
  O  O298  1  0.11908810  0.36650475  0.36901532  1
  O  O299  1  0.12355139  0.36848930  0.86815711  1
  O  O300  1  0.13386650  0.86456069  0.36481365  1
  O  O301  1  0.11936304  0.87099028  0.87023701  1
  O  O302  1  0.62598428  0.36480023  0.36868246  1
  O  O303  1  0.62504945  0.36945114  0.86246811  1
  O  O304  1  0.60896736  0.87741863  0.37189742  1
  O  O305  1  0.61647782  0.87032444  0.86958056  1
  O  O306  1  0.37589730  0.13220802  0.13366930  1
  O  O307  1  0.38117029  0.13031435  0.63303143  1
  O  O308  1  0.36569968  0.63578498  0.13370372  1
  O  O309  1  0.37581787  0.63676518  0.62710482  1
  O  O310  1  0.88055664  0.12499370  0.13209302  1
  O  O311  1  0.87214476  0.13434637  0.62935646  1
  O  O312  1  0.88104245  0.62324136  0.13208385  1
  O  O313  1  0.88153465  0.63058278  0.63108385  1
  O  O314  1  0.25595347  0.25805301  0.12413815  1
  O  O315  1  0.25429728  0.25670796  0.61693017  1
  O  O316  1  0.25602628  0.76160412  0.12313332  1
  O  O317  1  0.26013456  0.75604628  0.62622670  1
  O  O318  1  0.75134032  0.25235176  0.11616455  1
  O  O319  1  0.75973676  0.25998338  0.62445656  1
  O  O320  1  0.75546347  0.76317770  0.11844770  1
  O  O321  1  0.75674974  0.75448191  0.61688615  1
  O  O322  1  0.24014831  0.25928146  0.38507404  1
  O  O323  1  0.24168566  0.24183051  0.87594553  1
  O  O324  1  0.24359459  0.74079548  0.37489548  1
  O  O325  1  0.24385966  0.74166300  0.87593657  1
  O  O326  1  0.73991621  0.24308390  0.37399696  1
  O  O327  1  0.74424124  0.24376654  0.87908565  1
  O  O328  1  0.75766224  0.73791916  0.38623857  1
  O  O329  1  0.74085932  0.74821119  0.87704833  1
  O  O330  1  0.00111516  0.11893622  0.00576191  1
  O  O331  1  0.00294111  0.11074838  0.50415927  1
  O  O332  1  0.00509562  0.61886126  0.00547285  1
  O  O333  1  0.00018787  0.61762837  0.50733950  1
  O  O334  1  0.50642171  0.12239704  0.00178310  1
  O  O335  1  0.50163032  0.11767395  0.50706823  1
  O  O336  1  0.50994087  0.61615348  -0.00580911  1
  O  O337  1  0.51104006  0.61859260  0.50041409  1
  O  O338  1  0.49728390  0.38441015  0.49778181  1
  O  O339  1  0.49438070  0.38687146  0.99635642  1
  O  O340  1  0.49556397  0.87974530  0.49048162  1
  O  O341  1  0.49068671  0.87841236  0.98927845  1
  O  O342  1  0.99501006  0.37918934  0.49479938  1
  O  O343  1  0.99513100  0.38126768  0.99395658  1
  O  O344  1  0.99242572  0.88554059  0.50533953  1
  O  O345  1  0.99438562  0.88180792  0.99453942  1
  O  O346  1  0.49044926  0.49943676  0.38563138  1
  O  O347  1  0.48998984  0.49940078  0.88409943  1
  O  O348  1  0.48974955  0.99176631  0.37944192  1
  O  O349  1  0.50465940  0.98666868  0.87334606  1
  O  O350  1  0.99506316  0.49323349  0.38049696  1
  O  O351  1  0.99594632  0.49477012  0.88028773  1
  O  O352  1  0.99252826  1.00377431  0.38586231  1
  O  O353  1  0.99483085  0.99525549  0.87888560  1
  O  O354  1  0.00392089  0.00592774  0.11988909  1
  O  O355  1  0.01031236  -0.00076628  0.61570916  1
  O  O356  1  0.00635272  0.50502185  0.11961251  1
  O  O357  1  0.00187502  0.50517674  0.61965949  1
  O  O358  1  0.51044558  -0.00181362  0.12335598  1
  O  O359  1  0.50620898  0.00403717  0.61877163  1
  O  O360  1  0.50401110  0.49765724  0.11304976  1
  O  O361  1  0.48911973  0.50301912  0.61069338  1
  O  O362  1  0.24358828  0.38119225  0.24442973  1
  O  O363  1  0.24348075  0.37297565  0.74028163  1
  O  O364  1  0.24155119  0.87727891  0.24033985  1
  O  O365  1  0.24375247  0.87835146  0.74493152  1
  O  O366  1  0.74339225  0.38176826  0.24948319  1
  O  O367  1  0.74435324  0.38163831  0.74346465  1
  O  O368  1  0.74554158  0.87912378  0.23977675  1
  O  O369  1  0.74519839  0.87977709  0.74359281  1
  O  O370  1  0.26341587  0.12456637  0.24690134  1
  O  O371  1  0.26010386  0.12476044  0.75708325  1
  O  O372  1  0.25769331  0.61970732  0.25854368  1
  O  O373  1  0.25197120  0.62252662  0.76357767  1
  O  O374  1  0.75443205  0.11854855  0.25489094  1
  O  O375  1  0.75469797  0.11895745  0.75524153  1
  O  O376  1  0.75787429  0.61708835  0.25945343  1
  O  O377  1  0.75543550  0.61538312  0.74795967  1
  O  O378  1  0.38133480  0.11467333  0.36575506  1
  O  O379  1  0.36592576  0.13312542  0.86493724  1
  O  O380  1  0.36750386  0.61852534  0.36768946  1
  O  O381  1  0.36720002  0.61880696  0.87808248  1
  O  O382  1  0.86829812  0.11726212  0.36909585  1
  O  O383  1  0.86931184  0.11935428  0.86876477  1
  O  O384  1  0.86635478  0.61711766  0.37182996  1
  O  O385  1  0.87382937  0.61854530  0.86808227  1
  O  O386  1  0.12869032  0.38080548  0.13066920  1
  O  O387  1  0.13391200  0.37262590  0.63309004  1
  O  O388  1  0.13146714  0.87905743  0.13225121  1
  O  O389  1  0.13061140  0.88227512  0.62994838  1
  O  O390  1  0.62673071  0.38382043  0.13245312  1
  O  O391  1  0.63688892  0.36709838  0.63550962  1
  O  O392  1  0.63284908  0.88281287  0.12370751  1
  O  O393  1  0.63034515  0.87951189  0.62973932  1
  O  O394  1  0.12021831  0.25542685  0.25696787  1
  O  O395  1  0.12540296  0.25954495  0.75818618  1
  O  O396  1  0.12362814  0.75819438  0.25811985  1
  O  O397  1  0.11882752  0.75652255  0.75575554  1
  O  O398  1  0.61973064  0.25416329  0.25688490  1
  O  O399  1  0.62129967  0.25806027  0.75443954  1
  O  O400  1  0.62436762  0.74011358  0.24278954  1
  O  O401  1  0.62050847  0.75625652  0.75376170  1
  O  O402  1  0.37860970  0.24448382  0.24767068  1
  O  O403  1  0.38146846  0.24192795  0.74356508  1
  O  O404  1  0.36904577  0.74027888  0.24036224  1
  O  O405  1  0.38152489  0.75073980  0.74073391  1
  O  O406  1  0.88154417  0.24266824  0.25039534  1
  O  O407  1  0.87506851  0.24506430  0.74098664  1
  O  O408  1  0.87631456  0.74071997  0.24776505  1
  O  O409  1  0.88009492  0.74519979  0.74454550  1
  O  O410  1  0.38212475  0.50102889  0.48946211  1
  O  O411  1  0.38165856  0.49770854  0.99487390  1
  O  O412  1  0.38113522  0.99452312  0.49384597  1
  O  O413  1  0.37561957  0.98585073  1.00921454  1
  O  O414  1  0.88138992  0.49272157  0.49512281  1
  O  O415  1  0.88008003  0.49547879  0.99344931  1
  O  O416  1  0.88163232  0.99362902  0.49576161  1
  O  O417  1  0.87942681  0.99573452  0.99250525  1
  O  O418  1  0.11631031  0.00169294  0.00792371  1
  O  O419  1  0.11858408  -0.00172936  0.50595155  1
  O  O420  1  0.11903168  0.50532314  0.00532509  1
  O  O421  1  0.11756999  0.50222692  0.50141416  1
  O  O422  1  0.62353003  0.00657271  0.00959339  1
  O  O423  1  0.61928378  0.00042269  0.50639116  1
  O  O424  1  0.61784259  0.50663725  0.00332463  1
  O  O425  1  0.61497133  0.50739442  0.49503600  1
  O  O426  1  0.36878150  0.37153453  0.12161394  1
  O  O427  1  0.36509751  0.36745446  0.62521932  1
  O  O428  1  0.36622810  0.86926134  0.12113418  1
  O  O429  1  0.37196689  0.86723688  0.62017400  1
  O  O430  1  0.87197751  0.37340218  0.11554050  1
  O  O431  1  0.86831969  0.36668186  0.62179104  1
  O  O432  1  0.86406025  0.87889214  0.11867322  1
  O  O433  1  0.86891701  0.86895537  0.61761134  1
  O  O434  1  0.12241737  0.13837751  0.37311407  1
  O  O435  1  0.13253778  0.13518928  0.87301341  1
  O  O436  1  0.13523200  0.63287803  0.37351350  1
  O  O437  1  0.13169242  0.62921537  0.87955081  1
  O  O438  1  0.62814849  0.13384653  0.37264025  1
  O  O439  1  0.63072833  0.13025228  0.87909088  1
  O  O440  1  0.63945544  0.61935914  0.38559651  1
  O  O441  1  0.62679192  0.63139338  0.88401757  1
