# generated using pymatgen
data_V93Zn93O256
_symmetry_space_group_name_H-M   'P 1'
_cell_length_a   17.05800750
_cell_length_b   17.05380529
_cell_length_c   17.05538606
_cell_angle_alpha   89.95419518
_cell_angle_beta   90.02557715
_cell_angle_gamma   90.04346020
_symmetry_Int_Tables_number   1
_chemical_formula_structural   V93Zn93O256
_chemical_formula_sum   'V93 Zn93 O256'
_cell_volume   4961.47547225
_cell_formula_units_Z   1
loop_
 _symmetry_equiv_pos_site_id
 _symmetry_equiv_pos_as_xyz
  1  'x, y, z'
loop_
 _atom_site_type_symbol
 _atom_site_label
 _atom_site_symmetry_multiplicity
 _atom_site_fract_x
 _atom_site_fract_y
 _atom_site_fract_z
 _atom_site_occupancy
  V  V0  1  0.25202293  0.75143437  0.49960242  1
  V  V1  1  0.74942610  0.37454879  0.62384416  1
  V  V2  1  0.62479019  0.88153236  0.74593923  1
  V  V3  1  0.12387980  0.00101800  0.62561724  1
  V  V4  1  0.50432689  0.11451118  0.62169140  1
  V  V5  1  0.12267720  0.37659919  0.75320395  1
  V  V6  1  0.74738073  0.12568358  0.87688116  1
  V  V7  1  0.00702549  0.87302629  0.36920823  1
  V  V8  1  0.12332928  0.87547029  0.75122030  1
  V  V9  1  0.37749071  -0.00141218  0.38234422  1
  V  V10  1  -0.00142707  0.62709079  0.62320570  1
  V  V11  1  0.24594335  -0.00444988  0.25136799  1
  V  V12  1  0.50087345  0.87820997  0.38216933  1
  V  V13  1  0.87449314  -0.00022352  0.87336082  1
  V  V14  1  0.00002986  0.49561605  -0.00711696  1
  V  V15  1  0.62908091  0.49957786  0.13171494  1
  V  V16  1  0.24978104  0.50134831  0.74968523  1
  V  V17  1  0.12567225  0.50150464  0.62398127  1
  V  V18  1  0.86921029  0.49870391  0.36553354  1
  V  V19  1  0.49890666  0.25220794  0.75084775  1
  V  V20  1  0.12223554  0.25463641  0.87563235  1
  V  V21  1  0.62574572  0.50584537  0.62103516  1
  V  V22  1  0.87362713  0.87280697  -0.00073707  1
  V  V23  1  0.12518539  -0.00166982  0.12712901  1
  V  V24  1  0.37350337  0.87295566  0.00335019  1
  V  V25  1  0.87467312  0.24970870  0.12341834  1
  V  V26  1  0.87640061  0.37329263  -0.00508734  1
  V  V27  1  0.50204679  0.00143957  0.00368565  1
  V  V28  1  0.24986809  0.25018886  0.00155670  1
  V  V29  1  0.37388541  0.25196478  0.62676035  1
  V  V30  1  0.87596508  0.12336911  0.24850940  1
  V  V31  1  0.12591494  0.49827610  0.12485882  1
  V  V32  1  0.75040021  -0.00238074  0.24814492  1
  V  V33  1  0.62557636  0.62384356  -0.00006880  1
  V  V34  1  0.87449792  0.86917958  0.49914019  1
  V  V35  1  0.87437375  0.12497623  0.75003673  1
  V  V36  1  0.12577456  0.62660533  0.49461473  1
  V  V37  1  0.50225263  0.50025296  0.00031394  1
  V  V38  1  0.74824157  0.62246220  0.37385410  1
  V  V39  1  0.50172443  0.50258018  0.49963198  1
  V  V40  1  0.62399378  0.37571262  0.75069004  1
  V  V41  1  0.37588808  0.37565391  0.00096267  1
  V  V42  1  0.24959393  0.37555610  0.62540047  1
  V  V43  1  0.00017095  0.12413932  0.12495685  1
  V  V44  1  0.50127293  0.12397587  0.12789805  1
  V  V45  1  0.12468652  0.75022856  0.87422759  1
  V  V46  1  0.24805993  0.00108628  0.75157526  1
  V  V47  1  0.12519115  0.62429342  -0.00228949  1
  V  V48  1  0.87731507  -0.00200724  0.37302498  1
  V  V49  1  0.37542322  0.50167013  0.87584949  1
  V  V50  1  0.24978144  0.87558738  0.62506047  1
  V  V51  1  -0.00033273  -0.00038749  0.00018812  1
  V  V52  1  0.62646565  0.87419352  0.25005098  1
  V  V53  1  0.75076700  0.75005301  0.00012450  1
  V  V54  1  0.50093125  0.37566103  0.87482111  1
  V  V55  1  0.50012855  0.87500668  0.87510827  1
  V  V56  1  0.75122218  0.37838195  0.13189771  1
  V  V57  1  -0.00032082  0.87451629  0.87456137  1
  V  V58  1  0.37381058  0.12672462  0.75199643  1
  V  V59  1  0.37304356  0.00085492  0.87712916  1
  V  V60  1  -0.00107290  0.37502504  0.37510777  1
  V  V61  1  0.37622157  0.25037153  0.12676319  1
  V  V62  1  0.49753450  0.74835518  0.24818187  1
  V  V63  1  0.75007006  0.50048855  0.74821920  1
  V  V64  1  -0.00292212  0.62445069  0.12465047  1
  V  V65  1  0.50162705  0.62796496  0.62216889  1
  V  V66  1  0.50061826  0.37489429  0.37788639  1
  V  V67  1  0.62712885  0.74550773  0.38100591  1
  V  V68  1  0.25028809  0.37552636  0.12665139  1
  V  V69  1  0.37627895  0.12475157  0.25239129  1
  V  V70  1  0.00370889  0.75128433  0.24802134  1
  V  V71  1  0.62438095  0.75056384  0.87424142  1
  V  V72  1  -0.00051116  0.25661098  0.75430395  1
  V  V73  1  0.37571901  0.62721663  0.74919978  1
  V  V74  1  0.24869605  0.12611537  0.87685647  1
  V  V75  1  0.75001247  0.62471373  0.87309387  1
  V  V76  1  0.00118125  -0.00104908  0.49989858  1
  V  V77  1  0.24593851  0.87350564  0.12833855  1
  V  V78  1  0.24909110  0.25164752  0.50133689  1
  V  V79  1  0.87402721  0.25092210  0.62427492  1
  V  V80  1  0.87491885  0.62449537  0.74710051  1
  V  V81  1  0.74701249  0.88147137  0.62296065  1
  V  V82  1  0.50540986  0.25082227  0.25334203  1
  V  V83  1  0.00100485  0.24861228  0.25017847  1
  V  V84  1  0.25017542  0.12601802  0.37651500  1
  V  V85  1  0.87381390  0.37460608  0.49859936  1
  V  V86  1  0.74847835  0.12675527  0.37656397  1
  V  V87  1  -0.00057163  0.12469304  0.62464775  1
  V  V88  1  0.12434972  0.12617896  0.00082576  1
  V  V89  1  0.87586484  0.49673314  0.87286966  1
  V  V90  1  0.12633530  0.37489339  0.24966348  1
  V  V91  1  0.24990903  0.62662683  0.87518481  1
  V  V92  1  0.12572411  0.25042330  0.37626365  1
  Zn  Zn93  1  0.62393906  0.25003284  0.87749494  1
  Zn  Zn94  1  0.62544964  0.12828365  0.00253333  1
  Zn  Zn95  1  0.86914216  0.62132872  0.24579806  1
  Zn  Zn96  1  0.87280613  0.74964124  0.12586466  1
  Zn  Zn97  1  0.74667681  0.24696301  0.50207308  1
  Zn  Zn98  1  0.74538987  0.25040444  0.00114017  1
  Zn  Zn99  1  0.49920524  0.75169287  0.74879607  1
  Zn  Zn100  1  0.75087015  0.87204056  0.12392586  1
  Zn  Zn101  1  0.49886206  0.62448085  0.12497485  1
  Zn  Zn102  1  0.37479003  0.37664435  0.50129434  1
  Zn  Zn103  1  0.25518838  0.62468042  0.37137504  1
  Zn  Zn104  1  0.37951579  0.87865056  0.50529725  1
  Zn  Zn105  1  0.37294500  0.74608121  0.12734029  1
  Zn  Zn106  1  0.37336702  0.62079093  0.24878934  1
  Zn  Zn107  1  0.74590807  0.00363355  0.74544751  1
  Zn  Zn108  1  0.24935587  0.74909747  0.00180089  1
  Zn  Zn109  1  0.37389975  0.50290113  0.37362703  1
  Zn  Zn110  1  0.37627339  0.75264549  0.62568602  1
  Zn  Zn111  1  -0.00059967  0.50075596  0.49653957  1
  Zn  Zn112  1  0.62474341  0.11505524  0.50631196  1
  Zn  Zn113  1  0.62628461  0.25009529  0.38252065  1
  Zn  Zn114  1  0.12912517  0.75282923  0.36732404  1
  Zn  Zn115  1  0.12434004  0.12584243  0.50077173  1
  Zn  Zn116  1  0.25369009  0.50221761  0.25299985  1
  Zn  Zn117  1  0.62554293  0.00044319  0.12593317  1
  Zn  Zn118  1  0.87174233  0.74976878  0.62613219  1
  Zn  Zn119  1  -0.00254888  0.75091664  0.74920666  1
  Zn  Zn120  1  0.74613378  0.74414345  0.50259371  1
  Zn  Zn121  1  0.63082742  0.37948842  0.25541129  1
  Zn  Zn122  1  0.18844556  0.18627910  0.18952042  1
  Zn  Zn123  1  0.18553948  0.18814865  0.68804649  1
  Zn  Zn124  1  0.18714623  0.68562713  0.18692489  1
  Zn  Zn125  1  0.18638195  0.68963490  0.68604405  1
  Zn  Zn126  1  0.68762756  0.18731431  0.18632413  1
  Zn  Zn127  1  0.68530517  0.18896533  0.69043670  1
  Zn  Zn128  1  0.68806152  0.68522501  0.18904249  1
  Zn  Zn129  1  0.68744085  0.69345299  0.68697407  1
  Zn  Zn130  1  0.31521639  0.31537278  0.31399374  1
  Zn  Zn131  1  0.31085189  0.31437467  0.81360693  1
  Zn  Zn132  1  0.31406276  0.81182018  0.31554480  1
  Zn  Zn133  1  0.31209091  0.81191241  0.81238767  1
  Zn  Zn134  1  0.81461435  0.30992703  0.31207467  1
  Zn  Zn135  1  0.81058686  0.31130902  0.81174964  1
  Zn  Zn136  1  0.81566668  0.80653130  0.31166671  1
  Zn  Zn137  1  0.81103389  0.81182161  0.80962209  1
  Zn  Zn138  1  0.18824098  0.43936492  0.43664141  1
  Zn  Zn139  1  0.18862121  0.43707799  0.93685903  1
  Zn  Zn140  1  0.18821737  0.93805258  0.43956792  1
  Zn  Zn141  1  0.18590592  0.93744318  0.93999723  1
  Zn  Zn142  1  0.68812727  0.43808537  0.43778738  1
  Zn  Zn143  1  0.68961724  0.43681182  0.93981338  1
  Zn  Zn144  1  0.68728377  0.94037249  0.44066686  1
  Zn  Zn145  1  0.68806229  0.93737245  0.93426578  1
  Zn  Zn146  1  0.31381595  0.06252435  0.06550175  1
  Zn  Zn147  1  0.31279241  0.06627575  0.56486242  1
  Zn  Zn148  1  0.31397768  0.56369359  0.06563808  1
  Zn  Zn149  1  0.31519877  0.56381338  0.56040053  1
  Zn  Zn150  1  0.81280347  0.06081687  0.06095422  1
  Zn  Zn151  1  0.81586049  0.05988447  0.56072856  1
  Zn  Zn152  1  0.81133089  0.56016374  0.06005178  1
  Zn  Zn153  1  0.81300988  0.56151572  0.55463159  1
  Zn  Zn154  1  0.44047150  0.43882467  0.18876518  1
  Zn  Zn155  1  0.43673667  0.43931170  0.68750731  1
  Zn  Zn156  1  0.43489292  0.93601662  0.19189063  1
  Zn  Zn157  1  0.43473032  0.93656276  0.69044025  1
  Zn  Zn158  1  0.93941123  0.43574730  0.18510185  1
  Zn  Zn159  1  0.93769665  0.43925527  0.68357148  1
  Zn  Zn160  1  0.93697588  0.93390654  0.18561952  1
  Zn  Zn161  1  0.93537206  0.93740134  0.68683799  1
  Zn  Zn162  1  0.06421237  0.06248194  0.31396979  1
  Zn  Zn163  1  0.06090500  0.06532139  0.81288755  1
  Zn  Zn164  1  0.06013668  0.56027572  0.31029703  1
  Zn  Zn165  1  0.06240715  0.56361216  0.81029875  1
  Zn  Zn166  1  0.56563003  0.05901190  0.32103868  1
  Zn  Zn167  1  0.56063747  0.06375431  0.81222827  1
  Zn  Zn168  1  0.56236075  0.56512411  0.31372556  1
  Zn  Zn169  1  0.56246156  0.56322624  0.81014316  1
  Zn  Zn170  1  0.43489217  0.18889729  0.44091566  1
  Zn  Zn171  1  0.43804807  0.18855915  0.93869490  1
  Zn  Zn172  1  0.43702583  0.68788293  0.43575097  1
  Zn  Zn173  1  0.43931354  0.68794493  0.93828663  1
  Zn  Zn174  1  0.93555999  0.18724227  0.43818567  1
  Zn  Zn175  1  0.93604012  0.18711787  0.93615804  1
  Zn  Zn176  1  0.93706694  0.68500939  0.43252612  1
  Zn  Zn177  1  0.93664957  0.68656437  0.93529661  1
  Zn  Zn178  1  0.06179016  0.31258997  0.06309680  1
  Zn  Zn179  1  0.06159858  0.31351540  0.56323969  1
  Zn  Zn180  1  0.06307699  0.81099167  0.06128668  1
  Zn  Zn181  1  0.06357673  0.81164729  0.56083731  1
  Zn  Zn182  1  0.56505270  0.31295348  0.06291165  1
  Zn  Zn183  1  0.56493165  0.30665289  0.56210402  1
  Zn  Zn184  1  0.56448009  0.81232156  0.06405996  1
  Zn  Zn185  1  0.56477865  0.81459802  0.56325507  1
  O  O186  1  0.11971243  0.11991145  0.12002474  1
  O  O187  1  0.11768945  0.11871977  0.62478535  1
  O  O188  1  0.11540760  0.61841258  0.11680046  1
  O  O189  1  0.11742859  0.62144465  0.61740864  1
  O  O190  1  0.61686465  0.11992489  0.12393011  1
  O  O191  1  0.60767506  0.12712811  0.63156939  1
  O  O192  1  0.62581860  0.61537226  0.11776099  1
  O  O193  1  0.61651693  0.61454973  0.63327724  1
  O  O194  1  0.39022427  0.37632613  0.37904765  1
  O  O195  1  0.37946528  0.38206499  0.88105616  1
  O  O196  1  0.38372840  0.88301679  0.37673308  1
  O  O197  1  0.37823583  0.88119290  0.88394258  1
  O  O198  1  0.87867333  0.37956286  0.37831971  1
  O  O199  1  0.86768956  0.38041863  0.88623063  1
  O  O200  1  0.88349001  0.87891107  0.38122810  1
  O  O201  1  0.88002895  0.87997149  0.87875215  1
  O  O202  1  0.25516906  0.00328849  0.36782868  1
  O  O203  1  0.25270384  0.00677290  0.87212651  1
  O  O204  1  0.25418894  0.50313874  0.37302526  1
  O  O205  1  0.25588585  0.50652577  0.86969200  1
  O  O206  1  0.75819460  0.00581547  0.36328185  1
  O  O207  1  0.75676353  0.00933628  0.87306390  1
  O  O208  1  0.75834195  0.50672918  0.37846336  1
  O  O209  1  0.75533559  0.50527326  0.86789297  1
  O  O210  1  0.24190098  0.49129110  0.12305260  1
  O  O211  1  0.24523138  0.49659794  0.63037096  1
  O  O212  1  0.24637447  0.99457209  0.13316404  1
  O  O213  1  0.24408792  0.99696498  0.63207664  1
  O  O214  1  0.74159759  0.49024513  0.11868400  1
  O  O215  1  0.74296000  0.49694439  0.62787356  1
  O  O216  1  0.74978757  0.99901578  0.13829532  1
  O  O217  1  0.75589010  0.98641190  0.62630909  1
  O  O218  1  0.00588131  0.36695060  0.25394696  1
  O  O219  1  0.00544828  0.36404043  0.74238389  1
  O  O220  1  -0.00596235  0.86630418  0.25898284  1
  O  O221  1  0.00561174  0.87490846  0.75662365  1
  O  O222  1  0.50216951  0.36510237  0.25969170  1
  O  O223  1  0.50383633  0.37275445  0.75585606  1
  O  O224  1  0.50831040  0.86942184  0.25787284  1
  O  O225  1  0.50663520  0.87438021  0.75632562  1
  O  O226  1  0.49563410  0.13186119  0.24894303  1
  O  O227  1  0.49222470  0.13166726  0.74551776  1
  O  O228  1  0.50261972  0.63952293  0.24848843  1
  O  O229  1  0.49419757  0.62565094  0.74007679  1
  O  O230  1  0.99568360  0.12836014  0.24441579  1
  O  O231  1  0.99458281  0.13431990  0.74429503  1
  O  O232  1  0.99867035  0.62929098  0.23721928  1
  O  O233  1  0.99420262  0.62438811  0.73894940  1
  O  O234  1  0.36984133  0.25547847  0.00663676  1
  O  O235  1  0.36614345  0.25391142  0.50854945  1
  O  O236  1  0.37423290  0.76390639  0.00121414  1
  O  O237  1  0.36255215  0.75246020  0.50241281  1
  O  O238  1  0.87818517  0.25941959  0.00535709  1
  O  O239  1  0.87329767  0.25667741  0.50744422  1
  O  O240  1  0.86804599  0.75516355  -0.00211242  1
  O  O241  1  0.87620022  0.76241780  0.49799835  1
  O  O242  1  0.13060459  0.24918875  0.49397297  1
  O  O243  1  0.12931532  0.24573152  0.99618507  1
  O  O244  1  0.13385064  0.74177200  0.49915445  1
  O  O245  1  0.12599189  0.74213184  0.99223442  1
  O  O246  1  0.62959900  0.23591989  0.49973741  1
  O  O247  1  0.62701192  0.24653811  0.99517511  1
  O  O248  1  0.62607028  0.75750391  0.48390237  1
  O  O249  1  0.63034800  0.74494914  0.99408230  1
  O  O250  1  0.49509209  0.24580719  0.13426052  1
  O  O251  1  0.49185476  0.24671385  0.63450749  1
  O  O252  1  0.50038870  0.75103266  0.13625430  1
  O  O253  1  0.50022336  0.73913866  0.62445057  1
  O  O254  1  0.99554441  0.24340958  0.13050710  1
  O  O255  1  0.99463050  0.24472684  0.63369514  1
  O  O256  1  0.99944051  0.73995889  0.12828728  1
  O  O257  1  0.99854378  0.73767427  0.62589627  1
  O  O258  1  0.00436012  0.25403877  0.36912892  1
  O  O259  1  0.00567750  0.24386563  0.86204201  1
  O  O260  1  0.00133160  0.75689852  0.36604280  1
  O  O261  1  0.00657515  0.75618597  0.87324355  1
  O  O262  1  0.50014628  0.25595463  0.36898618  1
  O  O263  1  0.49833452  0.25786741  0.86863356  1
  O  O264  1  0.50791491  0.75793797  0.36738968  1
  O  O265  1  0.50670585  0.75793028  0.87507654  1
  O  O266  1  0.24806089  0.13322978  0.49408033  1
  O  O267  1  0.24463182  0.13028286  0.99738222  1
  O  O268  1  0.24092613  0.63435786  0.50241282  1
  O  O269  1  0.24320831  0.62502113  0.99312436  1
  O  O270  1  0.75589187  0.12294085  0.48609360  1
  O  O271  1  0.74942115  0.12535901  0.99007937  1
  O  O272  1  0.75633096  0.62918521  0.48274708  1
  O  O273  1  0.74532245  0.62876850  0.99164402  1
  O  O274  1  0.25600203  0.36904559  0.00586394  1
  O  O275  1  0.24973836  0.36938155  0.50863153  1
  O  O276  1  0.25916250  0.87770730  0.00874722  1
  O  O277  1  0.24857701  0.86634503  0.50676226  1
  O  O278  1  0.76184106  0.37369237  0.00922171  1
  O  O279  1  0.75570766  0.37221126  0.50705263  1
  O  O280  1  0.75518120  0.86887068  -0.00078420  1
  O  O281  1  0.76017014  0.87534809  0.50455041  1
  O  O282  1  0.12326932  0.49099991  0.24112830  1
  O  O283  1  0.13055521  0.49632314  0.74481594  1
  O  O284  1  0.13874950  1.00672172  0.24433608  1
  O  O285  1  0.12922896  0.99592487  0.74650576  1
  O  O286  1  0.61797276  0.49846121  0.23535450  1
  O  O287  1  0.63036933  0.49528631  0.74083111  1
  O  O288  1  0.63438591  0.99029524  0.25300772  1
  O  O289  1  0.62569716  0.98528329  0.75704443  1
  O  O290  1  0.36420614  0.00506570  0.25839357  1
  O  O291  1  0.36679656  0.00586858  0.75895910  1
  O  O292  1  0.37398206  0.50057951  0.25345700  1
  O  O293  1  0.36923213  0.50673301  0.75637845  1
  O  O294  1  0.86885273  0.00327329  0.25288929  1
  O  O295  1  0.87500844  0.00782785  0.75667883  1
  O  O296  1  0.87962519  0.49801176  0.26127245  1
  O  O297  1  0.86961767  0.50384278  0.75326714  1
  O  O298  1  0.11876222  0.36893188  0.36962178  1
  O  O299  1  0.13131400  0.36734753  0.86657243  1
  O  O300  1  0.11009269  0.87458012  0.38056876  1
  O  O301  1  0.11947767  0.87126567  0.87118671  1
  O  O302  1  0.61590261  0.37173291  0.37370285  1
  O  O303  1  0.61881067  0.37748400  0.86831281  1
  O  O304  1  0.61956408  0.86827112  0.36461181  1
  O  O305  1  0.61958833  0.86972500  0.86805792  1
  O  O306  1  0.38053317  0.13084932  0.13250902  1
  O  O307  1  0.37996253  0.13234403  0.63427891  1
  O  O308  1  0.38124776  0.62978952  0.12760884  1
  O  O309  1  0.38527291  0.62550812  0.63145976  1
  O  O310  1  0.88122724  0.12891904  0.12887712  1
  O  O311  1  0.87973597  0.13018598  0.63055537  1
  O  O312  1  0.88662424  0.62246631  0.12284857  1
  O  O313  1  0.88339391  0.62348092  0.62703682  1
  O  O314  1  0.25601953  0.25411102  0.12053692  1
  O  O315  1  0.25350525  0.25546885  0.62223860  1
  O  O316  1  0.24995866  0.76217233  0.12298579  1
  O  O317  1  0.24959655  0.75735606  0.61655092  1
  O  O318  1  0.75756469  0.25709363  0.12256359  1
  O  O319  1  0.75738207  0.25643909  0.62752008  1
  O  O320  1  0.75201813  0.74980873  0.11588889  1
  O  O321  1  0.75218621  0.76164692  0.61957902  1
  O  O322  1  0.24606920  0.24621283  0.38027245  1
  O  O323  1  0.24452799  0.24481301  0.88245697  1
  O  O324  1  0.24567104  0.75065570  0.38526586  1
  O  O325  1  0.24309139  0.74422332  0.87760713  1
  O  O326  1  0.75175423  0.23830481  0.37493181  1
  O  O327  1  0.74990693  0.23756095  0.87666375  1
  O  O328  1  0.74235251  0.74474352  0.37628552  1
  O  O329  1  0.74398212  0.74366466  0.87954264  1
  O  O330  1  0.00452091  0.11967652  0.00557012  1
  O  O331  1  -0.00074080  0.11728396  0.50632885  1
  O  O332  1  0.00394927  0.61583548  0.00566266  1
  O  O333  1  0.00789419  0.62553479  0.50721649  1
  O  O334  1  0.49716142  0.11481088  0.00712225  1
  O  O335  1  0.49422922  0.13141487  0.52048271  1
  O  O336  1  0.50863129  0.61820372  -0.00039509  1
  O  O337  1  0.49651426  0.61546666  0.51174204  1
  O  O338  1  0.50157667  0.38190063  0.49371423  1
  O  O339  1  0.49426730  0.38006746  0.99463505  1
  O  O340  1  0.49871322  0.86917177  0.48536384  1
  O  O341  1  0.49200381  0.88284715  0.99763240  1
  O  O342  1  0.99291405  0.37553956  0.49300090  1
  O  O343  1  0.98961939  0.38556955  1.00714762  1
  O  O344  1  0.99277129  0.87884262  0.49274753  1
  O  O345  1  0.99512681  0.88070236  0.99403831  1
  O  O346  1  0.50616740  0.49226476  0.38556817  1
  O  O347  1  0.49462051  0.49548619  0.87964408  1
  O  O348  1  0.48647856  0.98990613  0.36414717  1
  O  O349  1  0.49245255  0.99605347  0.88485153  1
  O  O350  1  0.99073781  0.49194041  0.37560939  1
  O  O351  1  0.99455050  0.50593822  0.88636494  1
  O  O352  1  0.99621004  0.99250803  0.37765584  1
  O  O353  1  0.99541940  0.99575482  0.88131394  1
  O  O354  1  0.00493662  0.00465985  0.12045488  1
  O  O355  1  0.00430379  0.00492624  0.62012548  1
  O  O356  1  0.00464602  0.50626752  0.11461584  1
  O  O357  1  0.00641032  0.51111622  0.62190146  1
  O  O358  1  0.49767236  0.00439817  0.11891893  1
  O  O359  1  0.49076348  0.01652694  0.63195935  1
  O  O360  1  0.51153611  0.49795418  0.11616564  1
  O  O361  1  0.50753259  0.50634336  0.61988019  1
  O  O362  1  0.24311347  0.37269587  0.24291165  1
  O  O363  1  0.24376417  0.38233695  0.74490929  1
  O  O364  1  0.25662569  0.88529430  0.24084737  1
  O  O365  1  0.24361263  0.88229108  0.74636451  1
  O  O366  1  0.75004018  0.36892057  0.23604062  1
  O  O367  1  0.74537004  0.38187517  0.74386255  1
  O  O368  1  0.74415926  0.88180276  0.25223308  1
  O  O369  1  0.74276087  0.87719463  0.74154647  1
  O  O370  1  0.25689929  0.11782873  0.25608139  1
  O  O371  1  0.25337606  0.12081911  0.75748158  1
  O  O372  1  0.25168966  0.62226100  0.25239072  1
  O  O373  1  0.25450375  0.62022160  0.75455946  1
  O  O374  1  0.75684684  0.11683986  0.25479116  1
  O  O375  1  0.75574213  0.12367718  0.75800978  1
  O  O376  1  0.75378857  0.63090205  0.26519948  1
  O  O377  1  0.75468093  0.61930762  0.75311537  1
  O  O378  1  0.37050724  0.11771375  0.37145747  1
  O  O379  1  0.36805590  0.12086011  0.87228318  1
  O  O380  1  0.37468352  0.62180683  0.36998539  1
  O  O381  1  0.37026841  0.62050463  0.87073817  1
  O  O382  1  0.87020504  0.11826825  0.36730302  1
  O  O383  1  0.86778741  0.12000743  0.87010272  1
  O  O384  1  0.87017183  0.61389447  0.37129408  1
  O  O385  1  0.86925537  0.61696880  0.86802088  1
  O  O386  1  0.13029703  0.37803826  0.12960209  1
  O  O387  1  0.12983325  0.38154170  0.63193338  1
  O  O388  1  0.13744585  0.88316027  0.11575888  1
  O  O389  1  0.12873452  0.88171313  0.63124430  1
  O  O390  1  0.63522218  0.38250744  0.12519039  1
  O  O391  1  0.62952070  0.38404790  0.63116335  1
  O  O392  1  0.62778910  0.87787647  0.13860257  1
  O  O393  1  0.63406971  0.87003433  0.63444366  1
  O  O394  1  0.11984467  0.25409035  0.25567930  1
  O  O395  1  0.11726790  0.25569875  0.75483642  1
  O  O396  1  0.10888579  0.74514222  0.24932320  1
  O  O397  1  0.12290227  0.75780485  0.75646552  1
  O  O398  1  0.61249093  0.25161829  0.25079768  1
  O  O399  1  0.61715109  0.25946394  0.75375334  1
  O  O400  1  0.61914003  0.75884260  0.25709561  1
  O  O401  1  0.62286293  0.76106733  0.75739854  1
  O  O402  1  0.38480235  0.24510989  0.24668806  1
  O  O403  1  0.37785400  0.24576340  0.74725845  1
  O  O404  1  0.38862912  0.75458245  0.24929708  1
  O  O405  1  0.37779232  0.74300751  0.74761610  1
  O  O406  1  0.88242799  0.24313401  0.24295633  1
  O  O407  1  0.88257019  0.24634434  0.74510147  1
  O  O408  1  0.88859503  0.74463711  0.24574274  1
  O  O409  1  0.87704970  0.74003068  0.74743959  1
  O  O410  1  0.39026927  0.49596020  0.50128167  1
  O  O411  1  0.38118638  0.49470030  0.99494457  1
  O  O412  1  0.36555806  0.99890313  0.48578637  1
  O  O413  1  0.38201711  0.99239026  0.99754472  1
  O  O414  1  0.87776714  0.49086244  0.48805251  1
  O  O415  1  0.88214600  0.49230725  0.99361087  1
  O  O416  1  0.88240002  0.98885878  0.49313238  1
  O  O417  1  0.88125621  0.99381029  0.99369483  1
  O  O418  1  0.11902161  0.00754194  0.00583584  1
  O  O419  1  0.11860625  0.00210233  0.50760913  1
  O  O420  1  0.11657833  0.50272237  0.00275210  1
  O  O421  1  0.12372892  0.51053362  0.50650071  1
  O  O422  1  0.61058224  -0.00194141  0.00184536  1
  O  O423  1  0.61406700  0.00826844  0.48120316  1
  O  O424  1  0.62124466  0.50467779  0.00635524  1
  O  O425  1  0.61606092  0.49532216  0.51306347  1
  O  O426  1  0.37110362  0.36893906  0.11953699  1
  O  O427  1  0.36693897  0.36977939  0.62672446  1
  O  O428  1  0.36477190  0.87626669  0.11734883  1
  O  O429  1  0.36673554  0.87427637  0.62312333  1
  O  O430  1  0.86924568  0.37097222  0.11693938  1
  O  O431  1  0.86886717  0.37151886  0.61929868  1
  O  O432  1  0.87230750  0.87176049  0.11430303  1
  O  O433  1  0.86899358  0.87296233  0.61541117  1
  O  O434  1  0.13201145  0.13245781  0.37668016  1
  O  O435  1  0.12967359  0.13242134  0.88170180  1
  O  O436  1  0.12151878  0.62601301  0.38744828  1
  O  O437  1  0.13039457  0.62949554  0.87816502  1
  O  O438  1  0.64099848  0.12901568  0.36818270  1
  O  O439  1  0.63547351  0.12466734  0.87622298  1
  O  O440  1  0.63318193  0.63593856  0.36953582  1
  O  O441  1  0.63087146  0.62925816  0.87854641  1
