# generated using pymatgen
data_V93Zn93O256
_symmetry_space_group_name_H-M   'P 1'
_cell_length_a   17.04665116
_cell_length_b   17.04975298
_cell_length_c   17.04939004
_cell_angle_alpha   90.04268692
_cell_angle_beta   89.99128747
_cell_angle_gamma   90.02209393
_symmetry_Int_Tables_number   1
_chemical_formula_structural   V93Zn93O256
_chemical_formula_sum   'V93 Zn93 O256'
_cell_volume   4955.25323542
_cell_formula_units_Z   1
loop_
 _symmetry_equiv_pos_site_id
 _symmetry_equiv_pos_as_xyz
  1  'x, y, z'
loop_
 _atom_site_type_symbol
 _atom_site_label
 _atom_site_symmetry_multiplicity
 _atom_site_fract_x
 _atom_site_fract_y
 _atom_site_fract_z
 _atom_site_occupancy
  V  V0  1  0.12452907  0.49986354  0.12508389  1
  V  V1  1  0.12456936  0.74969443  0.37475583  1
  V  V2  1  0.12551133  0.74938737  0.87443814  1
  V  V3  1  0.87475675  0.74952098  0.12510418  1
  V  V4  1  0.12427594  0.12421641  0.50003881  1
  V  V5  1  0.00056118  0.12393942  0.62554587  1
  V  V6  1  0.49858344  0.37221954  0.37069054  1
  V  V7  1  0.87436028  0.62352487  0.25096642  1
  V  V8  1  0.75010224  0.37362233  0.12615078  1
  V  V9  1  0.25002140  0.62521991  0.87439942  1
  V  V10  1  0.37586005  0.00070355  0.37539922  1
  V  V11  1  0.25019712  0.37545554  0.62408989  1
  V  V12  1  0.49770624  -0.00189227  -0.01442467  1
  V  V13  1  0.62341517  0.74948625  0.37282345  1
  V  V14  1  0.62211393  0.75777909  0.87365228  1
  V  V15  1  0.25181974  0.00466100  0.76524093  1
  V  V16  1  0.50154831  0.12648384  0.61817571  1
  V  V17  1  0.11785144  0.62128604  0.50029173  1
  V  V18  1  0.25476635  0.87507256  0.12396725  1
  V  V19  1  0.62635317  -0.00209827  0.12508065  1
  V  V20  1  0.62622418  0.25161713  0.87498464  1
  V  V21  1  0.37868603  0.25013705  0.12755878  1
  V  V22  1  0.25141011  -0.00009036  0.24913586  1
  V  V23  1  0.62491700  0.12584510  -0.00171274  1
  V  V24  1  0.87523941  0.12412684  0.75135019  1
  V  V25  1  0.62386748  0.37515953  0.75037963  1
  V  V26  1  0.11704202  0.49940370  0.62091230  1
  V  V27  1  0.12660609  0.87630609  0.75010003  1
  V  V28  1  0.87360813  0.24830709  0.62493340  1
  V  V29  1  0.12387788  0.24936243  0.37537144  1
  V  V30  1  0.75251480  0.62422968  0.87233366  1
  V  V31  1  0.37715116  0.12837821  0.24823067  1
  V  V32  1  0.74279869  0.24541039  0.50058411  1
  V  V33  1  0.49946359  0.87630275  0.37461534  1
  V  V34  1  0.62180859  0.37236562  0.24943961  1
  V  V35  1  0.37501854  0.50063623  0.87445456  1
  V  V36  1  0.12634665  0.87380481  0.25011237  1
  V  V37  1  0.25012597  0.12496782  0.37365961  1
  V  V38  1  0.24990845  0.62429208  0.37473263  1
  V  V39  1  0.12644307  0.62471644  0.00083879  1
  V  V40  1  0.62361591  0.49997279  0.62329461  1
  V  V41  1  -0.00136458  0.37576476  0.37942254  1
  V  V42  1  0.49988118  0.75746980  0.75237927  1
  V  V43  1  0.75112187  0.75300779  0.00104448  1
  V  V44  1  0.62104564  0.24682537  0.37071636  1
  V  V45  1  0.12470100  0.37453245  0.25100632  1
  V  V46  1  0.12497892  0.37371177  0.75016737  1
  V  V47  1  0.87484751  0.12343164  0.25183586  1
  V  V48  1  0.00098490  0.25099075  0.75386053  1
  V  V49  1  0.37175407  0.12315201  0.76180145  1
  V  V50  1  0.37632828  0.62801310  0.24770557  1
  V  V51  1  0.50155454  0.37651046  0.87425997  1
  V  V52  1  0.87751918  0.49886702  0.37970515  1
  V  V53  1  0.00135078  0.12356555  0.12588262  1
  V  V54  1  0.87600389  -0.00123316  0.87646456  1
  V  V55  1  0.62429639  0.62524473  0.00000139  1
  V  V56  1  0.62439717  0.50000478  0.12448551  1
  V  V57  1  0.37479627  0.37632975  0.49852899  1
  V  V58  1  0.74996668  0.50052968  0.75018639  1
  V  V59  1  0.25139644  0.75194744  0.50285304  1
  V  V60  1  0.74949039  0.49903593  0.25084629  1
  V  V61  1  -0.00007005  0.24915336  0.25161365  1
  V  V62  1  0.74442388  0.12232745  0.37906565  1
  V  V63  1  0.24894773  0.25006666  0.49994281  1
  V  V64  1  0.37927623  0.88002229  -0.01536167  1
  V  V65  1  0.74637213  0.87568292  0.62970395  1
  V  V66  1  0.87724630  0.37652606  0.00001262  1
  V  V67  1  0.00127825  0.62409602  0.12485652  1
  V  V68  1  0.75056754  0.12591753  0.87536927  1
  V  V69  1  -0.00100686  0.74635439  0.74678735  1
  V  V70  1  0.50098213  0.12875215  0.12874314  1
  V  V71  1  0.49892763  0.62586132  0.62201475  1
  V  V72  1  0.12944259  0.00016722  0.62565956  1
  V  V73  1  0.87473308  0.24941848  0.12660592  1
  V  V74  1  0.74817818  0.37407851  0.62493085  1
  V  V75  1  0.62420171  0.00544195  0.61897433  1
  V  V76  1  0.00073006  0.75003867  0.25040709  1
  V  V77  1  0.37514544  0.37576901  0.00047973  1
  V  V78  1  0.37446503  0.24947749  0.62491203  1
  V  V79  1  -0.00011351  0.87433166  0.87607635  1
  V  V80  1  0.74690155  0.74762988  0.49992257  1
  V  V81  1  0.24936099  0.50018329  0.74899629  1
  V  V82  1  0.25053321  0.37479946  0.12544509  1
  V  V83  1  0.12930056  0.12481956  -0.00547484  1
  V  V84  1  0.50066073  0.50190110  -0.00010625  1
  V  V85  1  0.87637053  0.87367495  0.50168849  1
  V  V86  1  0.25065283  0.24614174  -0.00501440  1
  V  V87  1  0.24998797  0.50066257  0.25079232  1
  V  V88  1  0.87541842  -0.00103642  0.37665434  1
  V  V89  1  0.12618489  0.00035708  0.12571892  1
  V  V90  1  0.87628204  0.37549083  0.49986069  1
  V  V91  1  0.25322753  0.75202671  -0.00054411  1
  V  V92  1  0.37467705  0.62617039  0.74841830  1
  Zn  Zn93  1  0.87615585  0.62258688  0.74642232  1
  Zn  Zn94  1  0.00268309  0.37765699  0.87765828  1
  Zn  Zn95  1  0.62278938  0.62191266  0.49771650  1
  Zn  Zn96  1  -0.00513931  0.62068878  0.62127653  1
  Zn  Zn97  1  0.37469333  0.87886299  0.50249152  1
  Zn  Zn98  1  0.12957060  0.24840618  0.87388348  1
  Zn  Zn99  1  0.74719320  0.62219156  0.37563114  1
  Zn  Zn100  1  0.00095437  0.87485565  0.37592657  1
  Zn  Zn101  1  0.75128264  0.24985532  0.00096352  1
  Zn  Zn102  1  0.49909021  0.49996326  0.49830695  1
  Zn  Zn103  1  0.62704099  0.87428888  0.24794831  1
  Zn  Zn104  1  0.00147531  -0.00212590  0.50201225  1
  Zn  Zn105  1  0.49820690  0.25013376  0.74993095  1
  Zn  Zn106  1  0.50056864  0.62810087  0.12507394  1
  Zn  Zn107  1  0.61665637  0.88161465  0.75399744  1
  Zn  Zn108  1  0.74989746  -0.00329150  0.24927083  1
  Zn  Zn109  1  0.50086469  0.75192285  0.24587391  1
  Zn  Zn110  1  0.87855519  0.87569112  0.00335382  1
  Zn  Zn111  1  0.74729975  0.00046008  0.75060838  1
  Zn  Zn112  1  0.37675713  0.50084738  0.37503442  1
  Zn  Zn113  1  0.00114606  0.50053652  -0.00244440  1
  Zn  Zn114  1  0.38129726  0.75344063  0.12135509  1
  Zn  Zn115  1  0.37569729  0.75529465  0.62535408  1
  Zn  Zn116  1  0.00193672  -0.00130799  0.00145351  1
  Zn  Zn117  1  0.87308651  0.74656540  0.62646986  1
  Zn  Zn118  1  0.50120183  0.00295420  0.49848591  1
  Zn  Zn119  1  0.87866764  0.49926092  0.87354483  1
  Zn  Zn120  1  0.25358554  0.87623299  0.62666483  1
  Zn  Zn121  1  0.75279782  0.87631807  0.12851458  1
  Zn  Zn122  1  0.18977386  0.18799877  0.18457922  1
  Zn  Zn123  1  0.18923585  0.18617391  0.68840233  1
  Zn  Zn124  1  0.19029584  0.68909135  0.18578026  1
  Zn  Zn125  1  0.18521378  0.68608564  0.68527655  1
  Zn  Zn126  1  0.68919814  0.18497971  0.18993080  1
  Zn  Zn127  1  0.68592511  0.18683712  0.69070765  1
  Zn  Zn128  1  0.68790306  0.68580572  0.18777331  1
  Zn  Zn129  1  0.68341528  0.68757296  0.68755665  1
  Zn  Zn130  1  0.31276243  0.31107281  0.31140309  1
  Zn  Zn131  1  0.31389228  0.31255200  0.81174495  1
  Zn  Zn132  1  0.31312287  0.81178267  0.31359174  1
  Zn  Zn133  1  0.31138294  0.81389796  0.80861658  1
  Zn  Zn134  1  0.81006511  0.31152788  0.31292209  1
  Zn  Zn135  1  0.81253447  0.31307284  0.81374259  1
  Zn  Zn136  1  0.81023339  0.81313088  0.31127814  1
  Zn  Zn137  1  0.81397499  0.81175792  0.81363023  1
  Zn  Zn138  1  0.18783515  0.43872184  0.43693774  1
  Zn  Zn139  1  0.18706209  0.43582417  0.93691559  1
  Zn  Zn140  1  0.18852035  0.93696676  0.43660603  1
  Zn  Zn141  1  0.18711026  0.93582527  0.94028193  1
  Zn  Zn142  1  0.68704343  0.43532705  0.43826226  1
  Zn  Zn143  1  0.69009444  0.43746069  0.93900609  1
  Zn  Zn144  1  0.68627724  0.93452042  0.43982105  1
  Zn  Zn145  1  0.68814795  0.93998736  0.93980620  1
  Zn  Zn146  1  0.31528727  0.06069957  0.05906896  1
  Zn  Zn147  1  0.31518737  0.06463386  0.56366623  1
  Zn  Zn148  1  0.31238663  0.56323523  0.06381084  1
  Zn  Zn149  1  0.31072681  0.56291214  0.56123019  1
  Zn  Zn150  1  0.81236904  0.06377601  0.06077947  1
  Zn  Zn151  1  0.81156806  0.06073806  0.56267395  1
  Zn  Zn152  1  0.81200969  0.56218094  0.06246211  1
  Zn  Zn153  1  0.81225917  0.56294682  0.56370867  1
  Zn  Zn154  1  0.43805487  0.43985852  0.18824347  1
  Zn  Zn155  1  0.43762299  0.43848539  0.68672824  1
  Zn  Zn156  1  0.43955184  0.93936182  0.18374314  1
  Zn  Zn157  1  0.43385050  0.94196386  0.68582122  1
  Zn  Zn158  1  0.93822845  0.43767402  0.18909013  1
  Zn  Zn159  1  0.93423829  0.43538433  0.68926271  1
  Zn  Zn160  1  0.93839895  0.93563749  0.18815772  1
  Zn  Zn161  1  0.93841292  0.93566994  0.68894346  1
  Zn  Zn162  1  0.06164395  0.06033357  0.31285709  1
  Zn  Zn163  1  0.06211432  0.06177834  0.81306691  1
  Zn  Zn164  1  0.06096526  0.56184878  0.31341441  1
  Zn  Zn165  1  0.06238104  0.56027650  0.81296514  1
  Zn  Zn166  1  0.56226902  0.06053756  0.31000741  1
  Zn  Zn167  1  0.56357662  0.06705965  0.80463892  1
  Zn  Zn168  1  0.56043595  0.56095265  0.31273979  1
  Zn  Zn169  1  0.56332475  0.56644271  0.81100213  1
  Zn  Zn170  1  0.43629083  0.18858192  0.43738753  1
  Zn  Zn171  1  0.44206350  0.18945039  0.94150727  1
  Zn  Zn172  1  0.43595601  0.68933835  0.43515938  1
  Zn  Zn173  1  0.43758275  0.68987347  0.93650832  1
  Zn  Zn174  1  0.93593905  0.18731950  0.43983763  1
  Zn  Zn175  1  0.93938166  0.18662452  0.94064631  1
  Zn  Zn176  1  0.93582664  0.68815324  0.43522443  1
  Zn  Zn177  1  0.93834667  0.68706795  0.93766042  1
  Zn  Zn178  1  0.06254951  0.31025324  0.06354127  1
  Zn  Zn179  1  0.06101193  0.31181755  0.56365022  1
  Zn  Zn180  1  0.06390041  0.81219404  0.06276559  1
  Zn  Zn181  1  0.06422776  0.81152896  0.56338962  1
  Zn  Zn182  1  0.56344099  0.31276245  0.06030525  1
  Zn  Zn183  1  0.55976788  0.31221309  0.56046736  1
  Zn  Zn184  1  0.55930899  0.81475105  0.06018118  1
  Zn  Zn185  1  0.56196134  0.81492195  0.56247441  1
  O  O186  1  0.12062983  0.11977139  0.11907248  1
  O  O187  1  0.12084468  0.11819368  0.62019608  1
  O  O188  1  0.12168531  0.61996551  0.12036432  1
  O  O189  1  0.12297456  0.61530408  0.61694097  1
  O  O190  1  0.61926955  0.12038979  0.12002389  1
  O  O191  1  0.61394993  0.11790635  0.63394763  1
  O  O192  1  0.62547457  0.61691934  0.11760492  1
  O  O193  1  0.61436181  0.61933995  0.62366068  1
  O  O194  1  0.38367540  0.37207534  0.37869671  1
  O  O195  1  0.38051822  0.38164127  0.88007428  1
  O  O196  1  0.38313506  0.88203780  0.37485693  1
  O  O197  1  0.37095689  0.87356512  0.88584005  1
  O  O198  1  0.87830019  0.38035403  0.37904721  1
  O  O199  1  0.87562488  0.37514020  0.88783101  1
  O  O200  1  0.87310263  0.88296770  0.38496576  1
  O  O201  1  0.88029631  0.88399045  0.87665803  1
  O  O202  1  0.25474469  0.00630760  0.36838572  1
  O  O203  1  0.24325821  0.00053687  0.86363705  1
  O  O204  1  0.25068330  0.50623045  0.36753689  1
  O  O205  1  0.25518195  0.50507192  0.86901070  1
  O  O206  1  0.75786090  0.00724418  0.37953235  1
  O  O207  1  0.75960815  0.00539602  0.87357608  1
  O  O208  1  0.75846068  0.49831248  0.36868332  1
  O  O209  1  0.74848433  0.51062458  0.86957160  1
  O  O210  1  0.24415476  0.49385344  0.13070798  1
  O  O211  1  0.24134923  0.49470750  0.63038405  1
  O  O212  1  0.24575777  0.99511883  0.13078645  1
  O  O213  1  0.23813107  1.00297545  0.63147586  1
  O  O214  1  0.74414134  0.49381801  0.13090905  1
  O  O215  1  0.74352424  0.49362390  0.63017708  1
  O  O216  1  0.73895889  1.00089578  0.12326076  1
  O  O217  1  0.74295229  0.99306989  0.62605872  1
  O  O218  1  0.00538036  0.36802802  0.25717983  1
  O  O219  1  0.00505973  0.36332025  0.74811075  1
  O  O220  1  0.00815784  0.86732978  0.25177303  1
  O  O221  1  0.00632950  0.86669350  0.75626464  1
  O  O222  1  0.50534511  0.37825697  0.26108457  1
  O  O223  1  0.50560019  0.37498422  0.75671451  1
  O  O224  1  0.50246953  0.87532462  0.26218941  1
  O  O225  1  0.49760378  0.86072125  0.74357708  1
  O  O226  1  0.49404952  0.11988943  0.23625604  1
  O  O227  1  0.48637368  0.12757591  0.73970864  1
  O  O228  1  0.48797818  0.62501707  0.24915849  1
  O  O229  1  0.49488194  0.63279247  0.74095995  1
  O  O230  1  0.99501695  0.13002025  0.24654230  1
  O  O231  1  0.99590090  0.13303784  0.74556041  1
  O  O232  1  0.99470110  0.63040620  0.24474424  1
  O  O233  1  1.00098581  0.63620727  0.74960027  1
  O  O234  1  0.36894575  0.25563504  0.00656748  1
  O  O235  1  0.36702147  0.25585761  0.50489752  1
  O  O236  1  0.37032128  0.75973732  -0.00112237  1
  O  O237  1  0.36126103  0.74987089  0.50012102  1
  O  O238  1  0.87507654  0.25817808  0.00837156  1
  O  O239  1  0.86373173  0.25413119  0.50546308  1
  O  O240  1  0.86584132  0.74863640  0.00520766  1
  O  O241  1  0.86513581  0.75861303  0.49884362  1
  O  O242  1  0.12947266  0.24410488  0.49505575  1
  O  O243  1  0.13396285  0.24245299  1.00138666  1
  O  O244  1  0.13226926  0.74233767  0.49543244  1
  O  O245  1  0.13250265  0.74481504  0.99384942  1
  O  O246  1  0.63685261  0.25556321  0.48958365  1
  O  O247  1  0.62757244  0.24408045  0.99283336  1
  O  O248  1  0.63255748  0.75100787  0.49112982  1
  O  O249  1  0.63206295  0.74585531  0.99221445  1
  O  O250  1  0.49475817  0.23740618  0.11588675  1
  O  O251  1  0.49405998  0.24401469  0.62684889  1
  O  O252  1  0.49927912  0.74618196  0.12845092  1
  O  O253  1  0.50087804  0.74090214  0.63246262  1
  O  O254  1  0.99485200  0.24365560  0.13364841  1
  O  O255  1  0.99431076  0.24395901  0.63443946  1
  O  O256  1  0.99584855  0.74364848  0.13084711  1
  O  O257  1  1.00013033  0.74949271  0.63713545  1
  O  O258  1  0.00476714  0.25350331  0.37029557  1
  O  O259  1  -0.00007680  0.24998031  0.86174789  1
  O  O260  1  0.00647235  0.75114546  0.36772873  1
  O  O261  1  0.00603634  0.75388494  0.86756795  1
  O  O262  1  0.51152658  0.25765882  0.38217724  1
  O  O263  1  0.50755947  0.25923733  0.87467508  1
  O  O264  1  0.50817650  0.75810136  0.37373321  1
  O  O265  1  0.51207052  0.74120440  0.86430682  1
  O  O266  1  0.24427747  0.13092925  0.49364018  1
  O  O267  1  0.24173610  0.13520418  1.00921080  1
  O  O268  1  0.24053432  0.63285644  0.49521495  1
  O  O269  1  0.24650309  0.63101193  0.99376382  1
  O  O270  1  0.75552486  0.13455181  0.49061633  1
  O  O271  1  0.74313333  0.12737992  0.99264233  1
  O  O272  1  0.74758930  0.63780825  0.49921630  1
  O  O273  1  0.74506040  0.63314718  0.99216467  1
  O  O274  1  0.25569384  0.36853134  0.00673148  1
  O  O275  1  0.25392326  0.36874816  0.50414707  1
  O  O276  1  0.25846269  0.87175962  0.00415745  1
  O  O277  1  0.24865595  0.86285193  0.50075687  1
  O  O278  1  0.75941273  0.37331699  0.00803652  1
  O  O279  1  0.75547320  0.36447045  0.50542390  1
  O  O280  1  0.75223776  0.86126857  0.00084677  1
  O  O281  1  0.75667241  0.86726752  0.50866520  1
  O  O282  1  0.12990137  0.49401040  0.24553631  1
  O  O283  1  0.13125535  0.49441022  0.74130018  1
  O  O284  1  0.13152233  0.99445897  0.24583370  1
  O  O285  1  0.13233538  0.99841754  0.74399328  1
  O  O286  1  0.63002283  0.49345969  0.24473851  1
  O  O287  1  0.62996763  0.49483086  0.74398472  1
  O  O288  1  0.62731695  1.00001399  0.23674186  1
  O  O289  1  0.62748499  0.99691498  0.73867409  1
  O  O290  1  0.36988188  0.00777531  0.25475494  1
  O  O291  1  0.36634548  0.01507760  0.74655666  1
  O  O292  1  0.36746149  0.50939559  0.25071786  1
  O  O293  1  0.36896160  0.50544480  0.75498345  1
  O  O294  1  0.87452038  0.00416456  0.26152117  1
  O  O295  1  0.87515553  0.00531076  0.76062886  1
  O  O296  1  0.86896016  0.50323017  0.25834411  1
  O  O297  1  0.86514200  0.50116531  0.75282932  1
  O  O298  1  0.11954448  0.36928335  0.37105903  1
  O  O299  1  0.12335945  0.37058687  0.86608912  1
  O  O300  1  0.12386573  0.86864321  0.36803960  1
  O  O301  1  0.12012869  0.86908359  0.86954606  1
  O  O302  1  0.61813564  0.36668422  0.36994340  1
  O  O303  1  0.62141295  0.37213335  0.87043976  1
  O  O304  1  0.61719455  0.86738185  0.37478260  1
  O  O305  1  0.63380897  0.86130074  0.87265582  1
  O  O306  1  0.38349973  0.12926363  0.12803767  1
  O  O307  1  0.38222505  0.13172253  0.63130792  1
  O  O308  1  0.37506026  0.62767944  0.13492223  1
  O  O309  1  0.38298321  0.62615552  0.63051019  1
  O  O310  1  0.88052566  0.12859176  0.13135787  1
  O  O311  1  0.87973822  0.12872267  0.63055156  1
  O  O312  1  0.88061758  0.62918926  0.13102665  1
  O  O313  1  0.87928896  0.62857461  0.62721612  1
  O  O314  1  0.25686031  0.25655643  0.11626996  1
  O  O315  1  0.25333336  0.25588289  0.61888075  1
  O  O316  1  0.25151489  0.75787349  0.11603113  1
  O  O317  1  0.24948242  0.75076656  0.61510356  1
  O  O318  1  0.75710315  0.25526057  0.12590192  1
  O  O319  1  0.75258797  0.25246439  0.61821493  1
  O  O320  1  0.75499501  0.74767345  0.11446734  1
  O  O321  1  0.74701219  0.75842137  0.61649408  1
  O  O322  1  0.24301685  0.24457314  0.37985654  1
  O  O323  1  0.25079560  0.25613823  0.89124960  1
  O  O324  1  0.24329372  0.74410107  0.38235522  1
  O  O325  1  0.24435519  0.74442182  0.87843897  1
  O  O326  1  0.74323656  0.24207388  0.38192434  1
  O  O327  1  0.74437581  0.24374463  0.87681022  1
  O  O328  1  0.74101528  0.75073244  0.38433220  1
  O  O329  1  0.74392535  0.74252627  0.88111201  1
  O  O330  1  0.01054879  0.12431830  0.00897043  1
  O  O331  1  0.00590411  0.12376737  0.50748806  1
  O  O332  1  0.00832634  0.62562809  0.00724844  1
  O  O333  1  0.01451575  0.63196780  0.50013550  1
  O  O334  1  0.50509467  0.11756000  0.00842253  1
  O  O335  1  0.49491437  0.12514433  0.51405774  1
  O  O336  1  0.50659506  0.61846985  -0.00146676  1
  O  O337  1  0.49866500  0.62501590  0.51099855  1
  O  O338  1  0.49274678  0.37538285  0.48993946  1
  O  O339  1  0.49466777  0.38219307  0.99413753  1
  O  O340  1  0.49764134  0.87640793  0.48649316  1
  O  O341  1  0.49088840  0.88591736  1.00187700  1
  O  O342  1  0.98918329  0.36507188  0.49259805  1
  O  O343  1  0.99000264  0.37505015  1.00151254  1
  O  O344  1  0.98820162  0.87418186  0.49962393  1
  O  O345  1  0.99990437  0.87652566  0.99164930  1
  O  O346  1  0.49855464  0.48653857  0.37820347  1
  O  O347  1  0.49506798  0.49675290  0.87927304  1
  O  O348  1  0.49587224  0.99399815  0.37672627  1
  O  O349  1  0.50968582  1.00746450  0.88749146  1
  O  O350  1  0.98595985  0.49215432  0.36876986  1
  O  O351  1  0.99641910  0.49626310  0.87910067  1
  O  O352  1  0.98782734  0.99812900  0.37899659  1
  O  O353  1  0.99147159  0.99369097  0.87528551  1
  O  O354  1  0.00748212  0.00576224  0.12570963  1
  O  O355  1  0.01208592  0.00516245  0.62742936  1
  O  O356  1  0.00744368  0.50673293  0.12566727  1
  O  O357  1  0.01391135  0.49801187  0.63083223  1
  O  O358  1  0.50951024  0.01015550  0.11700761  1
  O  O359  1  0.50713281  0.00872189  0.62349840  1
  O  O360  1  0.50713918  0.50122826  0.11717372  1
  O  O361  1  0.50463089  0.51006032  0.62483017  1
  O  O362  1  0.24409588  0.37950992  0.24517482  1
  O  O363  1  0.24556745  0.37983893  0.74351832  1
  O  O364  1  0.24577397  0.88038027  0.24495224  1
  O  O365  1  0.24411585  0.88624390  0.74806239  1
  O  O366  1  0.74339955  0.37952969  0.24500512  1
  O  O367  1  0.74415309  0.37950244  0.74398491  1
  O  O368  1  0.74556642  0.87939049  0.24616251  1
  O  O369  1  0.75061742  0.87436101  0.73709129  1
  O  O370  1  0.25487371  0.11959011  0.25448693  1
  O  O371  1  0.26280943  0.12008032  0.74730724  1
  O  O372  1  0.25582354  0.62061572  0.25468892  1
  O  O373  1  0.25403687  0.62022650  0.75479627  1
  O  O374  1  0.75724230  0.12164618  0.26292248  1
  O  O375  1  0.75852010  0.12441596  0.75723656  1
  O  O376  1  0.75705970  0.61722368  0.25240632  1
  O  O377  1  0.74834881  0.62076263  0.75838036  1
  O  O378  1  0.36969548  0.12202577  0.36835240  1
  O  O379  1  0.38184991  0.13314580  0.85947576  1
  O  O380  1  0.36843824  0.62375536  0.36550686  1
  O  O381  1  0.36932607  0.61944546  0.86914884  1
  O  O382  1  0.86703150  0.11677056  0.37311143  1
  O  O383  1  0.87220456  0.11762568  0.87179231  1
  O  O384  1  0.87312798  0.61485005  0.37034233  1
  O  O385  1  0.86151974  0.62475241  0.87397718  1
  O  O386  1  0.13020067  0.37891873  0.13189711  1
  O  O387  1  0.13050781  0.38089716  0.62845336  1
  O  O388  1  0.13275699  0.88024338  0.13010439  1
  O  O389  1  0.12586394  0.88578181  0.63136471  1
  O  O390  1  0.62942466  0.37933095  0.12948823  1
  O  O391  1  0.62906867  0.37901200  0.62991994  1
  O  O392  1  0.62611851  0.88745156  0.12345449  1
  O  O393  1  0.63280086  0.88329308  0.62681970  1
  O  O394  1  0.12070303  0.25454377  0.25569716  1
  O  O395  1  0.11703434  0.25309052  0.74970682  1
  O  O396  1  0.12138918  0.75415237  0.25501046  1
  O  O397  1  0.11931611  0.75516725  0.75497128  1
  O  O398  1  0.63173347  0.25600620  0.26319584  1
  O  O399  1  0.62289654  0.25816148  0.75725046  1
  O  O400  1  0.62523204  0.75044424  0.26197694  1
  O  O401  1  0.61676619  0.75210526  0.75753616  1
  O  O402  1  0.36783716  0.24129941  0.23964762  1
  O  O403  1  0.37298738  0.24017927  0.74307702  1
  O  O404  1  0.37464323  0.73887792  0.24820523  1
  O  O405  1  0.38273970  0.74328003  0.75003129  1
  O  O406  1  0.88005063  0.24365709  0.24729434  1
  O  O407  1  0.88236279  0.24548345  0.74456614  1
  O  O408  1  0.87981421  0.74329293  0.24618385  1
  O  O409  1  0.88681589  0.74880086  0.74945899  1
  O  O410  1  0.37443527  0.49125511  0.49640872  1
  O  O411  1  0.37907390  0.49526728  0.99412475  1
  O  O412  1  0.37568007  1.00036300  0.48955284  1
  O  O413  1  0.38557872  0.99271734  1.00277007  1
  O  O414  1  0.86525191  0.49159155  0.48791725  1
  O  O415  1  0.87657548  0.48862218  1.00064986  1
  O  O416  1  0.87571028  0.99067473  0.49381334  1
  O  O417  1  0.87839566  0.99946984  0.98820184  1
  O  O418  1  0.12624773  0.00869105  0.00762377  1
  O  O419  1  0.12439096  0.00513569  0.50826439  1
  O  O420  1  0.12679664  0.50639589  0.00782967  1
  O  O421  1  0.13180775  0.50924155  0.50922919  1
  O  O422  1  0.61873526  0.00587356  0.00658197  1
  O  O423  1  0.62408441  -0.00280223  0.51461408  1
  O  O424  1  0.62073080  0.50481268  0.00455116  1
  O  O425  1  0.62311424  0.50119444  0.50791931  1
  O  O426  1  0.37114528  0.37113245  0.11987925  1
  O  O427  1  0.36932593  0.37005043  0.62010098  1
  O  O428  1  0.36875621  0.87496108  0.11731852  1
  O  O429  1  0.37061968  0.87321454  0.61985263  1
  O  O430  1  0.87046980  0.36960996  0.12047523  1
  O  O431  1  0.86747225  0.36771756  0.62040321  1
  O  O432  1  0.87368949  0.86604268  0.12242725  1
  O  O433  1  0.86609311  0.87503633  0.61636050  1
  O  O434  1  0.12978986  0.12935264  0.37968452  1
  O  O435  1  0.11907245  0.12722382  0.89054289  1
  O  O436  1  0.12942367  0.62830359  0.38178676  1
  O  O437  1  0.13180955  0.62953490  0.88040375  1
  O  O438  1  0.63492306  0.13162112  0.36888854  1
  O  O439  1  0.63076427  0.13160887  0.87795870  1
  O  O440  1  0.62500623  0.63494182  0.37778474  1
  O  O441  1  0.63486698  0.63382204  0.87899060  1
