# generated using pymatgen
data_V93Zn93O256
_symmetry_space_group_name_H-M   'P 1'
_cell_length_a   17.05209384
_cell_length_b   17.04918545
_cell_length_c   17.04864816
_cell_angle_alpha   89.91157837
_cell_angle_beta   90.01863510
_cell_angle_gamma   89.94224662
_symmetry_Int_Tables_number   1
_chemical_formula_structural   V93Zn93O256
_chemical_formula_sum   'V93 Zn93 O256'
_cell_volume   4956.44779085
_cell_formula_units_Z   1
loop_
 _symmetry_equiv_pos_site_id
 _symmetry_equiv_pos_as_xyz
  1  'x, y, z'
loop_
 _atom_site_type_symbol
 _atom_site_label
 _atom_site_symmetry_multiplicity
 _atom_site_fract_x
 _atom_site_fract_y
 _atom_site_fract_z
 _atom_site_occupancy
  V  V0  1  -0.00090807  0.37413517  0.37477244  1
  V  V1  1  0.74957085  0.62412731  0.37639179  1
  V  V2  1  0.75312318  0.75082610  0.00281686  1
  V  V3  1  0.50140623  0.74841216  0.25265062  1
  V  V4  1  0.49731779  0.63283036  0.62387821  1
  V  V5  1  0.50046263  0.87605631  0.87364184  1
  V  V6  1  0.49695205  0.00023574  0.50081578  1
  V  V7  1  0.74959570  0.24945951  -0.00085490  1
  V  V8  1  0.74928367  0.25275371  0.51109894  1
  V  V9  1  -0.00028900  0.49946538  0.49936170  1
  V  V10  1  0.12413964  0.24838173  0.37470366  1
  V  V11  1  0.37626337  0.87437450  0.00176278  1
  V  V12  1  0.62536339  0.12472533  -0.00094340  1
  V  V13  1  0.74931051  0.12260040  0.87068962  1
  V  V14  1  0.12310138  0.62315809  0.49912538  1
  V  V15  1  0.12378502  0.87310799  0.24924222  1
  V  V16  1  0.12472713  0.25072808  0.87503629  1
  V  V17  1  0.87519113  0.49740666  0.37678300  1
  V  V18  1  0.87346963  0.87613667  0.49950180  1
  V  V19  1  0.62623145  0.37631730  0.74801465  1
  V  V20  1  0.25102498  0.25068137  0.00184345  1
  V  V21  1  0.37615496  0.74926589  0.12587701  1
  V  V22  1  0.25109519  0.87317251  0.12640224  1
  V  V23  1  0.50277103  0.49900384  0.50282220  1
  V  V24  1  0.50075721  0.62385079  0.12531555  1
  V  V25  1  0.75199744  0.87412250  0.12422503  1
  V  V26  1  0.37416006  0.00050451  0.87496872  1
  V  V27  1  0.87591152  0.24990502  0.12403617  1
  V  V28  1  0.25141200  0.50066277  0.75038227  1
  V  V29  1  0.24968539  0.12259750  0.37564932  1
  V  V30  1  0.25464590  0.75285039  0.50525683  1
  V  V31  1  0.12454395  -0.00872039  0.62940924  1
  V  V32  1  0.00052727  0.37669720  0.87426892  1
  V  V33  1  0.87504913  0.37574958  -0.00120894  1
  V  V34  1  0.50041942  0.49946977  -0.00001841  1
  V  V35  1  0.24912512  0.62260526  0.37235663  1
  V  V36  1  0.50002468  0.12428872  0.12620428  1
  V  V37  1  -0.00051918  0.24890680  0.24902637  1
  V  V38  1  0.37341492  0.25028526  0.62661710  1
  V  V39  1  -0.00065029  0.12506744  0.12438838  1
  V  V40  1  0.75102084  0.50461344  0.74931300  1
  V  V41  1  0.62534581  -0.00118998  0.12478854  1
  V  V42  1  0.12349772  0.12417735  0.50064144  1
  V  V43  1  0.74973495  0.49921616  0.24949589  1
  V  V44  1  0.24957505  0.24847730  0.50136717  1
  V  V45  1  -0.00336097  0.63186268  0.12491432  1
  V  V46  1  0.37488975  0.24993305  0.12549498  1
  V  V47  1  0.12626958  0.49886339  0.12626756  1
  V  V48  1  0.62481611  0.87299590  0.25101261  1
  V  V49  1  0.62389988  0.75246108  0.87295050  1
  V  V50  1  0.74817500  0.75138235  0.50007065  1
  V  V51  1  0.24900407  0.12558964  0.87519391  1
  V  V52  1  0.63121549  0.88044877  0.74914667  1
  V  V53  1  0.25021020  -0.00151127  0.25178908  1
  V  V54  1  -0.00164345  0.00096938  0.50010343  1
  V  V55  1  0.87300228  0.12847102  0.74750494  1
  V  V56  1  0.37443494  0.12242588  0.25222201  1
  V  V57  1  0.12460232  0.12490652  -0.00051573  1
  V  V58  1  0.12813069  0.62615831  -0.00133348  1
  V  V59  1  0.87554421  0.75000510  0.62784750  1
  V  V60  1  0.12545309  0.75720055  0.86991462  1
  V  V61  1  0.62604433  0.62605852  -0.00227175  1
  V  V62  1  0.37434964  0.12632280  0.75110741  1
  V  V63  1  0.87243625  0.00112476  0.37411803  1
  V  V64  1  0.12625120  0.37428526  0.24881587  1
  V  V65  1  0.37675156  0.63182167  0.74611629  1
  V  V66  1  0.49862780  0.25138623  0.74992182  1
  V  V67  1  0.87610435  0.87270931  0.00140970  1
  V  V68  1  0.62565199  0.49847828  0.12475965  1
  V  V69  1  0.24515434  -0.00618952  0.75029238  1
  V  V70  1  0.49987054  0.00030888  0.00020290  1
  V  V71  1  -0.00409384  0.12961226  0.62493883  1
  V  V72  1  0.37524476  0.49754359  0.37451949  1
  V  V73  1  0.75004129  0.37562338  0.12422133  1
  V  V74  1  -0.00113018  0.87513330  0.37355624  1
  V  V75  1  0.12225799  0.74886941  0.37302853  1
  V  V76  1  0.12468467  0.50069832  0.62409321  1
  V  V77  1  0.74340400  0.13470270  0.37286297  1
  V  V78  1  0.50610591  0.36989132  0.37620611  1
  V  V79  1  0.87316215  0.00037054  0.87008320  1
  V  V80  1  -0.00053169  -0.00027669  -0.00134381  1
  V  V81  1  0.74966268  -0.00014422  0.25093358  1
  V  V82  1  0.87469390  0.50272677  0.87367646  1
  V  V83  1  0.12487447  -0.00142429  0.12435241  1
  V  V84  1  0.12502301  0.37694226  0.75076338  1
  V  V85  1  0.63090413  0.00689848  0.62622983  1
  V  V86  1  0.24935751  0.37391077  0.62493303  1
  V  V87  1  0.50666455  0.24821391  0.25582413  1
  V  V88  1  0.00034850  0.50066964  -0.00074684  1
  V  V89  1  -0.00204781  0.25183994  0.74770924  1
  V  V90  1  0.50014461  0.37605952  0.87569125  1
  V  V91  1  0.87483863  0.63062669  0.24593306  1
  V  V92  1  0.37635905  0.50119204  0.87511028  1
  Zn  Zn93  1  0.37540200  0.62304521  0.24892901  1
  Zn  Zn94  1  0.49831718  0.12719225  0.62410806  1
  Zn  Zn95  1  0.38084135  0.86728468  0.50757686  1
  Zn  Zn96  1  0.00825204  0.75733354  0.74313662  1
  Zn  Zn97  1  -0.00519367  0.75286654  0.24604936  1
  Zn  Zn98  1  0.49879166  0.87273573  0.37776336  1
  Zn  Zn99  1  0.62860787  0.50185095  0.62451232  1
  Zn  Zn100  1  0.62836134  0.37036400  0.25267535  1
  Zn  Zn101  1  0.62547924  0.62594996  0.50187156  1
  Zn  Zn102  1  0.87979067  0.62926640  0.75136270  1
  Zn  Zn103  1  0.25237245  0.37571628  0.12598878  1
  Zn  Zn104  1  0.75206009  0.62920198  0.87349661  1
  Zn  Zn105  1  0.76316782  0.37344050  0.63088683  1
  Zn  Zn106  1  0.25248897  0.62631589  0.87458729  1
  Zn  Zn107  1  0.62391393  0.24937434  0.87477869  1
  Zn  Zn108  1  0.75261543  0.88139026  0.62806197  1
  Zn  Zn109  1  0.25151919  0.49595530  0.24914654  1
  Zn  Zn110  1  0.37455218  0.37607484  0.00231172  1
  Zn  Zn111  1  0.87355080  0.12452412  0.24871778  1
  Zn  Zn112  1  0.61920311  0.13498610  0.49225097  1
  Zn  Zn113  1  0.37378772  -0.00616645  0.37842875  1
  Zn  Zn114  1  0.00041118  0.62656265  0.62692434  1
  Zn  Zn115  1  0.25193704  0.74913544  0.00130599  1
  Zn  Zn116  1  0.88062693  0.36638152  0.50948238  1
  Zn  Zn117  1  0.49571049  0.75728847  0.74236003  1
  Zn  Zn118  1  0.25517335  0.86737570  0.63426848  1
  Zn  Zn119  1  0.62412584  0.74946562  0.37733523  1
  Zn  Zn120  1  0.37542711  0.37213693  0.50118368  1
  Zn  Zn121  1  0.00573459  0.87964122  0.86633422  1
  Zn  Zn122  1  0.18778552  0.18659701  0.18753337  1
  Zn  Zn123  1  0.18474405  0.18436642  0.68798307  1
  Zn  Zn124  1  0.18638787  0.68702614  0.18721084  1
  Zn  Zn125  1  0.18861459  0.68327346  0.68775723  1
  Zn  Zn126  1  0.68841697  0.18607705  0.18625616  1
  Zn  Zn127  1  0.68594021  0.18893652  0.68904128  1
  Zn  Zn128  1  0.68770595  0.68643195  0.18567710  1
  Zn  Zn129  1  0.68415833  0.68894376  0.68546241  1
  Zn  Zn130  1  0.31479022  0.31090209  0.31247529  1
  Zn  Zn131  1  0.31282009  0.31465812  0.81439737  1
  Zn  Zn132  1  0.31577694  0.81287811  0.31773702  1
  Zn  Zn133  1  0.31107378  0.81102891  0.81752869  1
  Zn  Zn134  1  0.81412225  0.31231629  0.31296181  1
  Zn  Zn135  1  0.81266075  0.31205386  0.81253006  1
  Zn  Zn136  1  0.81087927  0.81271039  0.31416658  1
  Zn  Zn137  1  0.81149643  0.81562353  0.81380517  1
  Zn  Zn138  1  0.18629040  0.43457342  0.43750451  1
  Zn  Zn139  1  0.19051074  0.43845075  0.93850294  1
  Zn  Zn140  1  0.18385244  0.93672443  0.43764160  1
  Zn  Zn141  1  0.19101384  0.93749437  0.94011984  1
  Zn  Zn142  1  0.68846580  0.43476364  0.43834587  1
  Zn  Zn143  1  0.68747803  0.43844691  0.93446130  1
  Zn  Zn144  1  0.68375983  0.93941035  0.43698053  1
  Zn  Zn145  1  0.68851113  0.93854029  0.93624824  1
  Zn  Zn146  1  0.31233633  0.06266834  0.06409802  1
  Zn  Zn147  1  0.31198885  0.06213516  0.56681884  1
  Zn  Zn148  1  0.31328904  0.56125180  0.06404994  1
  Zn  Zn149  1  0.31354587  0.56293803  0.56183601  1
  Zn  Zn150  1  0.81272851  0.06157917  0.06086911  1
  Zn  Zn151  1  0.81137526  0.06852741  0.55805399  1
  Zn  Zn152  1  0.81264459  0.56348040  0.06160324  1
  Zn  Zn153  1  0.81503985  0.56264453  0.56384850  1
  Zn  Zn154  1  0.43889213  0.43444513  0.18921290  1
  Zn  Zn155  1  0.43647071  0.43914024  0.68743179  1
  Zn  Zn156  1  0.43782940  0.93589602  0.18948518  1
  Zn  Zn157  1  0.43581630  0.93649604  0.68345665  1
  Zn  Zn158  1  0.93802401  0.43994617  0.18737273  1
  Zn  Zn159  1  0.93659531  0.43971661  0.68509229  1
  Zn  Zn160  1  0.93614555  0.93805114  0.18646816  1
  Zn  Zn161  1  0.93863880  0.93585784  0.68853570  1
  Zn  Zn162  1  0.06180179  0.06167875  0.31137254  1
  Zn  Zn163  1  0.06069676  0.06253090  0.81127411  1
  Zn  Zn164  1  0.06084750  0.56057754  0.31049877  1
  Zn  Zn165  1  0.06078048  0.56910809  0.81017428  1
  Zn  Zn166  1  0.56304955  0.06001601  0.31387142  1
  Zn  Zn167  1  0.56110680  0.06274793  0.81042522  1
  Zn  Zn168  1  0.56572390  0.56175453  0.31434542  1
  Zn  Zn169  1  0.56248715  0.56481398  0.81156223  1
  Zn  Zn170  1  0.43497134  0.18445373  0.43862206  1
  Zn  Zn171  1  0.43728778  0.18919217  0.93712977  1
  Zn  Zn172  1  0.43659228  0.68333668  0.43661372  1
  Zn  Zn173  1  0.43935383  0.68824365  0.93570978  1
  Zn  Zn174  1  0.93095103  0.18745890  0.43636409  1
  Zn  Zn175  1  0.93747943  0.18831002  0.93607200  1
  Zn  Zn176  1  0.93538661  0.68658014  0.43715394  1
  Zn  Zn177  1  0.94042727  0.68815734  0.93460142  1
  Zn  Zn178  1  0.06327291  0.31335416  0.06251565  1
  Zn  Zn179  1  0.06270731  0.31322842  0.56252258  1
  Zn  Zn180  1  0.06255873  0.81247378  0.05766562  1
  Zn  Zn181  1  0.06312933  0.81174180  0.55829558  1
  Zn  Zn182  1  0.56261473  0.31166126  0.06371938  1
  Zn  Zn183  1  0.56544297  0.31236475  0.56299621  1
  Zn  Zn184  1  0.56370192  0.81167272  0.06296675  1
  Zn  Zn185  1  0.56529376  0.81684594  0.56500575  1
  O  O186  1  0.11960560  0.11855559  0.11890757  1
  O  O187  1  0.11504134  0.11621231  0.62007398  1
  O  O188  1  0.11766686  0.61955129  0.11808212  1
  O  O189  1  0.12518585  0.61746508  0.61643381  1
  O  O190  1  0.61971776  0.11821327  0.11899549  1
  O  O191  1  0.62184396  0.11362221  0.62761399  1
  O  O192  1  0.62032808  0.61839157  0.11756286  1
  O  O193  1  0.61286357  0.62046276  0.62298837  1
  O  O194  1  0.38401739  0.38245319  0.37739109  1
  O  O195  1  0.38271341  0.38322274  0.87627412  1
  O  O196  1  0.38025569  0.87702343  0.38643114  1
  O  O197  1  0.38038617  0.88127758  0.88177475  1
  O  O198  1  0.88305350  0.38127443  0.37587731  1
  O  O199  1  0.88131800  0.38104735  0.87993198  1
  O  O200  1  0.87971811  0.88104192  0.37957002  1
  O  O201  1  0.87116297  0.88727602  0.88433544  1
  O  O202  1  0.24801460  0.00522140  0.36949824  1
  O  O203  1  0.25344293  0.00625150  0.86953306  1
  O  O204  1  0.25795915  0.50598125  0.37735349  1
  O  O205  1  0.25720145  0.50208417  0.86813507  1
  O  O206  1  0.75468938  0.00588671  0.36970935  1
  O  O207  1  0.75998306  0.01286088  0.88113929  1
  O  O208  1  0.75485699  0.50402803  0.36995119  1
  O  O209  1  0.75660346  0.50237164  0.86647814  1
  O  O210  1  0.24217237  0.49800510  0.12903240  1
  O  O211  1  0.24477285  0.49379262  0.62916270  1
  O  O212  1  0.24403457  0.99396139  0.13124427  1
  O  O213  1  0.23933655  1.00292709  0.63514064  1
  O  O214  1  0.74561293  0.49458393  0.12867238  1
  O  O215  1  0.74913581  0.49833114  0.63672301  1
  O  O216  1  0.74418517  0.99507561  0.12955690  1
  O  O217  1  0.73437889  1.00187132  0.61625103  1
  O  O218  1  0.00560749  0.36865252  0.25450519  1
  O  O219  1  0.00655809  0.37190418  0.75584747  1
  O  O220  1  0.00456241  0.87345304  0.25433574  1
  O  O221  1  -0.00290782  0.86936289  0.75505813  1
  O  O222  1  0.50114141  0.36436119  0.25874230  1
  O  O223  1  0.50726744  0.37250295  0.75530714  1
  O  O224  1  0.50614945  0.86358650  0.24900286  1
  O  O225  1  0.50843255  0.87620995  0.75569087  1
  O  O226  1  0.49542731  0.12952939  0.24671939  1
  O  O227  1  0.49148902  0.13320913  0.75040525  1
  O  O228  1  0.50143751  0.63293580  0.24419617  1
  O  O229  1  0.49296830  0.62615855  0.74051911  1
  O  O230  1  0.99876950  0.13056150  0.24225240  1
  O  O231  1  0.99336853  0.13128581  0.74341830  1
  O  O232  1  0.99185288  0.62512763  0.24170830  1
  O  O233  1  0.99807782  0.63754240  0.74487997  1
  O  O234  1  0.36900398  0.24933472  0.00770804  1
  O  O235  1  0.36663011  0.24922863  0.50808966  1
  O  O236  1  0.37600510  0.75633540  0.00719395  1
  O  O237  1  0.35687718  0.74379871  0.49568337  1
  O  O238  1  0.87039276  0.25625925  0.00406514  1
  O  O239  1  0.85658544  0.25002271  0.49435247  1
  O  O240  1  0.86574552  0.76201184  -0.01035671  1
  O  O241  1  0.86699387  0.75572945  0.50612780  1
  O  O242  1  0.12956321  0.24307675  0.49438428  1
  O  O243  1  0.12944168  0.24416966  0.99452227  1
  O  O244  1  0.13173630  0.74268379  0.49119832  1
  O  O245  1  0.12756672  0.73971628  0.99371101  1
  O  O246  1  0.63984068  0.24944403  0.50259676  1
  O  O247  1  0.63089828  0.24208082  0.99840049  1
  O  O248  1  0.63733882  0.75070514  0.50002019  1
  O  O249  1  0.63264796  0.74708928  0.99370130  1
  O  O250  1  0.49473104  0.24292483  0.13325668  1
  O  O251  1  0.49240189  0.25032041  0.63198556  1
  O  O252  1  0.49661031  0.74411913  0.13267848  1
  O  O253  1  0.50270656  0.73740546  0.62234498  1
  O  O254  1  0.99547569  0.24462552  0.12844113  1
  O  O255  1  1.00795314  0.23622401  0.63034401  1
  O  O256  1  1.00438072  0.73564525  0.12427664  1
  O  O257  1  0.98824962  0.75103791  0.62059169  1
  O  O258  1  0.00485628  0.25265445  0.36957276  1
  O  O259  1  0.00592137  0.25663459  0.86948537  1
  O  O260  1  0.00443077  0.75717849  0.37380927  1
  O  O261  1  0.01750629  0.75181872  0.87715373  1
  O  O262  1  0.49163476  0.25797519  0.36722918  1
  O  O263  1  0.50077363  0.25729872  0.86839703  1
  O  O264  1  0.50132410  0.74706105  0.36426620  1
  O  O265  1  0.50770039  0.75974167  0.87432282  1
  O  O266  1  0.24291718  0.12848427  0.49591194  1
  O  O267  1  0.24371322  0.12901278  0.99467646  1
  O  O268  1  0.24422695  0.63090762  0.49077228  1
  O  O269  1  0.23832917  0.62477890  1.00032255  1
  O  O270  1  0.74691204  0.13724876  0.49187740  1
  O  O271  1  0.74517689  0.12973568  0.99224199  1
  O  O272  1  0.75097993  0.63427232  0.49476675  1
  O  O273  1  0.74533143  0.63498911  0.99950173  1
  O  O274  1  0.25259477  0.36606468  0.00326215  1
  O  O275  1  0.24995891  0.36634301  0.50672313  1
  O  O276  1  0.25921969  0.87490572  0.00941905  1
  O  O277  1  0.24598213  0.85680428  0.49488249  1
  O  O278  1  0.75548492  0.37007310  0.00359387  1
  O  O279  1  0.75015775  0.36212329  0.50178357  1
  O  O280  1  0.75602826  0.87000794  0.00384001  1
  O  O281  1  0.75553253  0.86673950  0.49845364  1
  O  O282  1  0.12530100  0.49216351  0.24395764  1
  O  O283  1  0.13054329  0.49645894  0.74516727  1
  O  O284  1  0.12961529  0.99310630  0.24373384  1
  O  O285  1  0.13358434  1.00765290  0.74175679  1
  O  O286  1  0.63235391  0.49848437  0.24216677  1
  O  O287  1  0.63395909  0.49254042  0.75211378  1
  O  O288  1  0.62952378  0.99290745  0.24322647  1
  O  O289  1  0.61740189  0.99462538  0.73517269  1
  O  O290  1  0.36830516  0.00465551  0.25177886  1
  O  O291  1  0.36645688  0.00702920  0.75657113  1
  O  O292  1  0.37522705  0.50067476  0.26289204  1
  O  O293  1  0.37083362  0.50775575  0.75609167  1
  O  O294  1  0.86708494  0.00007870  0.25550862  1
  O  O295  1  0.88091997  0.01324244  0.76199339  1
  O  O296  1  0.86941334  0.50792068  0.25570451  1
  O  O297  1  0.86644818  0.50220961  0.75627837  1
  O  O298  1  0.11906129  0.36728762  0.36912290  1
  O  O299  1  0.11998759  0.37095382  0.87029512  1
  O  O300  1  0.11749387  0.87008512  0.36841891  1
  O  O301  1  0.12697676  0.86004886  0.88509948  1
  O  O302  1  0.60956854  0.38106008  0.37182673  1
  O  O303  1  0.61925450  0.37362062  0.86482693  1
  O  O304  1  0.62134365  0.87133211  0.36556852  1
  O  O305  1  0.62005016  0.87512682  0.86796051  1
  O  O306  1  0.38119142  0.12873216  0.13194605  1
  O  O307  1  0.37410541  0.13317476  0.63435747  1
  O  O308  1  0.38263537  0.63017838  0.12767010  1
  O  O309  1  0.38428509  0.61762327  0.63521352  1
  O  O310  1  0.88138996  0.13131187  0.12388130  1
  O  O311  1  0.88577147  0.11563349  0.63508312  1
  O  O312  1  0.88513013  0.61682989  0.13400920  1
  O  O313  1  0.87743558  0.63808725  0.62551946  1
  O  O314  1  0.25720837  0.24803230  0.11939067  1
  O  O315  1  0.25204579  0.25406721  0.62147129  1
  O  O316  1  0.25762954  0.75547060  0.12566283  1
  O  O317  1  0.23979855  0.74949078  0.60835964  1
  O  O318  1  0.75559266  0.25503117  0.11872454  1
  O  O319  1  0.75010341  0.24855619  0.61442672  1
  O  O320  1  0.74442395  0.75684637  0.11044825  1
  O  O321  1  0.75654313  0.75285562  0.61451950  1
  O  O322  1  0.24396091  0.24280491  0.38053641  1
  O  O323  1  0.24421616  0.24487139  0.88031875  1
  O  O324  1  0.24322117  0.73917130  0.38101858  1
  O  O325  1  0.23969121  0.74599129  0.88191574  1
  O  O326  1  0.75151725  0.23960856  0.37604706  1
  O  O327  1  0.74957547  0.23895790  0.88167513  1
  O  O328  1  0.75105056  0.74318259  0.38516344  1
  O  O329  1  0.74239331  0.75215573  0.88608832  1
  O  O330  1  0.00551385  0.12045481  0.00434023  1
  O  O331  1  0.00200524  0.12108438  0.50694704  1
  O  O332  1  0.00740262  0.62022411  0.00679588  1
  O  O333  1  0.00708680  0.61729664  0.49830464  1
  O  O334  1  0.50494057  0.11944066  0.00526594  1
  O  O335  1  0.50339977  0.11635495  0.50261599  1
  O  O336  1  0.50674726  0.61962975  0.00568036  1
  O  O337  1  0.49930789  0.61590022  0.50649320  1
  O  O338  1  0.49796024  0.38142873  0.49370380  1
  O  O339  1  0.50036813  0.38173957  0.99387151  1
  O  O340  1  0.50141593  0.88776338  0.50072606  1
  O  O341  1  0.49610021  0.88190111  0.99563457  1
  O  O342  1  1.00204368  0.38041958  0.49156375  1
  O  O343  1  0.99508497  0.38067977  0.99402503  1
  O  O344  1  0.99415334  0.88239232  0.49308501  1
  O  O345  1  0.99072044  0.88082619  0.99642592  1
  O  O346  1  0.49300208  0.49423167  0.38228450  1
  O  O347  1  0.49635542  0.49569536  0.88057987  1
  O  O348  1  0.50058116  0.99943637  0.38990710  1
  O  O349  1  0.49364470  0.99619044  0.88077437  1
  O  O350  1  0.99547394  0.49331344  0.37943073  1
  O  O351  1  0.99572390  0.49581957  0.87949082  1
  O  O352  1  0.99419083  0.99574316  0.38025562  1
  O  O353  1  0.99088006  1.00161352  0.88130043  1
  O  O354  1  0.00578973  0.00492708  0.11863784  1
  O  O355  1  0.00667284  0.00856983  0.62048065  1
  O  O356  1  0.00648617  0.50861314  0.11855946  1
  O  O357  1  0.00858442  0.50247373  0.61758074  1
  O  O358  1  0.50520806  0.00493926  0.12037350  1
  O  O359  1  0.50861290  0.00364737  0.61493845  1
  O  O360  1  0.50544478  0.50401049  0.12076102  1
  O  O361  1  0.49960471  0.50551252  0.61443230  1
  O  O362  1  0.24148879  0.37440021  0.24904962  1
  O  O363  1  0.24366640  0.38056851  0.74528824  1
  O  O364  1  0.24428605  0.87864120  0.24605931  1
  O  O365  1  0.25375745  0.89049408  0.75399492  1
  O  O366  1  0.74944307  0.38054791  0.24293271  1
  O  O367  1  0.74253362  0.38304503  0.75277516  1
  O  O368  1  0.74553878  0.87898249  0.24394010  1
  O  O369  1  0.73555750  0.87712519  0.74994515  1
  O  O370  1  0.25359469  0.11809660  0.25574019  1
  O  O371  1  0.25415675  0.11786225  0.75719545  1
  O  O372  1  0.25042486  0.62209562  0.26267733  1
  O  O373  1  0.26057580  0.61785957  0.74990911  1
  O  O374  1  0.75096968  0.11852608  0.25554302  1
  O  O375  1  0.75957124  0.13281534  0.76047877  1
  O  O376  1  0.75700790  0.61952838  0.25306081  1
  O  O377  1  0.74947555  0.61511651  0.75177309  1
  O  O378  1  0.36638952  0.12066579  0.36895361  1
  O  O379  1  0.36830172  0.11963084  0.87164744  1
  O  O380  1  0.36581999  0.61423201  0.37371529  1
  O  O381  1  0.37656453  0.61836650  0.86621083  1
  O  O382  1  0.86417677  0.11732840  0.37125930  1
  O  O383  1  0.86901867  0.11899474  0.86950270  1
  O  O384  1  0.86980582  0.61752840  0.36611829  1
  O  O385  1  0.87306315  0.61848799  0.87317703  1
  O  O386  1  0.12484611  0.38137846  0.13097926  1
  O  O387  1  0.12985048  0.38034316  0.63175201  1
  O  O388  1  0.12988444  0.87916470  0.12854473  1
  O  O389  1  0.12906077  0.88879985  0.61791224  1
  O  O390  1  0.63256166  0.38082125  0.12619068  1
  O  O391  1  0.62738710  0.37841000  0.64010050  1
  O  O392  1  0.63119140  0.88064897  0.12996204  1
  O  O393  1  0.62729606  0.88772908  0.63282965  1
  O  O394  1  0.11876661  0.25318073  0.25518962  1
  O  O395  1  0.11938066  0.25608951  0.75607473  1
  O  O396  1  0.12183858  0.75587444  0.25575677  1
  O  O397  1  0.13164059  0.74482611  0.76726279  1
  O  O398  1  0.61016214  0.24879086  0.24485127  1
  O  O399  1  0.61889323  0.25952941  0.75233507  1
  O  O400  1  0.61650761  0.75415753  0.24853646  1
  O  O401  1  0.62194929  0.76198136  0.75447817  1
  O  O402  1  0.38385680  0.24169909  0.24527980  1
  O  O403  1  0.37808887  0.24607797  0.74623002  1
  O  O404  1  0.38583344  0.74826471  0.24527059  1
  O  O405  1  0.37616136  0.73628853  0.75688987  1
  O  O406  1  0.88230264  0.24894692  0.24102815  1
  O  O407  1  0.88325485  0.23714727  0.75773221  1
  O  O408  1  0.87423210  0.73480922  0.25408627  1
  O  O409  1  0.86742116  0.75208487  0.73609095  1
  O  O410  1  0.38391976  0.49789398  0.49058388  1
  O  O411  1  0.38309160  0.50013741  0.99387863  1
  O  O412  1  0.38913341  1.00419031  0.50217534  1
  O  O413  1  0.38032376  0.99544442  0.99538599  1
  O  O414  1  0.88235709  0.49958493  0.49211765  1
  O  O415  1  0.88029241  0.49478787  0.99433936  1
  O  O416  1  0.87933299  0.99620218  0.49456600  1
  O  O417  1  0.87969617  0.99438196  0.99051649  1
  O  O418  1  0.12016065  0.00528909  0.00461682  1
  O  O419  1  0.11836488  0.00581710  0.50744838  1
  O  O420  1  0.11979374  0.50783900  0.00398242  1
  O  O421  1  0.12022456  0.50377778  0.50407052  1
  O  O422  1  0.61954247  0.00477545  0.00501184  1
  O  O423  1  0.61524249  0.00182855  0.51181605  1
  O  O424  1  0.62081218  0.50576604  0.00450087  1
  O  O425  1  0.61286964  0.49995779  0.50126536  1
  O  O426  1  0.37410418  0.36526663  0.12405287  1
  O  O427  1  0.36648763  0.36859055  0.62514816  1
  O  O428  1  0.37121759  0.86933598  0.12100653  1
  O  O429  1  0.36669753  0.87808280  0.61918736  1
  O  O430  1  0.87059560  0.37090861  0.11789909  1
  O  O431  1  0.87589307  0.37242794  0.62282300  1
  O  O432  1  0.86856326  0.88306094  0.10943141  1
  O  O433  1  0.87107044  0.87001545  0.61728293  1
  O  O434  1  0.12884906  0.12888352  0.38070758  1
  O  O435  1  0.12884950  0.13093224  0.88015607  1
  O  O436  1  0.13187162  0.62658741  0.37843851  1
  O  O437  1  0.12621035  0.63252013  0.88597982  1
  O  O438  1  0.63902113  0.11704696  0.37627431  1
  O  O439  1  0.63405025  0.12355428  0.87902668  1
  O  O440  1  0.63476099  0.62741048  0.37940651  1
  O  O441  1  0.62599776  0.63356606  0.88122471  1
