# generated using pymatgen
data_V93Zn93O256
_symmetry_space_group_name_H-M   'P 1'
_cell_length_a   17.05025347
_cell_length_b   17.05510684
_cell_length_c   17.04978529
_cell_angle_alpha   90.01003710
_cell_angle_beta   90.13303231
_cell_angle_gamma   90.06150067
_symmetry_Int_Tables_number   1
_chemical_formula_structural   V93Zn93O256
_chemical_formula_sum   'V93 Zn93 O256'
_cell_volume   4957.95716563
_cell_formula_units_Z   1
loop_
 _symmetry_equiv_pos_site_id
 _symmetry_equiv_pos_as_xyz
  1  'x, y, z'
loop_
 _atom_site_type_symbol
 _atom_site_label
 _atom_site_symmetry_multiplicity
 _atom_site_fract_x
 _atom_site_fract_y
 _atom_site_fract_z
 _atom_site_occupancy
  V  V0  1  0.00372401  0.25163333  0.25333145  1
  V  V1  1  0.62553528  0.49911675  0.12560831  1
  V  V2  1  0.87546554  0.37495438  0.49892727  1
  V  V3  1  0.50030158  0.49860122  -0.00124455  1
  V  V4  1  0.00207571  0.12520801  0.12544795  1
  V  V5  1  0.74995469  0.24986836  -0.00089408  1
  V  V6  1  0.12563998  0.00172872  0.12542078  1
  V  V7  1  0.62255729  0.62113387  0.49861777  1
  V  V8  1  0.87556332  0.74878406  0.62574750  1
  V  V9  1  0.61959873  0.37204525  0.24898162  1
  V  V10  1  0.24787737  0.38173701  0.12585131  1
  V  V11  1  0.87582793  0.00145720  0.37394124  1
  V  V12  1  0.12485196  0.74914853  0.87736453  1
  V  V13  1  0.75032656  0.62497510  0.87465461  1
  V  V14  1  0.87378172  0.24984453  0.62480195  1
  V  V15  1  0.25154354  0.62561064  0.37540214  1
  V  V16  1  0.75011618  0.87494051  0.12396818  1
  V  V17  1  0.38193705  -0.00324537  0.38374090  1
  V  V18  1  0.62445887  0.24958232  0.87464443  1
  V  V19  1  0.62103097  0.12035271  0.50155742  1
  V  V20  1  0.00012446  0.12438731  0.62445308  1
  V  V21  1  0.74969003  0.49986287  0.74863140  1
  V  V22  1  -0.00033600  0.49961014  0.49987228  1
  V  V23  1  0.12867361  0.13152132  0.49999751  1
  V  V24  1  0.74943457  0.49908064  0.24991770  1
  V  V25  1  0.12583502  0.87653754  0.25099820  1
  V  V26  1  -0.00025094  0.24997963  0.75071811  1
  V  V27  1  0.49863743  0.74776992  0.75219583  1
  V  V28  1  0.37576682  0.37681230  0.49853239  1
  V  V29  1  0.74888817  0.62485500  0.37434395  1
  V  V30  1  0.37452644  0.37326781  -0.00089537  1
  V  V31  1  0.75080364  0.74892412  0.49952510  1
  V  V32  1  0.75005383  0.12612914  0.37431376  1
  V  V33  1  -0.00061888  0.62559621  0.62593222  1
  V  V34  1  0.62082265  0.49794246  0.61936856  1
  V  V35  1  0.87469764  0.75057247  0.12447807  1
  V  V36  1  0.37668084  0.50392911  0.37474683  1
  V  V37  1  0.12633664  0.38246819  0.24655726  1
  V  V38  1  0.87605697  0.49958737  0.87571166  1
  V  V39  1  0.25165233  0.75340461  0.50064355  1
  V  V40  1  0.24908028  -0.00016953  0.75145143  1
  V  V41  1  0.12338854  0.87435500  0.75201127  1
  V  V42  1  0.12542069  0.61832786  0.00443027  1
  V  V43  1  0.74813270  -0.00041187  0.74596057  1
  V  V44  1  0.74910397  0.25013416  0.49916460  1
  V  V45  1  0.00056996  0.00095051  0.50015772  1
  V  V46  1  0.12571712  0.62500855  0.50036374  1
  V  V47  1  0.24849990  0.12905803  0.87698991  1
  V  V48  1  0.87400961  0.12356386  0.74941006  1
  V  V49  1  0.87479865  -0.00046672  0.87455681  1
  V  V50  1  0.87529123  0.87555581  0.00046365  1
  V  V51  1  0.74846687  0.37501549  0.62452900  1
  V  V52  1  0.87521635  0.25068339  0.12463550  1
  V  V53  1  0.00021057  0.87545437  0.37540772  1
  V  V54  1  0.50017249  0.25025823  0.74929766  1
  V  V55  1  0.12515442  0.37473525  0.74922543  1
  V  V56  1  0.49962217  0.37406931  0.87442225  1
  V  V57  1  0.24906425  0.37277355  0.61955825  1
  V  V58  1  0.87525638  0.87474670  0.49990549  1
  V  V59  1  0.49423035  0.63228292  0.12806385  1
  V  V60  1  0.37009054  0.24918133  0.61764936  1
  V  V61  1  0.62537875  0.00056074  0.12394311  1
  V  V62  1  0.61770082  0.24928975  0.36986219  1
  V  V63  1  0.25321665  0.74969350  0.00591090  1
  V  V64  1  0.50134254  0.12059366  0.62109451  1
  V  V65  1  0.25058027  0.87466466  0.62380681  1
  V  V66  1  0.87537867  0.12613876  0.25082412  1
  V  V67  1  0.62450432  0.12483893  -0.00041350  1
  V  V68  1  0.00380590  0.61813052  0.12526662  1
  V  V69  1  0.62308879  0.87986210  0.74894643  1
  V  V70  1  0.87549245  0.37449385  -0.00024416  1
  V  V71  1  0.12590494  0.49921738  0.62474071  1
  V  V72  1  0.25242529  0.87442831  0.12693964  1
  V  V73  1  0.37576637  0.87241402  0.00583231  1
  V  V74  1  0.25133613  0.13182825  0.37919941  1
  V  V75  1  0.50010305  0.00078606  0.00086371  1
  V  V76  1  0.74785336  0.87686174  0.62432588  1
  V  V77  1  0.62622279  0.62581328  -0.00068795  1
  V  V78  1  0.49728626  0.62036510  0.62168852  1
  V  V79  1  0.25094461  0.00130361  0.25125813  1
  V  V80  1  0.87466628  0.62476736  0.24952893  1
  V  V81  1  0.87492193  0.49886707  0.37565191  1
  V  V82  1  0.38131647  0.25124836  0.13135495  1
  V  V83  1  0.50023243  0.37950748  0.37768929  1
  V  V84  1  0.00033717  0.37499527  0.87442870  1
  V  V85  1  0.37485935  0.00016995  0.87786264  1
  V  V86  1  -0.00012230  0.75044406  0.25049179  1
  V  V87  1  0.62340761  0.74977048  0.37276473  1
  V  V88  1  0.62198158  0.87488476  0.24966116  1
  V  V89  1  0.12555332  0.75112323  0.37625221  1
  V  V90  1  0.38160930  0.12851766  0.25110532  1
  V  V91  1  0.00020039  0.00017041  0.00098156  1
  V  V92  1  0.37460048  0.12584906  0.74951790  1
  Zn  Zn93  1  0.12562751  0.12684676  0.00067155  1
  Zn  Zn94  1  0.56816308  -0.04297431  0.56934944  1
  Zn  Zn95  1  0.74893146  0.12467627  0.87309296  1
  Zn  Zn96  1  0.75049508  0.00126179  0.24846622  1
  Zn  Zn97  1  0.38859194  0.87844061  0.50913538  1
  Zn  Zn98  1  0.62391692  0.37413031  0.74860046  1
  Zn  Zn99  1  -0.00161914  0.74887522  0.75180357  1
  Zn  Zn100  1  0.24682957  0.50430176  0.24764760  1
  Zn  Zn101  1  0.37306221  0.74665194  0.62532972  1
  Zn  Zn102  1  -0.00095535  0.87484157  0.87601423  1
  Zn  Zn103  1  0.37196769  0.62312574  0.75270530  1
  Zn  Zn104  1  0.12496007  0.00116286  0.62477919  1
  Zn  Zn105  1  0.75121705  0.75085298  -0.00158119  1
  Zn  Zn106  1  0.50300434  0.12948918  0.12878896  1
  Zn  Zn107  1  0.00457772  0.37583019  0.37558479  1
  Zn  Zn108  1  0.00398218  0.49620512  0.00305817  1
  Zn  Zn109  1  0.25240866  0.50217653  0.75126390  1
  Zn  Zn110  1  0.25207432  0.62118844  0.87340097  1
  Zn  Zn111  1  0.50058225  0.87343912  0.87667982  1
  Zn  Zn112  1  0.13269883  0.25506445  0.37862907  1
  Zn  Zn113  1  0.12468563  0.25092864  0.87805588  1
  Zn  Zn114  1  0.62607833  0.75159206  0.87493371  1
  Zn  Zn115  1  0.37385869  0.50163145  0.87104437  1
  Zn  Zn116  1  0.74999756  0.37479186  0.12502325  1
  Zn  Zn117  1  0.36769990  0.63268783  0.24343085  1
  Zn  Zn118  1  0.49090247  0.75657155  0.25271395  1
  Zn  Zn119  1  0.87709138  0.62641332  0.75110420  1
  Zn  Zn120  1  0.50839321  0.87950656  0.39097893  1
  Zn  Zn121  1  0.24731148  0.24983060  0.00358904  1
  Zn  Zn122  1  0.19163975  0.19120085  0.18907659  1
  Zn  Zn123  1  0.18649923  0.18867282  0.68827717  1
  Zn  Zn124  1  0.18703053  0.68854397  0.18814356  1
  Zn  Zn125  1  0.18769727  0.68713761  0.68836497  1
  Zn  Zn126  1  0.68908714  0.18787687  0.18588774  1
  Zn  Zn127  1  0.68601689  0.18645916  0.68701820  1
  Zn  Zn128  1  0.68585225  0.68920954  0.18678447  1
  Zn  Zn129  1  0.68557743  0.68802794  0.68783809  1
  Zn  Zn130  1  0.31325366  0.31404608  0.30967617  1
  Zn  Zn131  1  0.31260522  0.31328183  0.80815176  1
  Zn  Zn132  1  0.31506629  0.81215846  0.31322414  1
  Zn  Zn133  1  0.31283257  0.81034958  0.81627926  1
  Zn  Zn134  1  0.81039693  0.31251372  0.31224591  1
  Zn  Zn135  1  0.81127475  0.31271657  0.81216438  1
  Zn  Zn136  1  0.81062641  0.81279182  0.31119187  1
  Zn  Zn137  1  0.81241132  0.81222672  0.81207948  1
  Zn  Zn138  1  0.18940771  0.43746407  0.43605189  1
  Zn  Zn139  1  0.18954098  0.43683259  0.93501697  1
  Zn  Zn140  1  0.18899393  0.94330595  0.43796469  1
  Zn  Zn141  1  0.18800689  0.93874052  0.93897245  1
  Zn  Zn142  1  0.68850907  0.43711887  0.43710443  1
  Zn  Zn143  1  0.68778298  0.43632566  0.93683977  1
  Zn  Zn144  1  0.69352508  0.93726138  0.43287907  1
  Zn  Zn145  1  0.68856800  0.93814971  0.93465303  1
  Zn  Zn146  1  0.31363561  0.06298362  0.06401756  1
  Zn  Zn147  1  0.31025320  0.06193635  0.56361044  1
  Zn  Zn148  1  0.31272547  0.56077322  0.05758297  1
  Zn  Zn149  1  0.31296351  0.55969986  0.56099344  1
  Zn  Zn150  1  0.81189201  0.06320698  0.06212385  1
  Zn  Zn151  1  0.81041164  0.06175872  0.56193472  1
  Zn  Zn152  1  0.81416302  0.56032800  0.06285259  1
  Zn  Zn153  1  0.81147334  0.56238246  0.56268798  1
  Zn  Zn154  1  0.43717058  0.44258504  0.18811124  1
  Zn  Zn155  1  0.43653114  0.43768828  0.68902853  1
  Zn  Zn156  1  0.43794902  0.94272268  0.18869604  1
  Zn  Zn157  1  0.43334886  0.93629368  0.69415419  1
  Zn  Zn158  1  0.93709219  0.43574620  0.18830171  1
  Zn  Zn159  1  0.93671256  0.43899787  0.68842345  1
  Zn  Zn160  1  0.93769680  0.93871007  0.18729780  1
  Zn  Zn161  1  0.93703060  0.93725306  0.68660395  1
  Zn  Zn162  1  0.06422503  0.06439988  0.31415736  1
  Zn  Zn163  1  0.06205427  0.06159303  0.81358845  1
  Zn  Zn164  1  0.06207462  0.56308204  0.31416531  1
  Zn  Zn165  1  0.06413165  0.56197047  0.81254206  1
  Zn  Zn166  1  0.56298553  0.06025236  0.31225882  1
  Zn  Zn167  1  0.56049222  0.06261914  0.81319563  1
  Zn  Zn168  1  0.56150951  0.56006036  0.31143610  1
  Zn  Zn169  1  0.56213881  0.55926048  0.80976832  1
  Zn  Zn170  1  0.43823571  0.18850636  0.43692213  1
  Zn  Zn171  1  0.43729605  0.18836977  0.93969153  1
  Zn  Zn172  1  0.43709635  0.69296950  0.43875926  1
  Zn  Zn173  1  0.43731720  0.68676088  0.93626439  1
  Zn  Zn174  1  0.93907266  0.18793592  0.43798784  1
  Zn  Zn175  1  0.93713591  0.18621075  0.93693293  1
  Zn  Zn176  1  0.93765603  0.68667067  0.43816393  1
  Zn  Zn177  1  0.93891005  0.68751574  0.93951261  1
  Zn  Zn178  1  0.06477091  0.31119516  0.06188987  1
  Zn  Zn179  1  0.06057790  0.31185142  0.56331832  1
  Zn  Zn180  1  0.06279445  0.81177694  0.06420665  1
  Zn  Zn181  1  0.06306465  0.81179539  0.56375325  1
  Zn  Zn182  1  0.56213502  0.31128472  0.06188562  1
  Zn  Zn183  1  0.55993517  0.30936080  0.55952950  1
  Zn  Zn184  1  0.56311218  0.81244973  0.06205754  1
  Zn  Zn185  1  0.56302722  0.79614832  0.56420418  1
  O  O186  1  0.12076098  0.11899257  0.12724394  1
  O  O187  1  0.11979431  0.12409510  0.61752312  1
  O  O188  1  0.11405180  0.63331484  0.11672513  1
  O  O189  1  0.11979230  0.61967857  0.61823565  1
  O  O190  1  0.62376068  0.11968764  0.11924828  1
  O  O191  1  0.61403693  0.13226665  0.61354589  1
  O  O192  1  0.61956648  0.61911431  0.11645307  1
  O  O193  1  0.61941553  0.61683844  0.61945235  1
  O  O194  1  0.38098869  0.37998266  0.37911548  1
  O  O195  1  0.38071737  0.37048900  0.88567820  1
  O  O196  1  0.37539065  0.89069824  0.37795085  1
  O  O197  1  0.37405462  0.88217670  0.88750531  1
  O  O198  1  0.87544095  0.38128919  0.38113583  1
  O  O199  1  0.88043101  0.37975834  0.87963711  1
  O  O200  1  0.88026996  0.87964780  0.37988041  1
  O  O201  1  0.87615622  0.88093107  0.88143973  1
  O  O202  1  0.26002160  0.00968206  0.37031237  1
  O  O203  1  0.25508639  0.00852341  0.87095046  1
  O  O204  1  0.25970098  0.50715105  0.37454240  1
  O  O205  1  0.25404862  0.50175185  0.87108630  1
  O  O206  1  0.75903275  0.00864428  0.37186101  1
  O  O207  1  0.75706244  0.00201464  0.86484991  1
  O  O208  1  0.75496810  0.50583778  0.36993945  1
  O  O209  1  0.75442121  0.50702502  0.86970186  1
  O  O210  1  0.25893011  0.48590544  0.12805734  1
  O  O211  1  0.24327009  0.48855574  0.62329325  1
  O  O212  1  0.24527489  0.99502268  0.13164428  1
  O  O213  1  0.24765832  0.99168960  0.63261968  1
  O  O214  1  0.74392936  0.49822871  0.13218495  1
  O  O215  1  0.74192086  0.49490704  0.62876778  1
  O  O216  1  0.74360506  0.99348429  0.12654112  1
  O  O217  1  0.75581386  0.99032237  0.63295427  1
  O  O218  1  0.00836394  0.36721724  0.24919174  1
  O  O219  1  0.00436940  0.36933519  0.75369752  1
  O  O220  1  0.00521418  0.87014884  0.25586074  1
  O  O221  1  0.01274255  0.87361972  0.75076134  1
  O  O222  1  0.51230109  0.38042339  0.25965770  1
  O  O223  1  0.50090576  0.36664085  0.75545334  1
  O  O224  1  0.51427804  0.87641863  0.24800179  1
  O  O225  1  0.50733725  0.86721182  0.74947282  1
  O  O226  1  0.48567608  0.11976714  0.24940493  1
  O  O227  1  0.49421320  0.13069506  0.74163245  1
  O  O228  1  0.50348036  0.62368117  0.23358546  1
  O  O229  1  0.50344595  0.63319785  0.74041320  1
  O  O230  1  0.99601618  0.13331532  0.24625006  1
  O  O231  1  0.99435012  0.12909160  0.74408016  1
  O  O232  1  0.99570022  0.63068475  0.24441265  1
  O  O233  1  0.99909793  0.62754036  0.74146583  1
  O  O234  1  0.37343375  0.26049292  0.00907712  1
  O  O235  1  0.37911508  0.25965213  0.50933038  1
  O  O236  1  0.36444168  0.76104265  -0.00569780  1
  O  O237  1  0.36665824  0.75936060  0.50310263  1
  O  O238  1  0.87039798  0.25462995  0.00498232  1
  O  O239  1  0.86957021  0.25421222  0.50510352  1
  O  O240  1  0.87443975  0.75707546  0.00689500  1
  O  O241  1  0.86951698  0.75548792  0.50374878  1
  O  O242  1  0.11703126  0.23592423  0.49684511  1
  O  O243  1  0.12988271  0.24467482  0.99607951  1
  O  O244  1  0.13011564  0.74496217  0.49447194  1
  O  O245  1  0.13223179  0.74544653  0.99423635  1
  O  O246  1  0.62923889  0.24225425  0.48934439  1
  O  O247  1  0.62967535  0.24490338  0.99515256  1
  O  O248  1  0.63373165  0.74120314  0.49284916  1
  O  O249  1  0.62760612  0.73703824  0.99799972  1
  O  O250  1  0.48587556  0.24912196  0.12222273  1
  O  O251  1  0.49013586  0.24202988  0.62847818  1
  O  O252  1  0.50542817  0.73407772  0.12449790  1
  O  O253  1  0.49761479  0.73784287  0.63587990  1
  O  O254  1  0.99532194  0.24513722  0.13517742  1
  O  O255  1  0.99253261  0.24444243  0.63081092  1
  O  O256  1  0.99433714  0.74257797  0.13217636  1
  O  O257  1  0.99367117  0.74317371  0.62445141  1
  O  O258  1  0.00043080  0.25153907  0.36204595  1
  O  O259  1  -0.00110631  0.25638109  0.86716915  1
  O  O260  1  0.00514996  0.75548122  0.37047328  1
  O  O261  1  0.01239903  0.75323427  0.87565909  1
  O  O262  1  0.51083842  0.25981975  0.37692032  1
  O  O263  1  0.50435972  0.25410629  0.86950550  1
  O  O264  1  0.50989474  0.75808740  0.37603820  1
  O  O265  1  0.50432497  0.75104500  0.86459896  1
  O  O266  1  0.23959805  0.11888547  0.49211435  1
  O  O267  1  0.25175692  0.12585025  0.98850388  1
  O  O268  1  0.24463748  0.63201814  0.49593434  1
  O  O269  1  0.24195505  0.63467631  1.00422894  1
  O  O270  1  0.74183595  0.13139589  0.49503133  1
  O  O271  1  0.74308192  0.13177871  0.99753880  1
  O  O272  1  0.74442875  0.62955711  0.49318121  1
  O  O273  1  0.74188414  0.62271866  0.99206387  1
  O  O274  1  0.25906895  0.37419369  0.00805524  1
  O  O275  1  0.25881395  0.37509643  0.51038825  1
  O  O276  1  0.25656335  0.86964114  0.00632339  1
  O  O277  1  0.24515198  0.87239647  0.51169985  1
  O  O278  1  0.75678237  0.36807861  0.00129569  1
  O  O279  1  0.75551154  0.36902362  0.50442592  1
  O  O280  1  0.75635349  0.87364404  0.00609364  1
  O  O281  1  0.75550946  0.86910946  0.50388714  1
  O  O282  1  0.12436827  0.48669273  0.25439494  1
  O  O283  1  0.12445345  0.49112808  0.74068360  1
  O  O284  1  0.13006101  0.99515161  0.24630122  1
  O  O285  1  0.13054171  0.98966570  0.75030765  1
  O  O286  1  0.63050864  0.49104863  0.24629028  1
  O  O287  1  0.63130997  0.49701489  0.73730789  1
  O  O288  1  0.62745199  0.99206059  0.24423669  1
  O  O289  1  0.62956676  0.98806384  0.75416160  1
  O  O290  1  0.36928296  0.00801962  0.25961108  1
  O  O291  1  0.36802040  0.00640683  0.75810360  1
  O  O292  1  0.37300563  0.50555065  0.26322258  1
  O  O293  1  0.37241536  0.50275573  0.75227473  1
  O  O294  1  0.87544435  0.00784895  0.25642588  1
  O  O295  1  0.86953775  0.00389857  0.75436793  1
  O  O296  1  0.86967440  0.50506942  0.25550224  1
  O  O297  1  0.86731551  0.50251893  0.75672361  1
  O  O298  1  0.12554804  0.37100621  0.36560200  1
  O  O299  1  0.11828713  0.37322598  0.86747641  1
  O  O300  1  0.11995831  0.87182325  0.37088490  1
  O  O301  1  0.12605476  0.86775139  0.86802492  1
  O  O302  1  0.61857535  0.36946458  0.37059986  1
  O  O303  1  0.61744712  0.36767172  0.87382719  1
  O  O304  1  0.62726478  0.87094161  0.36573503  1
  O  O305  1  0.62316408  0.87137454  0.86444908  1
  O  O306  1  0.37388499  0.13307617  0.13468555  1
  O  O307  1  0.37956208  0.13228962  0.62713261  1
  O  O308  1  0.39201536  0.61810767  0.12160766  1
  O  O309  1  0.38663018  0.62364828  0.62407692  1
  O  O310  1  0.88157553  0.13068757  0.13115146  1
  O  O311  1  0.88009245  0.13055667  0.62872236  1
  O  O312  1  0.88221625  0.63057654  0.13043635  1
  O  O313  1  0.88065804  0.63102138  0.62471530  1
  O  O314  1  0.26276560  0.26112754  0.12541091  1
  O  O315  1  0.26176422  0.25751008  0.62928137  1
  O  O316  1  0.24288200  0.75834601  0.11334666  1
  O  O317  1  0.24958450  0.75964143  0.61960785  1
  O  O318  1  0.75738289  0.25214214  0.11789287  1
  O  O319  1  0.75431379  0.25483978  0.61887822  1
  O  O320  1  0.75734648  0.75563115  0.12335302  1
  O  O321  1  0.75433685  0.75539523  0.61856615  1
  O  O322  1  0.25352084  0.23526185  0.37154684  1
  O  O323  1  0.25130338  0.23832709  0.87336143  1
  O  O324  1  0.24336081  0.74629717  0.38159181  1
  O  O325  1  0.23926753  0.75085470  0.88789849  1
  O  O326  1  0.74017486  0.24550573  0.38016161  1
  O  O327  1  0.74310730  0.24824953  0.88060028  1
  O  O328  1  0.74488926  0.74351946  0.37954930  1
  O  O329  1  0.74840344  0.73663354  0.87624886  1
  O  O330  1  0.00030864  0.11813462  0.00808513  1
  O  O331  1  0.00643194  0.11995120  0.50455787  1
  O  O332  1  0.00807451  0.62454262  0.00945509  1
  O  O333  1  0.00607938  0.61939365  0.50485323  1
  O  O334  1  0.50606859  0.11854895  0.00247596  1
  O  O335  1  0.50892338  0.13046120  0.50840231  1
  O  O336  1  0.50872561  0.62023239  0.00803661  1
  O  O337  1  0.50821335  0.63374615  0.51300341  1
  O  O338  1  0.49001393  0.37123521  0.48840184  1
  O  O339  1  0.49277742  0.37847524  0.99544473  1
  O  O340  1  0.50586216  0.87907970  0.50883485  1
  O  O341  1  0.49154354  0.87957027  1.00003912  1
  O  O342  1  0.99335067  0.38108331  0.49887769  1
  O  O343  1  0.99446014  0.37602047  0.99430293  1
  O  O344  1  0.99543480  0.88000186  0.49464151  1
  O  O345  1  0.99350034  0.88240901  1.00161899  1
  O  O346  1  0.49175255  0.48970726  0.37297402  1
  O  O347  1  0.50093224  0.49149388  0.88200498  1
  O  O348  1  0.48563131  0.99919390  0.37339351  1
  O  O349  1  0.49199683  0.99817573  0.88210654  1
  O  O350  1  0.99234882  0.49953175  0.38218768  1
  O  O351  1  0.99361854  0.49298949  0.87657936  1
  O  O352  1  0.99515104  0.99487868  0.37984821  1
  O  O353  1  0.99315134  0.99809507  0.88214414  1
  O  O354  1  0.00577711  0.00606267  0.12145382  1
  O  O355  1  0.00110148  0.00658442  0.61810806  1
  O  O356  1  -0.00567361  0.51472306  0.12507748  1
  O  O357  1  0.00515225  0.50475919  0.61846263  1
  O  O358  1  0.50783164  0.00345509  0.11789941  1
  O  O359  1  0.49299976  0.01576024  0.63158847  1
  O  O360  1  0.50746730  0.50766516  0.11847025  1
  O  O361  1  0.51127169  0.50769879  0.62996474  1
  O  O362  1  0.24252199  0.37685837  0.24337136  1
  O  O363  1  0.24415824  0.37445141  0.73574428  1
  O  O364  1  0.24476819  0.88088331  0.24683182  1
  O  O365  1  0.24247041  0.87803469  0.74439098  1
  O  O366  1  0.73781466  0.38079646  0.25030262  1
  O  O367  1  0.74767871  0.38089067  0.74169549  1
  O  O368  1  0.73921048  0.87635652  0.24386277  1
  O  O369  1  0.74111192  0.87851956  0.74422208  1
  O  O370  1  0.25902783  0.12008191  0.25888452  1
  O  O371  1  0.25538855  0.12019305  0.75602353  1
  O  O372  1  0.24877379  0.62303959  0.25793915  1
  O  O373  1  0.25236844  0.62293495  0.75270179  1
  O  O374  1  0.75744798  0.12552817  0.25685324  1
  O  O375  1  0.75593058  0.11785671  0.74817463  1
  O  O376  1  0.75459320  0.61974098  0.25470822  1
  O  O377  1  0.74868781  0.61923812  0.76006094  1
  O  O378  1  0.37095477  0.11778696  0.37151087  1
  O  O379  1  0.36822047  0.12111124  0.86943638  1
  O  O380  1  0.37114641  0.61547200  0.38110352  1
  O  O381  1  0.37156196  0.62095216  0.87446875  1
  O  O382  1  0.87012849  0.12143718  0.37101315  1
  O  O383  1  0.87315201  0.11799125  0.86660913  1
  O  O384  1  0.86934628  0.61975569  0.36920209  1
  O  O385  1  0.86545520  0.61959831  0.87664086  1
  O  O386  1  0.13684214  0.36837639  0.13385133  1
  O  O387  1  0.13224282  0.37765581  0.62681996  1
  O  O388  1  0.13062437  0.88143355  0.13243248  1
  O  O389  1  0.13324941  0.87523139  0.63505708  1
  O  O390  1  0.62423091  0.37900165  0.13404724  1
  O  O391  1  0.62880994  0.38153737  0.62171190  1
  O  O392  1  0.63035091  0.87959200  0.13059449  1
  O  O393  1  0.62884367  0.87473260  0.63190431  1
  O  O394  1  0.11660839  0.25805474  0.25154467  1
  O  O395  1  0.11678247  0.25705608  0.75025864  1
  O  O396  1  0.11948640  0.75719812  0.25695209  1
  O  O397  1  0.12582756  0.75877480  0.76060611  1
  O  O398  1  0.63132201  0.25909435  0.26005590  1
  O  O399  1  0.61805675  0.25056100  0.75553627  1
  O  O400  1  0.62251598  0.75904372  0.25496202  1
  O  O401  1  0.61658406  0.76037270  0.74937503  1
  O  O402  1  0.37158828  0.24034112  0.24331019  1
  O  O403  1  0.38079608  0.24501001  0.73867667  1
  O  O404  1  0.37968440  0.74430989  0.25534077  1
  O  O405  1  0.38698650  0.75042521  0.74837074  1
  O  O406  1  0.88304374  0.24681883  0.24564681  1
  O  O407  1  0.87916428  0.24437070  0.74353356  1
  O  O408  1  0.88039044  0.74419230  0.24602365  1
  O  O409  1  0.87760117  0.74828036  0.74177805  1
  O  O410  1  0.37191075  0.48634329  0.48915495  1
  O  O411  1  0.38190852  0.48554264  1.00024616  1
  O  O412  1  0.37118078  1.00022731  0.48698257  1
  O  O413  1  0.37974598  0.99245913  0.99698604  1
  O  O414  1  0.87918787  0.49466429  0.49531696  1
  O  O415  1  0.87677320  0.49254190  0.99331300  1
  O  O416  1  0.88019660  0.99457064  0.49358240  1
  O  O417  1  0.88008886  0.99512328  0.99535261  1
  O  O418  1  0.11909618  0.00160156  0.00792316  1
  O  O419  1  0.11777400  0.01142218  0.50089724  1
  O  O420  1  0.12479144  0.51508906  -0.00363267  1
  O  O421  1  0.11980235  0.50500913  0.50442068  1
  O  O422  1  0.62023993  0.00447148  0.00407178  1
  O  O423  1  0.63131927  0.01499694  0.49431326  1
  O  O424  1  0.62118543  0.50745694  0.00498789  1
  O  O425  1  0.63132820  0.50525557  0.51107466  1
  O  O426  1  0.37134488  0.36954492  0.12065913  1
  O  O427  1  0.37014787  0.36892451  0.61651069  1
  O  O428  1  0.36922268  0.88295622  0.11351470  1
  O  O429  1  0.36114486  0.87540714  0.62676353  1
  O  O430  1  0.87390641  0.36812132  0.11901303  1
  O  O431  1  0.86882094  0.36970050  0.61877770  1
  O  O432  1  0.87003400  0.87048283  0.12138827  1
  O  O433  1  0.87015929  0.86855375  0.61799687  1
  O  O434  1  0.13468458  0.12667579  0.38172736  1
  O  O435  1  0.13709494  0.12573678  0.87456559  1
  O  O436  1  0.13011577  0.63128668  0.38103881  1
  O  O437  1  0.12473862  0.63497509  0.88564287  1
  O  O438  1  0.62719767  0.13241112  0.37963917  1
  O  O439  1  0.62543471  0.13184812  0.88135290  1
  O  O440  1  0.62944974  0.62811559  0.37812958  1
  O  O441  1  0.63318070  0.62175160  0.88389511  1
