# generated using pymatgen
data_V93Zn93O256
_symmetry_space_group_name_H-M   'P 1'
_cell_length_a   17.06197047
_cell_length_b   17.06088380
_cell_length_c   17.06301017
_cell_angle_alpha   90.02383625
_cell_angle_beta   90.00823880
_cell_angle_gamma   90.06005223
_symmetry_Int_Tables_number   1
_chemical_formula_structural   V93Zn93O256
_chemical_formula_sum   'V93 Zn93 O256'
_cell_volume   4966.90759335
_cell_formula_units_Z   1
loop_
 _symmetry_equiv_pos_site_id
 _symmetry_equiv_pos_as_xyz
  1  'x, y, z'
loop_
 _atom_site_type_symbol
 _atom_site_label
 _atom_site_symmetry_multiplicity
 _atom_site_fract_x
 _atom_site_fract_y
 _atom_site_fract_z
 _atom_site_occupancy
  V  V0  1  0.74511884  0.49323595  0.25145265  1
  V  V1  1  0.62547443  0.87421091  0.75051532  1
  V  V2  1  -0.00144318  0.49619511  0.49654356  1
  V  V3  1  0.62549370  0.24987174  0.87574644  1
  V  V4  1  0.50048509  0.12684986  0.62664069  1
  V  V5  1  0.24970102  0.62388139  0.37472892  1
  V  V6  1  0.25099933  -0.00019456  0.75002189  1
  V  V7  1  0.50096508  0.37513981  0.37276680  1
  V  V8  1  0.12487555  0.74994550  0.87377525  1
  V  V9  1  -0.00080172  0.50070592  -0.00138857  1
  V  V10  1  0.87417171  0.62468700  0.24899430  1
  V  V11  1  0.75703473  0.12051024  0.37119134  1
  V  V12  1  0.24942855  0.36809600  0.62051130  1
  V  V13  1  0.87539851  0.87935548  0.49785158  1
  V  V14  1  0.12546252  0.49891135  0.62360333  1
  V  V15  1  0.12044259  -0.00061201  0.11566140  1
  V  V16  1  0.62306637  0.12567942  0.50083698  1
  V  V17  1  0.24845558  0.37342883  0.12525577  1
  V  V18  1  0.87452341  0.50034709  0.37606451  1
  V  V19  1  0.37661682  0.74817297  0.12501627  1
  V  V20  1  0.13172192  0.24344459  0.37792084  1
  V  V21  1  0.25048808  0.49961159  0.74861428  1
  V  V22  1  0.12400915  0.87495745  0.74849257  1
  V  V23  1  -0.00103935  0.87994766  0.88144415  1
  V  V24  1  0.24828289  0.24723085  -0.00160520  1
  V  V25  1  0.24951410  0.87408656  0.62416130  1
  V  V26  1  0.74943083  0.49992627  0.74958223  1
  V  V27  1  0.24897996  0.74918117  0.49847640  1
  V  V28  1  0.87512431  0.62538274  0.75026145  1
  V  V29  1  0.74847177  0.62586451  0.37536877  1
  V  V30  1  0.50160524  0.25438384  0.24948644  1
  V  V31  1  0.62354661  0.25414588  0.37094669  1
  V  V32  1  0.37429337  0.49974150  0.37444369  1
  V  V33  1  -0.00092620  0.62612306  0.12451788  1
  V  V34  1  0.74906173  0.25159991  0.50111456  1
  V  V35  1  0.87812170  0.00127763  0.88349421  1
  V  V36  1  0.75114648  0.00131976  0.75068263  1
  V  V37  1  0.14040999  0.12664327  0.49689041  1
  V  V38  1  0.87442887  0.24995831  0.62394270  1
  V  V39  1  0.49922921  0.24987795  0.74908354  1
  V  V40  1  -0.00032925  0.75047435  0.74943156  1
  V  V41  1  0.37566542  0.00004135  0.87485705  1
  V  V42  1  -0.00012167  0.74962845  0.25044645  1
  V  V43  1  0.12478684  0.62471078  0.49841819  1
  V  V44  1  0.87303095  0.37223439  0.00195638  1
  V  V45  1  0.37544284  0.87511744  0.49921771  1
  V  V46  1  0.75107642  0.12569213  0.87543299  1
  V  V47  1  0.24965659  0.49909356  0.25025200  1
  V  V48  1  0.50029128  0.50148311  0.50065952  1
  V  V49  1  0.50025816  0.49902657  0.00128297  1
  V  V50  1  0.49996433  0.75054391  0.25009185  1
  V  V51  1  0.25102421  0.00781280  0.25317742  1
  V  V52  1  0.37096963  0.36846949  0.50032461  1
  V  V53  1  0.62504416  0.49269639  0.12995976  1
  V  V54  1  0.62549515  0.75062979  0.87617119  1
  V  V55  1  0.25091538  0.74816012  -0.00025867  1
  V  V56  1  0.11666257  0.36856793  0.25082141  1
  V  V57  1  0.87456448  0.50040027  0.87439536  1
  V  V58  1  -0.00199934  0.00258713  0.49366907  1
  V  V59  1  0.62476104  0.37644579  0.75105345  1
  V  V60  1  0.62465997  0.50081544  0.62466997  1
  V  V61  1  -0.00080839  0.87587898  0.37376672  1
  V  V62  1  0.00018243  0.37437758  0.87251234  1
  V  V63  1  0.37466608  0.50012407  0.87464676  1
  V  V64  1  0.49972581  0.00024635  0.49973568  1
  V  V65  1  0.62835466  0.00172949  0.12742728  1
  V  V66  1  0.74990319  0.62564679  0.87637355  1
  V  V67  1  0.25008970  0.12485672  0.87398296  1
  V  V68  1  0.37266692  0.24839613  0.12622418  1
  V  V69  1  0.75058953  0.75087232  0.49936503  1
  V  V70  1  0.49687719  0.12534690  0.12695878  1
  V  V71  1  0.62561847  0.00039892  0.62653816  1
  V  V72  1  -0.00013645  0.62449129  0.62418694  1
  V  V73  1  0.62621660  0.62489908  0.00069878  1
  V  V74  1  0.12543476  0.49914712  0.12498063  1
  V  V75  1  0.49939234  0.37457198  0.87543825  1
  V  V76  1  0.75092702  0.25059189  0.00513737  1
  V  V77  1  0.37356963  0.37375986  -0.00011906  1
  V  V78  1  0.49925274  0.00071025  0.00146795  1
  V  V79  1  -0.00040914  0.25035400  0.74863734  1
  V  V80  1  0.25073631  0.62375245  0.87385677  1
  V  V81  1  0.00059775  0.12577695  0.62210204  1
  V  V82  1  0.87448286  0.75089982  0.62447237  1
  V  V83  1  0.12492566  0.24940749  0.87289521  1
  V  V84  1  0.49894959  0.87792737  0.37586053  1
  V  V85  1  0.62496951  0.75120097  0.37602441  1
  V  V86  1  0.50022935  0.62467669  0.12627302  1
  V  V87  1  0.37677140  0.74678905  0.62618175  1
  V  V88  1  0.12482845  0.62393236  -0.00097841  1
  V  V89  1  0.25067319  0.87348042  0.12763741  1
  V  V90  1  0.12503618  0.00017085  0.62334969  1
  V  V91  1  0.62699113  0.87937235  0.25007642  1
  V  V92  1  0.37669992  0.87492797  -0.00085707  1
  Zn  Zn93  1  0.37442796  0.62466955  0.25056247  1
  Zn  Zn94  1  0.62431634  0.62760948  0.50113038  1
  Zn  Zn95  1  0.74903134  0.37118299  0.13175375  1
  Zn  Zn96  1  0.49987023  0.62526915  0.62799587  1
  Zn  Zn97  1  0.37550306  0.12618523  0.74898160  1
  Zn  Zn98  1  -0.00214832  0.13231459  0.11953767  1
  Zn  Zn99  1  0.50049670  0.87556238  0.87537310  1
  Zn  Zn100  1  0.12496826  0.87408588  0.25061641  1
  Zn  Zn101  1  0.87405477  0.87574296  0.00531569  1
  Zn  Zn102  1  0.89395527  0.12581943  0.25175241  1
  Zn  Zn103  1  0.36849658  0.13169192  0.26032072  1
  Zn  Zn104  1  0.75054780  0.37521727  0.62594600  1
  Zn  Zn105  1  0.50003746  0.74817662  0.75010869  1
  Zn  Zn106  1  0.37144043  0.24700282  0.62345383  1
  Zn  Zn107  1  0.75447562  0.87473422  0.12470072  1
  Zn  Zn108  1  0.87253104  0.75385925  0.12277295  1
  Zn  Zn109  1  0.75128807  0.87649042  0.62442327  1
  Zn  Zn110  1  -0.00835113  0.36259464  0.36482388  1
  Zn  Zn111  1  0.87619442  0.12330769  0.75056905  1
  Zn  Zn112  1  0.12531744  0.37501033  0.74751293  1
  Zn  Zn113  1  0.11585949  0.11702654  -0.00731350  1
  Zn  Zn114  1  0.75237754  0.75307968  0.00547862  1
  Zn  Zn115  1  0.62482584  0.12519684  0.00141527  1
  Zn  Zn116  1  0.87426921  0.37563010  0.49931598  1
  Zn  Zn117  1  0.37743481  0.62506834  0.75044423  1
  Zn  Zn118  1  0.12635190  0.74921176  0.37373981  1
  Zn  Zn119  1  0.89817448  0.25710305  0.14855880  1
  Zn  Zn120  1  0.36736844  0.00585381  0.37923509  1
  Zn  Zn121  1  0.76504227  -0.00127169  0.25395321  1
  Zn  Zn122  1  0.17543407  0.18677376  0.18627502  1
  Zn  Zn123  1  0.18554052  0.18598524  0.68799183  1
  Zn  Zn124  1  0.18635843  0.68623205  0.18854835  1
  Zn  Zn125  1  0.18851794  0.68562064  0.68682558  1
  Zn  Zn126  1  0.68695671  0.18694214  0.18869112  1
  Zn  Zn127  1  0.68677843  0.18691593  0.68993776  1
  Zn  Zn128  1  0.68774893  0.68623957  0.18778608  1
  Zn  Zn129  1  0.68887300  0.68759386  0.68713148  1
  Zn  Zn130  1  0.30966039  0.31241345  0.31374813  1
  Zn  Zn131  1  0.31209127  0.31276032  0.80883421  1
  Zn  Zn132  1  0.31491862  0.81295739  0.31316097  1
  Zn  Zn133  1  0.31250680  0.81341934  0.81169479  1
  Zn  Zn134  1  0.81420234  0.31065433  0.31589760  1
  Zn  Zn135  1  0.81231822  0.31221255  0.81287667  1
  Zn  Zn136  1  0.81357652  0.81322525  0.31229563  1
  Zn  Zn137  1  0.81225483  0.81468328  0.81494880  1
  Zn  Zn138  1  0.18558311  0.43400290  0.43463346  1
  Zn  Zn139  1  0.18702600  0.43539618  0.93607786  1
  Zn  Zn140  1  0.18395232  0.93635527  0.43704767  1
  Zn  Zn141  1  0.19063875  0.93397403  0.93529330  1
  Zn  Zn142  1  0.68698976  0.43671272  0.43738569  1
  Zn  Zn143  1  0.68707617  0.43811188  0.93858268  1
  Zn  Zn144  1  0.68602966  0.93806573  0.43869605  1
  Zn  Zn145  1  0.69067738  0.93830142  0.94066379  1
  Zn  Zn146  1  0.31031580  0.06350576  0.06312858  1
  Zn  Zn147  1  0.31699529  0.06045951  0.56601945  1
  Zn  Zn148  1  0.31279661  0.56168207  0.06264366  1
  Zn  Zn149  1  0.31146183  0.56023338  0.56107402  1
  Zn  Zn150  1  0.81721856  0.06957888  0.06751858  1
  Zn  Zn151  1  0.81146642  0.06421298  0.56085733  1
  Zn  Zn152  1  0.81078102  0.56302183  0.06424818  1
  Zn  Zn153  1  0.81164513  0.56449643  0.56220340  1
  Zn  Zn154  1  0.43603185  0.43614188  0.18751234  1
  Zn  Zn155  1  0.43552130  0.43608652  0.68716854  1
  Zn  Zn156  1  0.43676465  0.93817265  0.18805760  1
  Zn  Zn157  1  0.43875968  0.93666769  0.68764549  1
  Zn  Zn158  1  0.93480522  0.44103539  0.18530521  1
  Zn  Zn159  1  0.93700108  0.43616385  0.68560856  1
  Zn  Zn160  1  0.93305161  0.94326416  0.19002422  1
  Zn  Zn161  1  0.93748908  0.93909480  0.68826028  1
  Zn  Zn162  1  0.06709873  0.06224515  0.30729000  1
  Zn  Zn163  1  0.06139752  0.06349048  0.81081143  1
  Zn  Zn164  1  0.06327879  0.56073317  0.31204654  1
  Zn  Zn165  1  0.06348785  0.56123816  0.81069529  1
  Zn  Zn166  1  0.56027212  0.06724241  0.31382116  1
  Zn  Zn167  1  0.56304026  0.06348323  0.81446262  1
  Zn  Zn168  1  0.56256531  0.56434937  0.31283903  1
  Zn  Zn169  1  0.56012781  0.56499215  0.81136811  1
  Zn  Zn170  1  0.43470064  0.18440131  0.43629140  1
  Zn  Zn171  1  0.43668519  0.18545902  0.93772776  1
  Zn  Zn172  1  0.43684214  0.68746546  0.43716082  1
  Zn  Zn173  1  0.43975342  0.68673129  0.93800228  1
  Zn  Zn174  1  0.94271873  0.19001307  0.43376343  1
  Zn  Zn175  1  0.94002888  0.18468998  0.94208612  1
  Zn  Zn176  1  0.93624317  0.68781237  0.43623189  1
  Zn  Zn177  1  0.93670870  0.69119705  0.93802279  1
  Zn  Zn178  1  0.06380058  0.31167738  0.05705832  1
  Zn  Zn179  1  0.06545628  0.31008584  0.55805762  1
  Zn  Zn180  1  0.06290845  0.81206181  0.06307676  1
  Zn  Zn181  1  0.06236629  0.81178454  0.56120326  1
  Zn  Zn182  1  0.56227758  0.31107530  0.06207800  1
  Zn  Zn183  1  0.56110343  0.31419904  0.56208152  1
  Zn  Zn184  1  0.56431381  0.81388642  0.06277649  1
  Zn  Zn185  1  0.56249302  0.81411492  0.56316430  1
  O  O186  1  0.13005135  0.10551702  0.11900182  1
  O  O187  1  0.12000976  0.12032966  0.61572195  1
  O  O188  1  0.11990453  0.61886934  0.11824915  1
  O  O189  1  0.11941703  0.61908949  0.61858842  1
  O  O190  1  0.61648358  0.11646930  0.12577409  1
  O  O191  1  0.62034771  0.11980117  0.62049615  1
  O  O192  1  0.61870803  0.61524827  0.12043974  1
  O  O193  1  0.62384351  0.61259603  0.62306400  1
  O  O194  1  0.37966907  0.38054701  0.38257589  1
  O  O195  1  0.37979272  0.38027766  0.88081863  1
  O  O196  1  0.38161890  0.87880424  0.38209987  1
  O  O197  1  0.37611616  0.88071734  0.88158212  1
  O  O198  1  0.87707978  0.38482951  0.38024563  1
  O  O199  1  0.87963481  0.38155384  0.88170567  1
  O  O200  1  0.88665267  0.86919338  0.38767854  1
  O  O201  1  0.88401793  0.88387215  0.87373521  1
  O  O202  1  0.24600636  -0.01049559  0.35561439  1
  O  O203  1  0.25555476  0.00383851  0.86882789  1
  O  O204  1  0.25489159  0.50404124  0.37010389  1
  O  O205  1  0.25476525  0.50389303  0.87000907  1
  O  O206  1  0.74040709  0.01842467  0.37826178  1
  O  O207  1  0.75721447  0.00591381  0.86941904  1
  O  O208  1  0.75243268  0.50521635  0.37002589  1
  O  O209  1  0.75467747  0.50560718  0.86903157  1
  O  O210  1  0.24481897  0.49385704  0.12907628  1
  O  O211  1  0.24465632  0.49274154  0.62897123  1
  O  O212  1  0.24664296  0.98867483  0.13193751  1
  O  O213  1  0.24464716  0.99260551  0.63024951  1
  O  O214  1  0.74140894  0.49952812  0.13437537  1
  O  O215  1  0.74138747  0.49901448  0.62978052  1
  O  O216  1  0.73507341  1.00438877  0.12990135  1
  O  O217  1  0.74351283  1.00002662  0.63089332  1
  O  O218  1  0.01327870  0.38644379  0.24916146  1
  O  O219  1  0.00069664  0.36908535  0.75498826  1
  O  O220  1  -0.00074847  0.86607335  0.26011418  1
  O  O221  1  0.00577461  0.86915650  0.75565661  1
  O  O222  1  0.49417724  0.36248764  0.25613933  1
  O  O223  1  0.50549543  0.37106295  0.75646737  1
  O  O224  1  0.50767642  0.87085102  0.25513381  1
  O  O225  1  0.51393980  0.87326067  0.75223197  1
  O  O226  1  0.49777997  0.13869303  0.24443345  1
  O  O227  1  0.50130448  0.13176127  0.74393212  1
  O  O228  1  0.49825341  0.63256597  0.24432883  1
  O  O229  1  0.49476010  0.62955606  0.74557576  1
  O  O230  1  1.00764584  0.11852307  0.23544152  1
  O  O231  1  0.99880902  0.13210768  0.73953948  1
  O  O232  1  0.99550263  0.63083025  0.24563109  1
  O  O233  1  0.99473731  0.63019019  0.74440850  1
  O  O234  1  0.36888856  0.25527266  0.00557879  1
  O  O235  1  0.38363662  0.26600898  0.50174622  1
  O  O236  1  0.37054597  0.75411268  0.00519000  1
  O  O237  1  0.36916556  0.75530978  0.50696972  1
  O  O238  1  0.86463487  0.26235030  -0.00638934  1
  O  O239  1  0.86606463  0.25026656  0.50766281  1
  O  O240  1  0.87158644  0.75378174  0.00285314  1
  O  O241  1  0.87128211  0.75841752  0.50502076  1
  O  O242  1  0.12578928  0.23939485  0.49099889  1
  O  O243  1  0.13433725  0.25026628  0.98854650  1
  O  O244  1  0.13133828  0.74236536  0.49973234  1
  O  O245  1  0.13098437  0.74343743  0.99373535  1
  O  O246  1  0.63087952  0.24577312  0.49481755  1
  O  O247  1  0.63357626  0.25102239  0.99306631  1
  O  O248  1  0.63185384  0.75135049  0.49429669  1
  O  O249  1  0.62496213  0.74359129  0.99106694  1
  O  O250  1  0.49501317  0.24719594  0.13205998  1
  O  O251  1  0.50172376  0.24456761  0.63183360  1
  O  O252  1  0.49659799  0.74464013  0.12979210  1
  O  O253  1  0.48854230  0.74850909  0.62324255  1
  O  O254  1  1.00810760  0.24930358  0.12556491  1
  O  O255  1  0.99244021  0.24621531  0.62622519  1
  O  O256  1  1.00069290  0.74400748  0.13504778  1
  O  O257  1  0.99483276  0.74422267  0.62968264  1
  O  O258  1  0.01823799  0.25407277  0.38219219  1
  O  O259  1  0.00397573  0.25536246  0.86803312  1
  O  O260  1  0.00139997  0.75598724  0.36725434  1
  O  O261  1  0.00594132  0.75728792  0.86720277  1
  O  O262  1  0.50604439  0.25473642  0.36820046  1
  O  O263  1  0.50514501  0.25549878  0.87079856  1
  O  O264  1  0.50451723  0.75687235  0.37096652  1
  O  O265  1  0.51350607  0.75168787  0.87384590  1
  O  O266  1  0.23836456  0.11507975  0.50367835  1
  O  O267  1  0.24794620  0.13118453  0.99121626  1
  O  O268  1  0.24429453  0.62861113  0.49423258  1
  O  O269  1  0.24419501  0.62883179  0.99447699  1
  O  O270  1  0.74317997  0.13437590  0.49307026  1
  O  O271  1  0.74898078  0.13701778  0.99402455  1
  O  O272  1  0.74876798  0.63267698  0.49279761  1
  O  O273  1  0.74292504  0.62403478  0.99269237  1
  O  O274  1  0.25495426  0.36897305  0.00504246  1
  O  O275  1  0.26042529  0.38441843  0.50875841  1
  O  O276  1  0.25678534  0.86701649  0.00794698  1
  O  O277  1  0.25416759  0.87003899  0.50512937  1
  O  O278  1  0.75870082  0.36899407  -0.00116024  1
  O  O279  1  0.74953479  0.36172381  0.50235979  1
  O  O280  1  0.75248580  0.87163457  0.00532161  1
  O  O281  1  0.76048988  0.87137643  0.49907187  1
  O  O282  1  0.13116940  0.49329714  0.24389555  1
  O  O283  1  0.13103214  0.49842012  0.74135010  1
  O  O284  1  0.13928579  0.99252983  0.23724442  1
  O  O285  1  0.13022123  0.99426829  0.74269792  1
  O  O286  1  0.63341841  0.50621310  0.24185213  1
  O  O287  1  0.62898285  0.49621797  0.74314320  1
  O  O288  1  0.62004090  0.99240268  0.24345139  1
  O  O289  1  0.63057122  0.99240359  0.74719297  1
  O  O290  1  0.35949048  -0.00043086  0.24793154  1
  O  O291  1  0.36856418  -0.00110661  0.75593735  1
  O  O292  1  0.36808093  0.49943003  0.25663256  1
  O  O293  1  0.36883145  0.50030428  0.75736524  1
  O  O294  1  0.87519229  0.01155071  0.25440610  1
  O  O295  1  0.86749763  0.00142387  0.75684657  1
  O  O296  1  0.86606815  0.50603677  0.25558225  1
  O  O297  1  0.87000929  0.50544361  0.75394052  1
  O  O298  1  0.12091483  0.36742242  0.36682394  1
  O  O299  1  0.11752055  0.36902081  0.87190962  1
  O  O300  1  0.11152892  0.86945219  0.37451070  1
  O  O301  1  0.11903327  0.86999317  0.86796022  1
  O  O302  1  0.61772101  0.36150488  0.38249742  1
  O  O303  1  0.61852617  0.37126867  0.87060841  1
  O  O304  1  0.61939060  0.87111478  0.36826098  1
  O  O305  1  0.62602932  0.86731355  0.86701371  1
  O  O306  1  0.37974682  0.13250284  0.12854213  1
  O  O307  1  0.38395343  0.12835393  0.62768849  1
  O  O308  1  0.38190050  0.63038414  0.12555884  1
  O  O309  1  0.37344177  0.63647723  0.62381133  1
  O  O310  1  0.87767774  0.13783549  0.12950432  1
  O  O311  1  0.88067172  0.13583755  0.62363108  1
  O  O312  1  0.88315401  0.62339470  0.13213691  1
  O  O313  1  0.88019102  0.63085405  0.63101940  1
  O  O314  1  0.25205002  0.25432336  0.11973215  1
  O  O315  1  0.25009859  0.26428258  0.63001492  1
  O  O316  1  0.25481664  0.75466207  0.11988552  1
  O  O317  1  0.25672867  0.75475204  0.61898252  1
  O  O318  1  0.74158498  0.25416235  0.11184866  1
  O  O319  1  0.75622621  0.24799298  0.61700946  1
  O  O320  1  0.75240036  0.75298536  0.12571297  1
  O  O321  1  0.75692907  0.75226871  0.61801956  1
  O  O322  1  0.23219747  0.25723977  0.37592004  1
  O  O323  1  0.24575796  0.24511636  0.87744352  1
  O  O324  1  0.24997306  0.74346107  0.38091004  1
  O  O325  1  0.24448291  0.74494317  0.87994955  1
  O  O326  1  0.74039638  0.24342325  0.38423787  1
  O  O327  1  0.74488547  0.24623665  0.88247012  1
  O  O328  1  0.74483651  0.74584531  0.37972402  1
  O  O329  1  0.73891819  0.74330596  0.87367363  1
  O  O330  1  0.00428295  0.12107478  0.00472962  1
  O  O331  1  0.00589448  0.11538826  0.50329672  1
  O  O332  1  0.00606858  0.61987483  0.00318859  1
  O  O333  1  0.00345331  0.61720566  0.50495824  1
  O  O334  1  0.50103934  0.11930252  0.00875774  1
  O  O335  1  0.50569707  0.12045933  0.50704630  1
  O  O336  1  0.50608148  0.61788162  0.00629723  1
  O  O337  1  0.50097707  0.61149478  0.50126558  1
  O  O338  1  0.49292270  0.38521705  0.49478970  1
  O  O339  1  0.49333991  0.37925650  0.99517666  1
  O  O340  1  0.49540476  0.88061496  0.49531263  1
  O  O341  1  0.49351239  0.88209034  1.00014483  1
  O  O342  1  0.99987135  0.39001423  0.50113080  1
  O  O343  1  0.99078512  0.38157000  0.99248516  1
  O  O344  1  0.99443660  0.88161449  0.49437027  1
  O  O345  1  1.00154549  0.86931801  0.98314899  1
  O  O346  1  0.49648847  0.49534428  0.38168340  1
  O  O347  1  0.49560922  0.49431221  0.88181939  1
  O  O348  1  0.50275870  0.99343884  0.38344125  1
  O  O349  1  0.49408614  0.99935895  0.88303764  1
  O  O350  1  0.99284923  0.50287841  0.38464639  1
  O  O351  1  0.99423439  0.49596481  0.87918540  1
  O  O352  1  1.00913655  0.99050788  0.38664965  1
  O  O353  1  0.99060747  0.99042815  0.86539379  1
  O  O354  1  0.02286844  -0.01566415  0.12665827  1
  O  O355  1  0.00639451  0.00451350  0.61596571  1
  O  O356  1  0.00574007  0.50652489  0.11748034  1
  O  O357  1  0.00374421  0.50576175  0.61728345  1
  O  O358  1  0.50589901  0.00551123  0.12170488  1
  O  O359  1  0.50626825  0.00578003  0.62018358  1
  O  O360  1  0.50582359  0.50355638  0.12170699  1
  O  O361  1  0.50721756  0.49868575  0.61667204  1
  O  O362  1  0.24046458  0.38055632  0.24378845  1
  O  O363  1  0.24865516  0.38245670  0.73922623  1
  O  O364  1  0.25035915  0.87602677  0.23786731  1
  O  O365  1  0.24268714  0.87952098  0.74403845  1
  O  O366  1  0.75364221  0.39003759  0.25153593  1
  O  O367  1  0.74291872  0.38212420  0.74962320  1
  O  O368  1  0.73684125  0.88005945  0.25447585  1
  O  O369  1  0.74036151  0.88137409  0.74871737  1
  O  O370  1  0.24737545  0.10957521  0.24318426  1
  O  O371  1  0.25143455  0.11706977  0.75469032  1
  O  O372  1  0.25099078  0.61755053  0.25579140  1
  O  O373  1  0.25207690  0.61826543  0.75673955  1
  O  O374  1  0.74315408  0.12616254  0.26837321  1
  O  O375  1  0.75087518  0.11887141  0.75752874  1
  O  O376  1  0.75443102  0.61594876  0.25698341  1
  O  O377  1  0.75593201  0.61927747  0.75574183  1
  O  O378  1  0.37704528  0.11756833  0.37176910  1
  O  O379  1  0.36829738  0.11755578  0.87226437  1
  O  O380  1  0.36812953  0.61725571  0.37435112  1
  O  O381  1  0.36801325  0.61814315  0.87661098  1
  O  O382  1  0.85722260  0.13042252  0.38208472  1
  O  O383  1  0.86960561  0.11753140  0.87218312  1
  O  O384  1  0.86805366  0.61970023  0.36928055  1
  O  O385  1  0.87085169  0.61940411  0.86890381  1
  O  O386  1  0.13071669  0.38084058  0.13062188  1
  O  O387  1  0.13353355  0.38094765  0.62219443  1
  O  O388  1  0.13828982  0.87828196  0.12345438  1
  O  O389  1  0.12947161  0.87967423  0.62862637  1
  O  O390  1  0.62577876  0.38986143  0.11999370  1
  O  O391  1  0.62565550  0.38598055  0.63119851  1
  O  O392  1  0.62312444  0.88463869  0.13636428  1
  O  O393  1  0.62727914  0.88088202  0.63437562  1
  O  O394  1  0.12869058  0.25939866  0.26161256  1
  O  O395  1  0.11706487  0.25259698  0.75478229  1
  O  O396  1  0.11241081  0.75102418  0.25124587  1
  O  O397  1  0.12008334  0.75455260  0.75396014  1
  O  O398  1  0.61478882  0.24744027  0.26029125  1
  O  O399  1  0.62020890  0.25711219  0.75630768  1
  O  O400  1  0.61942576  0.75996664  0.25574823  1
  O  O401  1  0.62635485  0.75800104  0.75704466  1
  O  O402  1  0.38155546  0.25110435  0.24408651  1
  O  O403  1  0.38499884  0.24892176  0.74671357  1
  O  O404  1  0.38257009  0.74905584  0.24260960  1
  O  O405  1  0.37537833  0.75092443  0.73803951  1
  O  O406  1  0.87314505  0.24141778  0.25669314  1
  O  O407  1  0.87908868  0.24858874  0.73940978  1
  O  O408  1  0.88618526  0.74338123  0.25137772  1
  O  O409  1  0.87952285  0.74513306  0.74528445  1
  O  O410  1  0.38364324  0.49218316  0.49516957  1
  O  O411  1  0.38035707  0.49319583  0.99542933  1
  O  O412  1  0.38219529  0.99119321  0.50152201  1
  O  O413  1  0.37881248  0.99414332  0.99561950  1
  O  O414  1  0.88248709  0.50088386  0.49562511  1
  O  O415  1  0.87850896  0.49231046  0.99448215  1
  O  O416  1  0.88631523  0.99112605  0.50664203  1
  O  O417  1  0.86802630  0.99995340  0.98514726  1
  O  O418  1  0.13548455  -0.00415522  0.01215655  1
  O  O419  1  0.11709027  0.00607260  0.50439602  1
  O  O420  1  0.11958865  0.50412048  0.00433538  1
  O  O421  1  0.11680653  0.50536265  0.50330073  1
  O  O422  1  0.61829426  0.00112840  0.01150891  1
  O  O423  1  0.61930088  0.00490470  0.50760530  1
  O  O424  1  0.61950184  0.50516820  0.00793871  1
  O  O425  1  0.61666466  0.49873317  0.50778488  1
  O  O426  1  0.36836611  0.36881427  0.11904092  1
  O  O427  1  0.36671831  0.37516499  0.61619197  1
  O  O428  1  0.36801585  0.86826169  0.11938390  1
  O  O429  1  0.36965551  0.86654518  0.61957326  1
  O  O430  1  0.87206785  0.37443197  0.11292097  1
  O  O431  1  0.87181596  0.36271455  0.62169596  1
  O  O432  1  0.87310060  0.87402793  0.12359800  1
  O  O433  1  0.87607880  0.86945966  0.61430547  1
  O  O434  1  0.12361923  0.13547465  0.38181201  1
  O  O435  1  0.13273674  0.13066750  0.87269155  1
  O  O436  1  0.13187955  0.62536308  0.38124269  1
  O  O437  1  0.13005409  0.62998601  0.87955790  1
  O  O438  1  0.62840376  0.13802419  0.38245508  1
  O  O439  1  0.63252801  0.13187454  0.87822034  1
  O  O440  1  0.63034203  0.63354670  0.37729160  1
  O  O441  1  0.62981589  0.63151011  0.87964968  1
