# generated using pymatgen
data_V93Zn93O256
_symmetry_space_group_name_H-M   'P 1'
_cell_length_a   17.04969530
_cell_length_b   17.04738359
_cell_length_c   17.04937305
_cell_angle_alpha   90.07197764
_cell_angle_beta   89.96894017
_cell_angle_gamma   89.95185047
_symmetry_Int_Tables_number   1
_chemical_formula_structural   V93Zn93O256
_chemical_formula_sum   'V93 Zn93 O256'
_cell_volume   4955.43984987
_cell_formula_units_Z   1
loop_
 _symmetry_equiv_pos_site_id
 _symmetry_equiv_pos_as_xyz
  1  'x, y, z'
loop_
 _atom_site_type_symbol
 _atom_site_label
 _atom_site_symmetry_multiplicity
 _atom_site_fract_x
 _atom_site_fract_y
 _atom_site_fract_z
 _atom_site_occupancy
  V  V0  1  0.24902541  0.12519038  0.87521880  1
  V  V1  1  0.00113484  0.75127942  0.75203117  1
  V  V2  1  0.24864430  -0.00070129  0.75084423  1
  V  V3  1  0.50294873  0.37383102  0.37620730  1
  V  V4  1  0.36672091  0.12564883  0.25630791  1
  V  V5  1  0.87616288  0.12543520  0.74772189  1
  V  V6  1  0.62852139  0.12279692  0.49347458  1
  V  V7  1  0.00012281  0.50040990  0.00102975  1
  V  V8  1  0.49998588  0.37544160  0.87540166  1
  V  V9  1  0.25148689  0.37236161  0.62354790  1
  V  V10  1  0.37639329  0.50048440  0.37564062  1
  V  V11  1  0.87519672  0.87500279  0.49914840  1
  V  V12  1  0.37466296  0.24942431  0.62322996  1
  V  V13  1  0.62413546  0.62559637  0.00036262  1
  V  V14  1  0.00023849  0.75163556  0.25075828  1
  V  V15  1  0.12125944  0.12393807  0.01219010  1
  V  V16  1  0.12484032  0.62506611  0.50065279  1
  V  V17  1  0.37517977  0.37527707  -0.00098175  1
  V  V18  1  0.62369867  0.00027224  0.12558009  1
  V  V19  1  0.50012184  0.62657375  0.12516969  1
  V  V20  1  0.87852261  -0.00207151  0.87453869  1
  V  V21  1  0.62402286  0.75046008  0.37500000  1
  V  V22  1  0.75015959  0.24980701  0.00055915  1
  V  V23  1  0.75000269  0.75008148  0.49990734  1
  V  V24  1  0.75101630  0.49891249  0.24939520  1
  V  V25  1  0.12497706  0.62596983  0.00082850  1
  V  V26  1  0.87188350  0.12534065  0.24582689  1
  V  V27  1  0.62587210  0.37337439  0.74894826  1
  V  V28  1  0.37278715  0.00125378  0.37735618  1
  V  V29  1  0.37534584  0.12376431  0.74940341  1
  V  V30  1  0.50151279  0.24916725  0.74866888  1
  V  V31  1  0.49957538  0.00123928  0.00053769  1
  V  V32  1  0.36801400  0.75456173  0.12617038  1
  V  V33  1  0.25004140  0.50049048  0.74983674  1
  V  V34  1  0.12552879  0.75189502  0.37507508  1
  V  V35  1  0.00154614  0.00060681  0.49911221  1
  V  V36  1  0.62297685  0.87576165  0.25069080  1
  V  V37  1  0.75090698  0.37187986  0.62412616  1
  V  V38  1  0.74979054  -0.00013879  0.75029667  1
  V  V39  1  0.62158309  -0.00098140  0.61956229  1
  V  V40  1  0.24918572  0.50027706  0.25075969  1
  V  V41  1  0.13216446  0.24550523  0.37433087  1
  V  V42  1  0.49868903  0.74886943  0.75111494  1
  V  V43  1  0.24950327  0.62812406  0.87682912  1
  V  V44  1  0.25046012  0.87460185  0.62453821  1
  V  V45  1  0.62485550  0.50085319  0.12552358  1
  V  V46  1  0.62487769  0.49876345  0.62447622  1
  V  V47  1  0.49925883  0.24912695  0.24922569  1
  V  V48  1  0.25044272  0.37754172  0.12453215  1
  V  V49  1  0.50033094  0.12077992  0.61864297  1
  V  V50  1  0.24910072  0.25015220  -0.00049383  1
  V  V51  1  0.13195665  0.12426308  0.49490302  1
  V  V52  1  -0.00081174  0.24923214  0.74832321  1
  V  V53  1  0.75005287  0.87408470  0.62455357  1
  V  V54  1  0.49933755  0.75190099  0.25051463  1
  V  V55  1  0.75168795  0.24458307  0.49166345  1
  V  V56  1  0.62470039  0.12455705  0.00051598  1
  V  V57  1  0.24657149  -0.00299294  0.24041471  1
  V  V58  1  0.74988636  0.87722135  0.12755617  1
  V  V59  1  0.37491682  0.24977179  0.12571038  1
  V  V60  1  0.00177933  0.87612028  0.37546615  1
  V  V61  1  0.62429540  0.87499213  0.75050139  1
  V  V62  1  0.00081952  0.62381718  0.62537100  1
  V  V63  1  0.87415492  0.75094124  0.12554591  1
  V  V64  1  0.87565033  0.37346770  0.49926776  1
  V  V65  1  0.00080484  0.24273821  0.24311587  1
  V  V66  1  0.87437072  0.62397230  0.74979794  1
  V  V67  1  0.86918204  0.00740554  0.37470444  1
  V  V68  1  0.25013883  0.62487766  0.37549789  1
  V  V69  1  0.36630025  0.87606647  0.00496301  1
  V  V70  1  0.62474055  0.75032335  0.87624635  1
  V  V71  1  0.12419408  0.87531526  0.75086218  1
  V  V72  1  0.12538325  0.24922001  0.87414583  1
  V  V73  1  0.37503648  0.62618421  0.74935357  1
  V  V74  1  0.87560894  0.49866631  0.37398055  1
  V  V75  1  0.49957519  0.87573483  0.87603128  1
  V  V76  1  0.87541409  0.62468232  0.25071130  1
  V  V77  1  0.38091635  0.87968048  0.50012177  1
  V  V78  1  0.74915769  0.12409208  0.87493591  1
  V  V79  1  0.37416925  0.00004855  0.87621330  1
  V  V80  1  0.87477904  0.37413819  0.00091485  1
  V  V81  1  0.12879923  0.87908070  0.23736025  1
  V  V82  1  0.12506878  0.37490210  0.24973918  1
  V  V83  1  0.74950211  0.62473903  0.87500018  1
  V  V84  1  0.00056815  0.37444598  0.37461858  1
  V  V85  1  0.12449647  0.00084795  0.62354747  1
  V  V86  1  0.25069070  0.75171572  0.50028904  1
  V  V87  1  0.12530317  0.49949287  0.62394227  1
  V  V88  1  0.00091196  0.37460637  0.87500038  1
  V  V89  1  0.00122690  0.00494082  0.01395730  1
  V  V90  1  0.62602617  0.37442825  0.24892282  1
  V  V91  1  0.62408033  0.62387382  0.49987549  1
  V  V92  1  0.12529105  0.37439202  0.74920790  1
  Zn  Zn93  1  0.37679503  0.75070973  0.62336364  1
  Zn  Zn94  1  0.25436246  0.24713025  0.49500498  1
  Zn  Zn95  1  0.00142975  0.87644481  0.87707381  1
  Zn  Zn96  1  0.12419034  0.75420188  0.87795882  1
  Zn  Zn97  1  0.12568577  0.50175939  0.12683442  1
  Zn  Zn98  1  0.75037957  0.37415229  0.12462246  1
  Zn  Zn99  1  0.75085845  0.62444254  0.37507800  1
  Zn  Zn100  1  0.37573264  0.37261300  0.50051038  1
  Zn  Zn101  1  -0.00026087  0.49940101  0.49954071  1
  Zn  Zn102  1  0.50120823  0.87897258  0.38064595  1
  Zn  Zn103  1  0.49893910  0.62388351  0.62571798  1
  Zn  Zn104  1  0.62547934  0.24929266  0.87402304  1
  Zn  Zn105  1  0.24339571  0.75657747  0.00644239  1
  Zn  Zn106  1  0.62919390  0.24015525  0.36896702  1
  Zn  Zn107  1  0.49860570  0.12472301  0.12598062  1
  Zn  Zn108  1  0.87367754  0.49997642  0.87525606  1
  Zn  Zn109  1  0.87663979  0.87588672  0.00068486  1
  Zn  Zn110  1  0.87648994  0.24767648  0.62230099  1
  Zn  Zn111  1  0.49862826  0.50024376  0.00140327  1
  Zn  Zn112  1  0.37409085  0.62791028  0.24919937  1
  Zn  Zn113  1  0.88163193  0.24199215  0.12024695  1
  Zn  Zn114  1  0.75094252  0.75209687  0.00017750  1
  Zn  Zn115  1  0.74307183  0.01144214  0.25659017  1
  Zn  Zn116  1  0.49967556  0.49872010  0.50071784  1
  Zn  Zn117  1  0.87477421  0.74951617  0.62339173  1
  Zn  Zn118  1  0.37533695  0.50080822  0.87688212  1
  Zn  Zn119  1  0.75163687  0.49688579  0.75028778  1
  Zn  Zn120  1  0.00019004  0.12667695  0.62298108  1
  Zn  Zn121  1  0.00042818  0.62597811  0.12508310  1
  Zn  Zn122  1  0.19092967  0.18879990  0.18976452  1
  Zn  Zn123  1  0.18670096  0.18612526  0.68460967  1
  Zn  Zn124  1  0.18626746  0.68773962  0.18961320  1
  Zn  Zn125  1  0.18753899  0.68913929  0.68685484  1
  Zn  Zn126  1  0.68957530  0.18721133  0.18616361  1
  Zn  Zn127  1  0.68916447  0.18757353  0.68382084  1
  Zn  Zn128  1  0.68827693  0.68729897  0.18924701  1
  Zn  Zn129  1  0.68709710  0.68759203  0.68714390  1
  Zn  Zn130  1  0.31374055  0.31557557  0.31164550  1
  Zn  Zn131  1  0.31383290  0.31144129  0.81078960  1
  Zn  Zn132  1  0.31103073  0.81669311  0.31303946  1
  Zn  Zn133  1  0.31172207  0.81230376  0.81498921  1
  Zn  Zn134  1  0.81432760  0.31108082  0.31121361  1
  Zn  Zn135  1  0.81331791  0.31129923  0.81329614  1
  Zn  Zn136  1  0.81115173  0.81493544  0.31408973  1
  Zn  Zn137  1  0.81254997  0.81186630  0.81162967  1
  Zn  Zn138  1  0.18807046  0.43467633  0.43886298  1
  Zn  Zn139  1  0.18795126  0.43966224  0.93659936  1
  Zn  Zn140  1  0.19257970  0.93935132  0.43131314  1
  Zn  Zn141  1  0.18271379  0.94090494  0.93872426  1
  Zn  Zn142  1  0.69025572  0.43528246  0.43669088  1
  Zn  Zn143  1  0.68552763  0.43910348  0.93724765  1
  Zn  Zn144  1  0.68789788  0.93584856  0.43727695  1
  Zn  Zn145  1  0.68874603  0.93715385  0.94009491  1
  Zn  Zn146  1  0.31107385  0.06481129  0.06494945  1
  Zn  Zn147  1  0.31125458  0.06102376  0.56222788  1
  Zn  Zn148  1  0.31487247  0.56341655  0.06337969  1
  Zn  Zn149  1  0.31175560  0.56119376  0.56204023  1
  Zn  Zn150  1  0.81332574  0.06267038  0.06506247  1
  Zn  Zn151  1  0.81208721  0.06188475  0.56263913  1
  Zn  Zn152  1  0.81126185  0.56306405  0.06315568  1
  Zn  Zn153  1  0.81183581  0.56047240  0.56204957  1
  Zn  Zn154  1  0.43812130  0.43819395  0.18849519  1
  Zn  Zn155  1  0.43728050  0.43796027  0.68842707  1
  Zn  Zn156  1  0.43613193  0.93930160  0.18920865  1
  Zn  Zn157  1  0.43692970  0.93693832  0.68730300  1
  Zn  Zn158  1  0.93896340  0.43464498  0.18655852  1
  Zn  Zn159  1  0.93750428  0.43702423  0.68572328  1
  Zn  Zn160  1  0.93715533  0.93786834  0.19286538  1
  Zn  Zn161  1  0.93806599  0.93766624  0.68519926  1
  Zn  Zn162  1  0.06178430  0.06174221  0.31093585  1
  Zn  Zn163  1  0.06225591  0.06440104  0.81446451  1
  Zn  Zn164  1  0.06129938  0.56310129  0.31279619  1
  Zn  Zn165  1  0.06325083  0.56216353  0.81409084  1
  Zn  Zn166  1  0.55320668  0.05935076  0.31120755  1
  Zn  Zn167  1  0.56265759  0.06251406  0.81155918  1
  Zn  Zn168  1  0.56262269  0.56378216  0.31090255  1
  Zn  Zn169  1  0.56288376  0.56025031  0.81231373  1
  Zn  Zn170  1  0.43880975  0.18657410  0.43621845  1
  Zn  Zn171  1  0.43802159  0.18860882  0.93741305  1
  Zn  Zn172  1  0.43797971  0.68960472  0.43776575  1
  Zn  Zn173  1  0.43656273  0.68979541  0.94011917  1
  Zn  Zn174  1  0.94277313  0.18693213  0.43399914  1
  Zn  Zn175  1  0.93824467  0.18513775  0.93508876  1
  Zn  Zn176  1  0.93777258  0.68697597  0.43698293  1
  Zn  Zn177  1  0.93628896  0.68838015  0.93759445  1
  Zn  Zn178  1  0.06524931  0.31311970  0.06291880  1
  Zn  Zn179  1  0.06289049  0.31059624  0.56117866  1
  Zn  Zn180  1  0.05761564  0.81484642  0.06017338  1
  Zn  Zn181  1  0.06224210  0.81233477  0.56410564  1
  Zn  Zn182  1  0.56283270  0.31213356  0.06329198  1
  Zn  Zn183  1  0.56443008  0.30831199  0.55993605  1
  Zn  Zn184  1  0.55950465  0.81274766  0.06268001  1
  Zn  Zn185  1  0.56113228  0.80884876  0.56516172  1
  O  O186  1  0.12974508  0.13220079  0.11043194  1
  O  O187  1  0.12284053  0.11803946  0.61547973  1
  O  O188  1  0.12304362  0.62385428  0.11334876  1
  O  O189  1  0.12127530  0.61913540  0.62062412  1
  O  O190  1  0.62369034  0.11810464  0.11820051  1
  O  O191  1  0.61871029  0.11678995  0.61860764  1
  O  O192  1  0.62034522  0.62164990  0.12002437  1
  O  O193  1  0.62554646  0.61562462  0.61808805  1
  O  O194  1  0.38491303  0.38345517  0.37484167  1
  O  O195  1  0.38382619  0.37475154  0.87896692  1
  O  O196  1  0.37545331  0.88082566  0.38534379  1
  O  O197  1  0.37994376  0.88054945  0.88313533  1
  O  O198  1  0.88129050  0.37941185  0.37929612  1
  O  O199  1  0.88119418  0.37676177  0.88542394  1
  O  O200  1  0.88226718  0.88251396  0.37962959  1
  O  O201  1  0.87357708  0.88666637  0.87714181  1
  O  O202  1  0.26448122  -0.00267347  0.36243788  1
  O  O203  1  0.25478131  0.00616758  0.87020134  1
  O  O204  1  0.25791334  0.50347043  0.37122390  1
  O  O205  1  0.25025014  0.51163560  0.86836180  1
  O  O206  1  0.76463337  -0.00723766  0.37327736  1
  O  O207  1  0.75813909  0.00400410  0.87098600  1
  O  O208  1  0.75779774  0.50005718  0.36735821  1
  O  O209  1  0.75028434  0.51272145  0.87199559  1
  O  O210  1  0.25025728  0.49491189  0.13240575  1
  O  O211  1  0.24485642  0.49377929  0.63093860  1
  O  O212  1  0.25436254  1.00142909  0.14030399  1
  O  O213  1  0.24400972  0.99449950  0.63236605  1
  O  O214  1  0.74337663  0.49802154  0.13101652  1
  O  O215  1  0.73956229  0.49218399  0.62583106  1
  O  O216  1  0.74366705  0.99126986  0.12768564  1
  O  O217  1  0.74084984  0.99412814  0.63105363  1
  O  O218  1  0.00552660  0.36705179  0.25544363  1
  O  O219  1  0.00560443  0.37068455  0.75561419  1
  O  O220  1  0.00800928  0.87128196  0.25680329  1
  O  O221  1  0.00440481  0.86568341  0.74901197  1
  O  O222  1  0.50503625  0.36964241  0.25777491  1
  O  O223  1  0.50480115  0.36916757  0.75680721  1
  O  O224  1  0.50707069  0.86804706  0.24967644  1
  O  O225  1  0.50463073  0.87046102  0.75662827  1
  O  O226  1  0.48811716  0.13209493  0.24717599  1
  O  O227  1  0.49553263  0.12886283  0.74108907  1
  O  O228  1  0.49855972  0.63425337  0.24366071  1
  O  O229  1  0.48996705  0.62935240  0.75322673  1
  O  O230  1  0.99228037  0.13575201  0.25492446  1
  O  O231  1  0.99422729  0.13179525  0.74970787  1
  O  O232  1  0.99453548  0.63293301  0.24725890  1
  O  O233  1  0.99371319  0.63146081  0.74726841  1
  O  O234  1  0.36805050  0.25455053  0.00470419  1
  O  O235  1  0.37311117  0.24967992  0.50716349  1
  O  O236  1  0.37313143  0.75996125  0.00821731  1
  O  O237  1  0.36790558  0.75834627  0.50136344  1
  O  O238  1  0.86927004  0.25625884  -0.00165456  1
  O  O239  1  0.86855766  0.25339457  0.49824662  1
  O  O240  1  0.87474318  0.75351985  0.01197372  1
  O  O241  1  0.86898220  0.75637299  0.50074809  1
  O  O242  1  0.12559912  0.24167565  0.49080898  1
  O  O243  1  0.12905952  0.24404954  0.99319878  1
  O  O244  1  0.13030327  0.74528006  0.49508802  1
  O  O245  1  0.12414275  0.74086218  0.99890283  1
  O  O246  1  0.63378903  0.23927183  0.49728557  1
  O  O247  1  0.63443549  0.24463290  0.99827760  1
  O  O248  1  0.62930585  0.74244281  0.49638848  1
  O  O249  1  0.62598548  0.74443095  0.99337313  1
  O  O250  1  0.49218508  0.25034303  0.13180442  1
  O  O251  1  0.49580879  0.24067885  0.62996320  1
  O  O252  1  0.49170712  0.74556315  0.13069096  1
  O  O253  1  0.49727768  0.74483457  0.63610746  1
  O  O254  1  1.00003571  0.25690355  0.13861965  1
  O  O255  1  0.99778102  0.24854749  0.63343853  1
  O  O256  1  0.98807224  0.75142291  0.13153213  1
  O  O257  1  0.99874362  0.74329806  0.63609098  1
  O  O258  1  0.01045869  0.25618315  0.36514135  1
  O  O259  1  0.00613664  0.25553345  0.86937050  1
  O  O260  1  0.00554430  0.75583745  0.36973111  1
  O  O261  1  -0.00028532  0.75248839  0.86329292  1
  O  O262  1  0.50172761  0.25973548  0.36828252  1
  O  O263  1  0.50117897  0.25920633  0.86812787  1
  O  O264  1  0.50646387  0.75257770  0.36818069  1
  O  O265  1  0.50512591  0.75640639  0.87054468  1
  O  O266  1  0.23597504  0.12626553  0.50349258  1
  O  O267  1  0.24254874  0.12980879  0.99432283  1
  O  O268  1  0.24453443  0.63081126  0.49519873  1
  O  O269  1  0.24125459  0.62415191  0.99231764  1
  O  O270  1  0.74015226  0.13285877  0.50603024  1
  O  O271  1  0.74630911  0.13145097  0.99516809  1
  O  O272  1  0.73971257  0.63037612  0.49978578  1
  O  O273  1  0.74492004  0.62756976  0.99009295  1
  O  O274  1  0.25424444  0.36973689  0.00322904  1
  O  O275  1  0.25325614  0.37052790  0.50880628  1
  O  O276  1  0.26230755  0.87617691  -0.00638768  1
  O  O277  1  0.25707788  0.87012776  0.50527807  1
  O  O278  1  0.75814473  0.36736873  -0.00335505  1
  O  O279  1  0.75512507  0.36517515  0.50439441  1
  O  O280  1  0.75291572  0.87392564  0.01410076  1
  O  O281  1  0.75510065  0.86923797  0.50582042  1
  O  O282  1  0.13067261  0.49353298  0.24971786  1
  O  O283  1  0.12995752  0.49454810  0.74455308  1
  O  O284  1  0.13395632  0.99102615  0.25852263  1
  O  O285  1  0.12973710  0.99591665  0.74515435  1
  O  O286  1  0.63108668  0.49522387  0.24489791  1
  O  O287  1  0.62686828  0.49372572  0.73958924  1
  O  O288  1  0.62460512  0.99505539  0.24473252  1
  O  O289  1  0.63013806  0.99474821  0.74171941  1
  O  O290  1  0.36756187  0.00707321  0.25453265  1
  O  O291  1  0.36913864  0.00435618  0.75643182  1
  O  O292  1  0.36907054  0.50149136  0.26112573  1
  O  O293  1  0.36906435  0.50993776  0.75248431  1
  O  O294  1  0.87482449  0.00896798  0.25824047  1
  O  O295  1  0.86971851  0.00381161  0.75656040  1
  O  O296  1  0.87153702  0.50387279  0.25315778  1
  O  O297  1  0.87475471  0.51197642  0.75316300  1
  O  O298  1  0.12012091  0.36739667  0.36923986  1
  O  O299  1  0.12120294  0.36943540  0.86925195  1
  O  O300  1  0.11932618  0.86849443  0.37098649  1
  O  O301  1  0.12246646  0.87362000  0.86656191  1
  O  O302  1  0.61530563  0.37585611  0.36799393  1
  O  O303  1  0.61643325  0.37326124  0.86879504  1
  O  O304  1  0.62225711  0.86955633  0.37001914  1
  O  O305  1  0.62039083  0.87135349  0.87025871  1
  O  O306  1  0.37577363  0.13311101  0.13468053  1
  O  O307  1  0.38305168  0.12619963  0.62943946  1
  O  O308  1  0.38183417  0.63558574  0.12614110  1
  O  O309  1  0.37485693  0.62548767  0.63774576  1
  O  O310  1  0.87491006  0.12524681  0.13838780  1
  O  O311  1  0.87807349  0.12487019  0.63326088  1
  O  O312  1  0.87501545  0.63593463  0.13052227  1
  O  O313  1  0.87969058  0.62512594  0.63441377  1
  O  O314  1  0.25565415  0.25792675  0.11888927  1
  O  O315  1  0.25760434  0.25524811  0.62576088  1
  O  O316  1  0.26384110  0.74465155  0.12471920  1
  O  O317  1  0.25127465  0.75719165  0.61869103  1
  O  O318  1  0.75404554  0.25201444  0.10988487  1
  O  O319  1  0.75234438  0.25528346  0.61309929  1
  O  O320  1  0.75838633  0.75862779  0.12599623  1
  O  O321  1  0.75032005  0.75693297  0.61899738  1
  O  O322  1  0.23579123  0.25655838  0.37371459  1
  O  O323  1  0.24534306  0.24488463  0.87975259  1
  O  O324  1  0.24488289  0.74434410  0.38034006  1
  O  O325  1  0.24734835  0.73803211  0.87879042  1
  O  O326  1  0.74698359  0.25442362  0.38764526  1
  O  O327  1  0.74960064  0.24329452  0.88555139  1
  O  O328  1  0.74239674  0.74897255  0.38197980  1
  O  O329  1  0.74426459  0.74100030  0.87562246  1
  O  O330  1  0.00658164  0.11424308  -0.00442519  1
  O  O331  1  0.01132232  0.11817978  0.50082138  1
  O  O332  1  0.00732744  0.61714102  -0.00135404  1
  O  O333  1  0.00693393  0.62476055  0.50725217  1
  O  O334  1  0.50570189  0.11924595  0.00081546  1
  O  O335  1  0.50950649  0.13015132  0.51361704  1
  O  O336  1  0.50642937  0.62413536  0.00578034  1
  O  O337  1  0.51258960  0.62345544  0.50253081  1
  O  O338  1  0.50040873  0.37554485  0.48804113  1
  O  O339  1  0.49469267  0.37310874  0.99019662  1
  O  O340  1  0.48526247  0.86970505  0.50294803  1
  O  O341  1  0.49113336  0.88160961  0.99394854  1
  O  O342  1  0.99407239  0.37502720  0.49270194  1
  O  O343  1  0.99465065  0.38086330  0.99508927  1
  O  O344  1  0.99522340  0.87989651  0.49541800  1
  O  O345  1  0.99795816  0.89113058  0.99628510  1
  O  O346  1  0.49260294  0.49182067  0.37343936  1
  O  O347  1  0.49893698  0.48640402  0.87596397  1
  O  O348  1  0.48013245  0.99418799  0.36922669  1
  O  O349  1  0.49367245  0.99540636  0.87960461  1
  O  O350  1  0.99380276  0.49248526  0.37583446  1
  O  O351  1  0.99969865  0.49415252  0.88594265  1
  O  O352  1  0.99188194  0.99399539  0.38078716  1
  O  O353  1  0.98802038  0.99977037  0.87757736  1
  O  O354  1  -0.00718915  -0.00051608  0.11148812  1
  O  O355  1  0.00778022  -0.00001483  0.61684925  1
  O  O356  1  0.00176226  0.50142289  0.11189515  1
  O  O357  1  0.00789259  0.50612473  0.62381944  1
  O  O358  1  0.50621572  0.00106042  0.11787231  1
  O  O359  1  0.51079757  0.00900548  0.63245850  1
  O  O360  1  0.50644763  0.50791451  0.12582070  1
  O  O361  1  0.51239312  0.50033049  0.62271774  1
  O  O362  1  0.24480504  0.38087101  0.24425365  1
  O  O363  1  0.24454176  0.38005458  0.74536769  1
  O  O364  1  0.23924478  0.88289946  0.25391497  1
  O  O365  1  0.24514933  0.88005689  0.74588585  1
  O  O366  1  0.74464663  0.37972174  0.24732282  1
  O  O367  1  0.74462126  0.37465835  0.74411206  1
  O  O368  1  0.74250949  0.87647041  0.24016737  1
  O  O369  1  0.74352999  0.87963125  0.74497558  1
  O  O370  1  0.26060225  0.11880814  0.24829370  1
  O  O371  1  0.25521035  0.11918031  0.75500995  1
  O  O372  1  0.25056524  0.61856877  0.25841059  1
  O  O373  1  0.25570946  0.62202927  0.75744752  1
  O  O374  1  0.76327740  0.12752343  0.25091467  1
  O  O375  1  0.75446741  0.11910274  0.75452948  1
  O  O376  1  0.75723137  0.61773537  0.25219124  1
  O  O377  1  0.75820043  0.62565643  0.75751293  1
  O  O378  1  0.37975686  0.11831463  0.36478819  1
  O  O379  1  0.36954287  0.12005568  0.86969643  1
  O  O380  1  0.36990960  0.61631484  0.37438314  1
  O  O381  1  0.36669508  0.62517718  0.86782215  1
  O  O382  1  0.88169462  0.11388079  0.36709200  1
  O  O383  1  0.86886174  0.11570432  0.86847210  1
  O  O384  1  0.87430292  0.61779338  0.36857626  1
  O  O385  1  0.86643311  0.62559758  0.86739774  1
  O  O386  1  0.13328341  0.37750330  0.13108207  1
  O  O387  1  0.13044625  0.37933203  0.63056720  1
  O  O388  1  0.11956801  0.87056149  0.13882543  1
  O  O389  1  0.13090201  0.88113460  0.63037850  1
  O  O390  1  0.62586621  0.38199279  0.13141745  1
  O  O391  1  0.62954565  0.38078205  0.62788732  1
  O  O392  1  0.63172850  0.87925565  0.12951086  1
  O  O393  1  0.62830435  0.88192040  0.62966353  1
  O  O394  1  0.11985793  0.25329171  0.25595067  1
  O  O395  1  0.12048724  0.25491016  0.75499580  1
  O  O396  1  0.12036476  0.75769926  0.25585718  1
  O  O397  1  0.11539300  0.75485670  0.75122874  1
  O  O398  1  0.61922158  0.25451919  0.25080668  1
  O  O399  1  0.61948428  0.25508056  0.74976245  1
  O  O400  1  0.61973551  0.75538622  0.25528574  1
  O  O401  1  0.61963151  0.75558166  0.75629698  1
  O  O402  1  0.37758446  0.24363669  0.24661435  1
  O  O403  1  0.38115694  0.24215447  0.74359840  1
  O  O404  1  0.38013003  0.75234968  0.24239165  1
  O  O405  1  0.37913671  0.74110826  0.75073558  1
  O  O406  1  0.88387509  0.24237386  0.24975894  1
  O  O407  1  0.88143392  0.24290657  0.75007412  1
  O  O408  1  0.87954700  0.74635031  0.24430937  1
  O  O409  1  0.88282513  0.74069201  0.74833040  1
  O  O410  1  0.37765679  0.49832170  0.48802940  1
  O  O411  1  0.37796436  0.49145965  0.99709296  1
  O  O412  1  0.36608474  0.99029724  0.49160363  1
  O  O413  1  0.37855126  0.99496145  0.99597288  1
  O  O414  1  0.87591413  0.49244791  0.49284389  1
  O  O415  1  0.88290304  0.49307214  0.99847025  1
  O  O416  1  0.87990881  0.99560384  0.49332253  1
  O  O417  1  0.88578044  1.00357805  0.99193946  1
  O  O418  1  0.10950490  0.00906728  -0.00442333  1
  O  O419  1  0.12232350  0.00563459  0.50159031  1
  O  O420  1  0.11671349  0.50804131  0.00059534  1
  O  O421  1  0.12448596  0.50699841  0.50595989  1
  O  O422  1  0.61931999  0.00477017  0.00495194  1
  O  O423  1  0.63259697  0.00606780  0.51276467  1
  O  O424  1  0.62271287  0.50721886  0.00726899  1
  O  O425  1  0.62632457  0.50710547  0.50724983  1
  O  O426  1  0.37007783  0.36985902  0.11995500  1
  O  O427  1  0.37045184  0.36815096  0.62515043  1
  O  O428  1  0.38161923  0.86670954  0.11466847  1
  O  O429  1  0.36803150  0.87603021  0.61804876  1
  O  O430  1  0.87405191  0.37198240  0.10992609  1
  O  O431  1  0.86853382  0.37380212  0.61776434  1
  O  O432  1  0.86634929  0.86760958  0.12869295  1
  O  O433  1  0.86765770  0.87448803  0.61774515  1
  O  O434  1  0.11927053  0.13471811  0.38298887  1
  O  O435  1  0.13129973  0.13104383  0.88211077  1
  O  O436  1  0.12999641  0.63141755  0.38050108  1
  O  O437  1  0.13251896  0.62656760  0.88381896  1
  O  O438  1  0.61436112  0.12028043  0.39010577  1
  O  O439  1  0.63149467  0.12505884  0.88132930  1
  O  O440  1  0.62667012  0.62975274  0.38468738  1
  O  O441  1  0.63165342  0.62985256  0.87823574  1
