# generated using pymatgen
data_V93Zn93O256
_symmetry_space_group_name_H-M   'P 1'
_cell_length_a   17.05351657
_cell_length_b   17.05301997
_cell_length_c   17.05381405
_cell_angle_alpha   89.97268308
_cell_angle_beta   89.95745003
_cell_angle_gamma   90.02594318
_symmetry_Int_Tables_number   1
_chemical_formula_structural   V93Zn93O256
_chemical_formula_sum   'V93 Zn93 O256'
_cell_volume   4959.48473647
_cell_formula_units_Z   1
loop_
 _symmetry_equiv_pos_site_id
 _symmetry_equiv_pos_as_xyz
  1  'x, y, z'
loop_
 _atom_site_type_symbol
 _atom_site_label
 _atom_site_symmetry_multiplicity
 _atom_site_fract_x
 _atom_site_fract_y
 _atom_site_fract_z
 _atom_site_occupancy
  V  V0  1  0.24776990  0.37152848  0.12628815  1
  V  V1  1  0.24927591  0.87718122  0.62659576  1
  V  V2  1  0.87558186  0.75225092  0.62657062  1
  V  V3  1  0.12353935  0.12516403  0.49978434  1
  V  V4  1  0.37493728  0.75156237  0.62590584  1
  V  V5  1  0.25056736  0.62443411  0.87561373  1
  V  V6  1  0.12552869  0.75097311  0.37446143  1
  V  V7  1  0.12592222  0.62331369  -0.00062063  1
  V  V8  1  0.00107528  0.75016216  0.25028101  1
  V  V9  1  0.49857547  0.24999999  0.74886117  1
  V  V10  1  0.62452495  0.50086239  0.62586808  1
  V  V11  1  0.49808514  0.49748307  0.49904549  1
  V  V12  1  0.62360502  0.24843478  0.87493599  1
  V  V13  1  0.62552273  0.12559120  0.50035012  1
  V  V14  1  0.00060457  0.87628312  0.37470985  1
  V  V15  1  0.25001648  -0.00188967  0.24963572  1
  V  V16  1  0.62524165  0.12213177  0.00010776  1
  V  V17  1  0.50442033  0.62129928  0.12804601  1
  V  V18  1  0.62450806  0.25741031  0.36995210  1
  V  V19  1  0.25140860  0.25209962  0.49832684  1
  V  V20  1  0.75345160  0.25293618  0.50082379  1
  V  V21  1  0.74980491  0.75053437  0.50058608  1
  V  V22  1  0.87354362  0.25001393  0.12449537  1
  V  V23  1  0.12581923  -0.00110217  0.12462369  1
  V  V24  1  0.50279366  0.25574776  0.24867752  1
  V  V25  1  0.62552037  0.62707921  0.50101697  1
  V  V26  1  0.37579852  0.12483713  0.24982826  1
  V  V27  1  0.87601589  0.74984783  0.12559857  1
  V  V28  1  0.62546260  0.87507448  0.75112226  1
  V  V29  1  0.75011077  0.37495979  0.62410909  1
  V  V30  1  0.12474478  0.62542746  0.50074081  1
  V  V31  1  0.87589389  0.87678342  0.50005016  1
  V  V32  1  0.87434856  0.62497768  0.75184273  1
  V  V33  1  0.12291105  0.50163731  0.62399877  1
  V  V34  1  0.73778826  0.49442848  0.24531622  1
  V  V35  1  0.87565928  0.12651577  0.24969823  1
  V  V36  1  0.62540147  0.87483944  0.25170078  1
  V  V37  1  0.12531488  0.49273876  0.12743990  1
  V  V38  1  0.62484629  0.75185949  0.37676907  1
  V  V39  1  0.12467681  0.24686146  0.87102178  1
  V  V40  1  0.62538052  -0.00183500  0.12551034  1
  V  V41  1  0.25117594  0.49794872  0.24881255  1
  V  V42  1  0.87453669  0.62119249  0.25371204  1
  V  V43  1  0.00106025  0.62409297  0.12476434  1
  V  V44  1  0.75068107  0.87696465  0.62590896  1
  V  V45  1  0.75137321  0.12653403  0.37423365  1
  V  V46  1  0.37440492  0.24752018  0.12456257  1
  V  V47  1  0.37539920  0.87642510  0.50052352  1
  V  V48  1  0.13356890  0.12400692  -0.00584077  1
  V  V49  1  0.37025065  0.00486388  0.87475663  1
  V  V50  1  0.62459440  0.37548479  0.75055719  1
  V  V51  1  0.37354537  0.49927420  0.87469505  1
  V  V52  1  0.62613062  0.74644770  0.87823128  1
  V  V53  1  0.75017563  0.74825361  0.00076939  1
  V  V54  1  0.25714077  0.87308266  0.12256022  1
  V  V55  1  0.25099913  0.62381390  0.37297514  1
  V  V56  1  0.00071761  0.12478254  0.12325833  1
  V  V57  1  0.00222552  0.37979776  0.36776124  1
  V  V58  1  0.87571392  0.00166727  0.37503111  1
  V  V59  1  0.87622122  0.87443125  0.00064985  1
  V  V60  1  0.49373650  0.87316470  0.87995982  1
  V  V61  1  -0.00040077  0.49679324  -0.00361419  1
  V  V62  1  0.87904660  0.13337663  0.75040725  1
  V  V63  1  0.75010626  0.87417391  0.12696445  1
  V  V64  1  0.25070654  0.75021177  0.49918453  1
  V  V65  1  0.49989417  0.74977873  0.75146990  1
  V  V66  1  0.62470651  0.00137171  0.62597806  1
  V  V67  1  0.00008625  0.75029458  0.74998754  1
  V  V68  1  0.49939309  0.62583439  0.62583926  1
  V  V69  1  -0.00040357  0.87505499  0.87583750  1
  V  V70  1  0.74890588  0.25055660  0.00158306  1
  V  V71  1  0.12559433  0.74976718  0.87545778  1
  V  V72  1  0.37514512  -0.00026018  0.37638336  1
  V  V73  1  0.00014287  0.13382117  0.62751291  1
  V  V74  1  0.12519848  0.87637457  0.74988854  1
  V  V75  1  0.49683083  -0.00528429  0.00139199  1
  V  V76  1  0.75030330  0.12487140  0.87520416  1
  V  V77  1  0.12489951  0.25359753  0.36486597  1
  V  V78  1  0.24957463  0.12515964  0.37434167  1
  V  V79  1  0.25771523  0.75243135  0.00123879  1
  V  V80  1  0.50723000  0.49805261  0.00321710  1
  V  V81  1  0.24944914  0.37537121  0.62357213  1
  V  V82  1  0.37381484  0.62479134  0.75127861  1
  V  V83  1  0.87336964  0.37528391  0.00344817  1
  V  V84  1  0.75015374  0.00108472  0.75100254  1
  V  V85  1  0.12465637  0.00146096  0.62533336  1
  V  V86  1  0.37352125  0.37342700  -0.00126022  1
  V  V87  1  0.87488573  -0.00056088  0.87580144  1
  V  V88  1  0.74994027  0.50097245  0.75099729  1
  V  V89  1  0.50032300  0.87580083  0.37597267  1
  V  V90  1  0.49673709  0.12616704  0.62688792  1
  V  V91  1  0.11573325  0.36973049  0.74884001  1
  V  V92  1  0.49728250  0.37379027  0.87410206  1
  Zn  Zn93  1  0.36577381  0.13205289  0.75554723  1
  Zn  Zn94  1  0.24605923  0.00745989  0.75615232  1
  Zn  Zn95  1  0.00377484  0.25604221  0.24439763  1
  Zn  Zn96  1  0.00084553  -0.00109241  -0.00046721  1
  Zn  Zn97  1  -0.00298962  0.50203709  0.49797705  1
  Zn  Zn98  1  0.74930354  0.62317572  0.37546876  1
  Zn  Zn99  1  -0.00043455  0.62622145  0.62292454  1
  Zn  Zn100  1  0.72574640  0.37528880  0.13252715  1
  Zn  Zn101  1  0.37698529  0.74974858  0.12593732  1
  Zn  Zn102  1  0.37430634  0.25113101  0.62555138  1
  Zn  Zn103  1  0.37536528  0.49923567  0.37344456  1
  Zn  Zn104  1  0.87012561  0.49787798  0.37790495  1
  Zn  Zn105  1  0.24843498  0.49898647  0.75149380  1
  Zn  Zn106  1  0.25394161  0.24445567  -0.00802319  1
  Zn  Zn107  1  0.87311261  0.49833784  0.87538895  1
  Zn  Zn108  1  0.74988861  0.62146515  0.87895264  1
  Zn  Zn109  1  0.49852020  0.74957452  0.24891145  1
  Zn  Zn110  1  0.87998131  0.25524541  0.62937586  1
  Zn  Zn111  1  0.87887898  0.37939596  0.50192656  1
  Zn  Zn112  1  0.12569325  0.87412196  0.24917409  1
  Zn  Zn113  1  0.49952403  0.00177517  0.50116990  1
  Zn  Zn114  1  0.37589216  0.37546962  0.49721096  1
  Zn  Zn115  1  -0.00044120  0.00225016  0.50001759  1
  Zn  Zn116  1  0.50006632  0.12268915  0.12584793  1
  Zn  Zn117  1  -0.00410151  0.36771765  0.86894648  1
  Zn  Zn118  1  0.37398689  0.62739116  0.24894365  1
  Zn  Zn119  1  0.63023706  0.61904925  0.00710096  1
  Zn  Zn120  1  0.49893000  0.37787806  0.37068145  1
  Zn  Zn121  1  0.74965914  0.00119297  0.25037099  1
  Zn  Zn122  1  0.18914316  0.18442257  0.18439859  1
  Zn  Zn123  1  0.18684083  0.18756166  0.68920377  1
  Zn  Zn124  1  0.18705882  0.68537647  0.18651861  1
  Zn  Zn125  1  0.18845276  0.68844384  0.68819331  1
  Zn  Zn126  1  0.68725915  0.18706320  0.18652155  1
  Zn  Zn127  1  0.68744972  0.18795515  0.68787598  1
  Zn  Zn128  1  0.68690927  0.68606958  0.19044632  1
  Zn  Zn129  1  0.68855483  0.68795425  0.68836072  1
  Zn  Zn130  1  0.31700696  0.31568434  0.31182428  1
  Zn  Zn131  1  0.30727365  0.31060752  0.80992937  1
  Zn  Zn132  1  0.31477509  0.81145726  0.30948920  1
  Zn  Zn133  1  0.31128864  0.81470702  0.81280441  1
  Zn  Zn134  1  0.81644039  0.31407451  0.31207864  1
  Zn  Zn135  1  0.81088707  0.31496750  0.81590411  1
  Zn  Zn136  1  0.81255002  0.81222519  0.31366904  1
  Zn  Zn137  1  0.81199254  0.81207340  0.81394438  1
  Zn  Zn138  1  0.18323167  0.43796859  0.43572497  1
  Zn  Zn139  1  0.18689564  0.43286541  0.93586349  1
  Zn  Zn140  1  0.18671716  0.93775563  0.43878985  1
  Zn  Zn141  1  0.18642053  0.93567871  0.94123356  1
  Zn  Zn142  1  0.68828226  0.43987921  0.43443654  1
  Zn  Zn143  1  0.68881088  0.43427176  0.93699237  1
  Zn  Zn144  1  0.68859886  0.93978370  0.43830208  1
  Zn  Zn145  1  0.68697309  0.93476172  0.93894138  1
  Zn  Zn146  1  0.31462518  0.05865022  0.06230722  1
  Zn  Zn147  1  0.31043578  0.06305743  0.56426484  1
  Zn  Zn148  1  0.31739681  0.56281666  0.06239787  1
  Zn  Zn149  1  0.31200295  0.56332131  0.56226920  1
  Zn  Zn150  1  0.81230086  0.06077871  0.06261890  1
  Zn  Zn151  1  0.81428099  0.06485925  0.56294040  1
  Zn  Zn152  1  0.81143660  0.56187062  0.06677581  1
  Zn  Zn153  1  0.81350825  0.56286614  0.56271318  1
  Zn  Zn154  1  0.43708007  0.43726830  0.18387102  1
  Zn  Zn155  1  0.43525964  0.43755834  0.68646980  1
  Zn  Zn156  1  0.43802441  0.93608715  0.19010540  1
  Zn  Zn157  1  0.43795792  0.93839601  0.69099986  1
  Zn  Zn158  1  0.93431549  0.43769866  0.18752238  1
  Zn  Zn159  1  0.93591776  0.43962205  0.68421690  1
  Zn  Zn160  1  0.93769986  0.93898204  0.18942133  1
  Zn  Zn161  1  0.93947094  0.94285172  0.68809857  1
  Zn  Zn162  1  0.06281255  0.06338133  0.31071982  1
  Zn  Zn163  1  0.06093569  0.06301934  0.81205052  1
  Zn  Zn164  1  0.06647628  0.56332243  0.31023616  1
  Zn  Zn165  1  0.06298788  0.56102325  0.81011821  1
  Zn  Zn166  1  0.56262136  0.06477968  0.31277320  1
  Zn  Zn167  1  0.55950792  0.06215602  0.81269414  1
  Zn  Zn168  1  0.56380946  0.56432959  0.31499056  1
  Zn  Zn169  1  0.56072519  0.56135372  0.81447560  1
  Zn  Zn170  1  0.43869985  0.18722310  0.43667099  1
  Zn  Zn171  1  0.43899373  0.18460668  0.93966256  1
  Zn  Zn172  1  0.43656554  0.68638932  0.43558345  1
  Zn  Zn173  1  0.43903799  0.68306579  0.94069152  1
  Zn  Zn174  1  0.94027582  0.19039763  0.43687710  1
  Zn  Zn175  1  0.94111029  0.18839815  0.93708500  1
  Zn  Zn176  1  0.93880347  0.68882948  0.43826470  1
  Zn  Zn177  1  0.93794798  0.68687806  0.93710376  1
  Zn  Zn178  1  0.06305779  0.30851961  0.05610674  1
  Zn  Zn179  1  0.06381526  0.31495845  0.55489808  1
  Zn  Zn180  1  0.06628865  0.81245732  0.06265998  1
  Zn  Zn181  1  0.06193213  0.81329567  0.56195630  1
  Zn  Zn182  1  0.56103996  0.30989069  0.06362891  1
  Zn  Zn183  1  0.56578152  0.31198701  0.56165689  1
  Zn  Zn184  1  0.56303502  0.80947632  0.06469942  1
  Zn  Zn185  1  0.56189589  0.81450139  0.56251830  1
  O  O186  1  0.11812396  0.12003561  0.11700453  1
  O  O187  1  0.11668742  0.12182280  0.61997455  1
  O  O188  1  0.12027840  0.61424857  0.11805220  1
  O  O189  1  0.12678225  0.61696547  0.62079361  1
  O  O190  1  0.62440541  0.11610984  0.11760856  1
  O  O191  1  0.61710357  0.12096027  0.62171287  1
  O  O192  1  0.60977315  0.62949991  0.12377450  1
  O  O193  1  0.61873180  0.62115639  0.62182936  1
  O  O194  1  0.37945126  0.38156118  0.38030015  1
  O  O195  1  0.37800337  0.37898479  0.87815196  1
  O  O196  1  0.37965012  0.88035909  0.38109950  1
  O  O197  1  0.38896340  0.88161511  0.87145948  1
  O  O198  1  0.89082696  0.37496136  0.37810534  1
  O  O199  1  0.87809034  0.37646715  0.88741561  1
  O  O200  1  0.88030121  0.88055635  0.38036002  1
  O  O201  1  0.87956097  0.87900017  0.88044870  1
  O  O202  1  0.25475229  0.00535434  0.37021104  1
  O  O203  1  0.26866853  -0.01101072  0.87934424  1
  O  O204  1  0.24480936  0.50383490  0.36306624  1
  O  O205  1  0.25561087  0.50630402  0.87559049  1
  O  O206  1  0.75728715  0.00863257  0.37447516  1
  O  O207  1  0.75449458  0.00461678  0.87090512  1
  O  O208  1  0.75230520  0.50408724  0.36318181  1
  O  O209  1  0.75186928  0.50209433  0.86691670  1
  O  O210  1  0.24367450  0.49294419  0.12831246  1
  O  O211  1  0.24012860  0.49180802  0.62378067  1
  O  O212  1  0.24611178  0.99128197  0.12876611  1
  O  O213  1  0.24203311  0.99204498  0.62431438  1
  O  O214  1  0.75500341  0.49801796  0.14125488  1
  O  O215  1  0.74308662  0.49503015  0.63092804  1
  O  O216  1  0.74356523  0.99173539  0.12569186  1
  O  O217  1  0.74490448  0.99652259  0.63134798  1
  O  O218  1  -0.00304182  0.37390566  0.26212955  1
  O  O219  1  0.01148714  0.38169634  0.74943189  1
  O  O220  1  0.00136778  0.86784375  0.25615793  1
  O  O221  1  0.00450093  0.86974584  0.75583990  1
  O  O222  1  0.49186807  0.35900544  0.24967074  1
  O  O223  1  0.50505573  0.37068247  0.75423817  1
  O  O224  1  0.50786613  0.87400701  0.25806479  1
  O  O225  1  0.50631740  0.86880037  0.75904602  1
  O  O226  1  0.49259563  0.13354021  0.24885999  1
  O  O227  1  0.49984672  0.13156883  0.74104088  1
  O  O228  1  0.49928391  0.62128748  0.23681168  1
  O  O229  1  0.49410529  0.63053034  0.74555048  1
  O  O230  1  0.99549172  0.12723428  0.23719041  1
  O  O231  1  0.98898653  0.12077639  0.74070617  1
  O  O232  1  0.99400525  0.62945895  0.24459406  1
  O  O233  1  0.99117680  0.63129195  0.74875510  1
  O  O234  1  0.37376394  0.25402549  0.00499486  1
  O  O235  1  0.36143739  0.25067832  0.50046086  1
  O  O236  1  0.36018585  0.74472397  -0.00023923  1
  O  O237  1  0.37008546  0.75559592  0.50647448  1
  O  O238  1  0.86966539  0.25645590  0.00381591  1
  O  O239  1  0.86077954  0.25081280  0.50057284  1
  O  O240  1  0.87075027  0.75414817  0.00593878  1
  O  O241  1  0.86991144  0.75639219  0.50672483  1
  O  O242  1  0.13527040  0.24504719  0.48918052  1
  O  O243  1  0.12970775  0.24007357  0.99257955  1
  O  O244  1  0.13174033  0.74571455  0.49526559  1
  O  O245  1  0.13210831  0.74205150  0.99423081  1
  O  O246  1  0.63404893  0.24495243  0.49190645  1
  O  O247  1  0.62835463  0.24146093  0.99289456  1
  O  O248  1  0.63054998  0.74683992  0.49791177  1
  O  O249  1  0.63138090  0.74958408  0.99101248  1
  O  O250  1  0.49186739  0.24423885  0.13219097  1
  O  O251  1  0.50115049  0.24219705  0.62969651  1
  O  O252  1  0.49663242  0.73683650  0.12300978  1
  O  O253  1  0.49495100  0.74598062  0.63155142  1
  O  O254  1  0.99524474  0.24065060  0.12402408  1
  O  O255  1  1.00017543  0.23797146  0.61790683  1
  O  O256  1  0.99632972  0.74399997  0.12940602  1
  O  O257  1  0.99350169  0.75027910  0.63259707  1
  O  O258  1  0.00890972  0.25923373  0.37217900  1
  O  O259  1  0.01617189  0.25293287  0.88094726  1
  O  O260  1  0.00580911  0.75631836  0.36959928  1
  O  O261  1  0.00604485  0.75504375  0.87005312  1
  O  O262  1  0.50813537  0.24959197  0.36733344  1
  O  O263  1  0.50447023  0.25425462  0.86980771  1
  O  O264  1  0.50742840  0.75760318  0.37649082  1
  O  O265  1  0.50601541  0.75541774  0.87326354  1
  O  O266  1  0.24459132  0.13406172  0.49489479  1
  O  O267  1  0.23714405  0.12388525  1.00616281  1
  O  O268  1  0.24482634  0.63117085  0.49440597  1
  O  O269  1  0.24477583  0.63097094  0.99532141  1
  O  O270  1  0.74565438  0.13445096  0.49570367  1
  O  O271  1  0.74568875  0.12987352  0.99400915  1
  O  O272  1  0.74293510  0.63321411  0.50147400  1
  O  O273  1  0.74825180  0.63107751  0.99920211  1
  O  O274  1  0.25633416  0.37525075  0.01084998  1
  O  O275  1  0.24640234  0.36775698  0.50675588  1
  O  O276  1  0.24241532  0.86257633  0.01019848  1
  O  O277  1  0.25573473  0.86895414  0.50580601  1
  O  O278  1  0.76025218  0.36941055  0.00092107  1
  O  O279  1  0.74847791  0.36699103  0.50525847  1
  O  O280  1  0.75626144  0.86797969  0.00648637  1
  O  O281  1  0.75588490  0.87063992  0.50704307  1
  O  O282  1  0.13462653  0.50384849  0.23482231  1
  O  O283  1  0.12805376  0.49275706  0.74037112  1
  O  O284  1  0.13315663  1.00013405  0.24282876  1
  O  O285  1  0.12477546  0.99293558  0.74449366  1
  O  O286  1  0.63956476  0.50498362  0.25329357  1
  O  O287  1  0.62854885  0.49539004  0.74548100  1
  O  O288  1  0.62655975  0.99408724  0.24377656  1
  O  O289  1  0.63043062  0.99470285  0.74665792  1
  O  O290  1  0.36958983  0.00487665  0.25664479  1
  O  O291  1  0.37673560  0.00025797  0.76661176  1
  O  O292  1  0.36116222  0.50207420  0.24834099  1
  O  O293  1  0.37251994  0.50680073  0.75590364  1
  O  O294  1  0.87283977  0.00808835  0.25674873  1
  O  O295  1  0.86857353  0.00933104  0.75619623  1
  O  O296  1  0.87338932  0.51185846  0.25280726  1
  O  O297  1  0.86996984  0.50968513  0.75013567  1
  O  O298  1  0.11376748  0.36518716  0.37777092  1
  O  O299  1  0.12211008  0.36945458  0.86457135  1
  O  O300  1  0.11934195  0.86865166  0.37383932  1
  O  O301  1  0.11956783  0.86949486  0.87034593  1
  O  O302  1  0.62159363  0.36023091  0.37960824  1
  O  O303  1  0.61805077  0.36774855  0.86937631  1
  O  O304  1  0.62049266  0.87177003  0.37228826  1
  O  O305  1  0.61706225  0.86574766  0.87066253  1
  O  O306  1  0.37503772  0.12921673  0.13182068  1
  O  O307  1  0.38872383  0.12649842  0.62369079  1
  O  O308  1  0.38781082  0.62695180  0.12579870  1
  O  O309  1  0.37933444  0.63217170  0.63095046  1
  O  O310  1  0.88242306  0.12930315  0.12742039  1
  O  O311  1  0.88207322  0.12780115  0.63361564  1
  O  O312  1  0.88198756  0.63063599  0.13379280  1
  O  O313  1  0.87548175  0.63277470  0.63658175  1
  O  O314  1  0.25505146  0.25827028  0.12424027  1
  O  O315  1  0.24658170  0.25961584  0.61344089  1
  O  O316  1  0.24875183  0.75584818  0.11735125  1
  O  O317  1  0.25565476  0.75643826  0.61968479  1
  O  O318  1  0.75590231  0.25227889  0.11830891  1
  O  O319  1  0.74739365  0.25599055  0.61508138  1
  O  O320  1  0.75602893  0.75434587  0.12078747  1
  O  O321  1  0.75524396  0.75804985  0.62146813  1
  O  O322  1  0.24428113  0.24680565  0.37959936  1
  O  O323  1  0.23336228  0.25513625  0.87679493  1
  O  O324  1  0.24519311  0.74502312  0.38029138  1
  O  O325  1  0.24497971  0.74597597  0.88233858  1
  O  O326  1  0.74370107  0.24699682  0.38093524  1
  O  O327  1  0.74289618  0.24435051  0.88144749  1
  O  O328  1  0.74341879  0.74964279  0.38357512  1
  O  O329  1  0.74044291  0.75012250  0.88105900  1
  O  O330  1  0.00737692  0.12278629  0.01122405  1
  O  O331  1  0.00535356  0.12446435  0.50786895  1
  O  O332  1  0.00415408  0.61631167  0.00510110  1
  O  O333  1  0.00966455  0.62468336  0.50276956  1
  O  O334  1  0.50779658  0.11186858  0.00101755  1
  O  O335  1  0.50683505  0.12549910  0.50978524  1
  O  O336  1  0.50201715  0.61510097  0.00903200  1
  O  O337  1  0.50523246  0.61832858  0.50697610  1
  O  O338  1  0.50050896  0.38747688  0.50310943  1
  O  O339  1  0.49206275  0.37989932  0.99225417  1
  O  O340  1  0.49291982  0.87831728  0.49535685  1
  O  O341  1  0.50783469  0.88368388  0.99105275  1
  O  O342  1  0.99907187  0.37838599  0.48649976  1
  O  O343  1  0.99187830  0.38329607  0.99980071  1
  O  O344  1  0.99303048  0.87682297  0.49320451  1
  O  O345  1  0.99406599  0.87416307  0.99393561  1
  O  O346  1  0.50159605  0.49929253  0.38698754  1
  O  O347  1  0.49259388  0.49353421  0.88086834  1
  O  O348  1  0.49321352  0.99497930  0.37772246  1
  O  O349  1  0.49520055  0.99084857  0.88201635  1
  O  O350  1  1.00590909  0.48726565  0.37323101  1
  O  O351  1  0.99969042  0.49921251  0.88850132  1
  O  O352  1  0.99404954  0.99490312  0.37583222  1
  O  O353  1  0.99217923  0.99223365  0.87612010  1
  O  O354  1  0.00584947  0.00889516  0.12390269  1
  O  O355  1  0.00638729  0.01181400  0.62238629  1
  O  O356  1  0.00744395  0.50255404  0.11705813  1
  O  O357  1  0.01330063  0.50285478  0.62261608  1
  O  O358  1  0.50496418  -0.00251515  0.11586823  1
  O  O359  1  0.50631362  0.00905291  0.62637081  1
  O  O360  1  0.49393146  0.51051104  0.11454360  1
  O  O361  1  0.50509167  0.50635435  0.61964121  1
  O  O362  1  0.25481569  0.38311606  0.23521166  1
  O  O363  1  0.23943937  0.37655155  0.73688976  1
  O  O364  1  0.24726794  0.88033832  0.24136860  1
  O  O365  1  0.24277456  0.87780904  0.74399114  1
  O  O366  1  0.75736389  0.39055198  0.25024341  1
  O  O367  1  0.74384238  0.38036984  0.74548618  1
  O  O368  1  0.74417230  0.87619934  0.24417417  1
  O  O369  1  0.74560213  0.88097434  0.74566396  1
  O  O370  1  0.25601182  0.11839210  0.25504862  1
  O  O371  1  0.25535207  0.11847571  0.74062005  1
  O  O372  1  0.24916836  0.61452826  0.25418754  1
  O  O373  1  0.25647826  0.62514013  0.75775721  1
  O  O374  1  0.75784148  0.12496913  0.25651795  1
  O  O375  1  0.75666547  0.12000448  0.75570867  1
  O  O376  1  0.75968536  0.61651737  0.25000810  1
  O  O377  1  0.75886318  0.62039171  0.75119081  1
  O  O378  1  0.36841218  0.11990850  0.37058421  1
  O  O379  1  0.38178200  0.10856992  0.87428716  1
  O  O380  1  0.36587281  0.61971948  0.37299771  1
  O  O381  1  0.37065096  0.61953635  0.87021803  1
  O  O382  1  0.87180409  0.12238913  0.36986502  1
  O  O383  1  0.87080761  0.12082957  0.86930998  1
  O  O384  1  0.87468533  0.62686420  0.36329947  1
  O  O385  1  0.87327771  0.62437822  0.86301316  1
  O  O386  1  0.13364601  0.38326693  0.11577278  1
  O  O387  1  0.13027283  0.38143800  0.62859381  1
  O  O388  1  0.13400324  0.88122424  0.12697003  1
  O  O389  1  0.12903028  0.88032889  0.63010086  1
  O  O390  1  0.61778486  0.38145788  0.11992749  1
  O  O391  1  0.62994643  0.38134021  0.63194778  1
  O  O392  1  0.63050171  0.87833997  0.13109324  1
  O  O393  1  0.63042468  0.88047026  0.63174374  1
  O  O394  1  0.12551584  0.24354290  0.26160716  1
  O  O395  1  0.12718339  0.26049184  0.75562501  1
  O  O396  1  0.11831512  0.74884898  0.25642390  1
  O  O397  1  0.12018982  0.75567354  0.75584976  1
  O  O398  1  0.61499180  0.24142773  0.25916241  1
  O  O399  1  0.61977450  0.25573648  0.75592297  1
  O  O400  1  0.62289320  0.75680772  0.25854614  1
  O  O401  1  0.61999127  0.75499726  0.75827027  1
  O  O402  1  0.38133753  0.24310509  0.24513263  1
  O  O403  1  0.38303550  0.25028456  0.74652576  1
  O  O404  1  0.38091496  0.74549333  0.24605569  1
  O  O405  1  0.38062796  0.74563479  0.74599722  1
  O  O406  1  0.87773475  0.24350600  0.24171177  1
  O  O407  1  0.86750492  0.23696179  0.75066910  1
  O  O408  1  0.88039301  0.74185188  0.24498313  1
  O  O409  1  0.87924739  0.74412839  0.74641166  1
  O  O410  1  0.38756850  0.50114922  0.50150488  1
  O  O411  1  0.38405821  0.49322551  0.99349036  1
  O  O412  1  0.37474945  0.99406752  0.49394821  1
  O  O413  1  0.38761795  1.00256458  0.98957851  1
  O  O414  1  0.87880082  0.49937953  0.49535796  1
  O  O415  1  0.88327705  0.49273486  1.00233228  1
  O  O416  1  0.87562654  0.99439876  0.49370404  1
  O  O417  1  0.87607513  0.99236646  0.99340853  1
  O  O418  1  0.12241818  0.00746379  0.00515959  1
  O  O419  1  0.12397432  0.00807872  0.50627997  1
  O  O420  1  0.11784953  0.50290840  0.00694963  1
  O  O421  1  0.12545401  0.50728545  0.50925076  1
  O  O422  1  0.61762657  0.00248752  0.00429284  1
  O  O423  1  0.62491857  0.00759931  0.50839104  1
  O  O424  1  0.61024100  0.50142080  -0.01199001  1
  O  O425  1  0.61814977  0.50632305  0.50650551  1
  O  O426  1  0.36700492  0.36798509  0.11787387  1
  O  O427  1  0.36116305  0.37457595  0.62142316  1
  O  O428  1  0.36068679  0.87448594  0.12764829  1
  O  O429  1  0.37090797  0.87060017  0.62163373  1
  O  O430  1  0.87783598  0.36801088  0.11343659  1
  O  O431  1  0.86675291  0.37177013  0.62329436  1
  O  O432  1  0.87097728  0.86915273  0.12091679  1
  O  O433  1  0.87009317  0.87254521  0.62159973  1
  O  O434  1  0.13022364  0.13250937  0.37967626  1
  O  O435  1  0.11779986  0.13047786  0.88506259  1
  O  O436  1  0.13110995  0.63131802  0.38046626  1
  O  O437  1  0.13030949  0.62989431  0.87912571  1
  O  O438  1  0.63152733  0.13317914  0.38105723  1
  O  O439  1  0.63054945  0.12839847  0.87911802  1
  O  O440  1  0.62587888  0.63454227  0.38423269  1
  O  O441  1  0.62401670  0.63845421  0.87563134  1
