# generated using pymatgen
data_V93Zn93O256
_symmetry_space_group_name_H-M   'P 1'
_cell_length_a   17.07556012
_cell_length_b   17.06492364
_cell_length_c   17.07351761
_cell_angle_alpha   89.93243336
_cell_angle_beta   90.01126961
_cell_angle_gamma   90.03723560
_symmetry_Int_Tables_number   1
_chemical_formula_structural   V93Zn93O256
_chemical_formula_sum   'V93 Zn93 O256'
_cell_volume   4975.10112530
_cell_formula_units_Z   1
loop_
 _symmetry_equiv_pos_site_id
 _symmetry_equiv_pos_as_xyz
  1  'x, y, z'
loop_
 _atom_site_type_symbol
 _atom_site_label
 _atom_site_symmetry_multiplicity
 _atom_site_fract_x
 _atom_site_fract_y
 _atom_site_fract_z
 _atom_site_occupancy
  V  V0  1  0.24982955  0.37716098  0.12528423  1
  V  V1  1  0.50580177  0.87347338  0.37336093  1
  V  V2  1  0.87437842  0.50091551  0.37475525  1
  V  V3  1  0.24501977  0.87926116  0.12072751  1
  V  V4  1  0.49918795  0.87481795  0.87440665  1
  V  V5  1  0.87456444  0.37529177  0.00125125  1
  V  V6  1  0.50168014  0.62389047  0.62653888  1
  V  V7  1  0.49822948  0.63571012  0.13231037  1
  V  V8  1  0.87469882  0.12427807  0.75083384  1
  V  V9  1  0.50021039  0.49837846  0.49983074  1
  V  V10  1  0.74943440  0.74706216  0.49863303  1
  V  V11  1  0.87337329  0.25104205  0.12520144  1
  V  V12  1  0.49915689  0.37704984  0.37611219  1
  V  V13  1  0.87489951  0.37445896  0.50067013  1
  V  V14  1  0.12672962  0.49784988  0.62809576  1
  V  V15  1  0.87283721  0.12391760  0.25178790  1
  V  V16  1  0.75043782  0.37550533  0.12504855  1
  V  V17  1  -0.00194172  0.62574993  0.12401643  1
  V  V18  1  0.00687013  0.24911195  0.75491734  1
  V  V19  1  0.37672989  0.75032535  0.62476007  1
  V  V20  1  0.12641829  0.50121486  0.12603083  1
  V  V21  1  0.24619592  0.00067192  0.24699050  1
  V  V22  1  0.37321342  0.87366063  0.00309428  1
  V  V23  1  0.50008570  0.50161352  0.00014002  1
  V  V24  1  0.00121713  0.87483262  0.37378746  1
  V  V25  1  0.37630082  0.37564626  0.49941086  1
  V  V26  1  0.87535023  0.62233830  0.75090192  1
  V  V27  1  0.24983641  0.12667081  0.37407589  1
  V  V28  1  0.87469966  0.49889357  0.87391896  1
  V  V29  1  -0.00246623  0.87540606  0.87676532  1
  V  V30  1  0.87692083  0.87447081  0.49963453  1
  V  V31  1  0.25130841  0.74444902  0.49822315  1
  V  V32  1  0.87395885  -0.00520306  0.87853312  1
  V  V33  1  0.24984241  0.75279758  -0.00256750  1
  V  V34  1  -0.00026663  0.49970883  -0.00016906  1
  V  V35  1  0.24343556  0.13024791  0.87517500  1
  V  V36  1  0.62468877  0.37482097  0.25090994  1
  V  V37  1  0.12537398  0.87569199  0.74890913  1
  V  V38  1  0.62448491  0.24942381  0.37571095  1
  V  V39  1  0.00001757  0.12477763  0.62523909  1
  V  V40  1  0.49639292  0.12480732  0.62827806  1
  V  V41  1  0.00087372  -0.00043018  0.49995334  1
  V  V42  1  0.87601164  0.74873449  0.62498821  1
  V  V43  1  0.12541461  0.25214705  0.37489811  1
  V  V44  1  0.49980782  0.00163345  -0.00058624  1
  V  V45  1  0.12443903  0.75062559  0.87306192  1
  V  V46  1  0.62427107  0.12500870  0.50085995  1
  V  V47  1  0.12709761  0.37950045  0.25050404  1
  V  V48  1  0.49611064  0.24599810  0.75064850  1
  V  V49  1  0.87526789  0.62921198  0.24714988  1
  V  V50  1  0.62311178  0.49860591  0.12537125  1
  V  V51  1  0.75068025  0.24991140  0.50160432  1
  V  V52  1  0.24960884  0.37455711  0.62501192  1
  V  V53  1  0.12763171  0.62382331  0.49773458  1
  V  V54  1  0.75001545  0.12404167  0.37560482  1
  V  V55  1  0.37511811  0.00650047  0.87071823  1
  V  V56  1  0.37255646  0.25100718  0.12371549  1
  V  V57  1  0.25080995  0.62541933  0.87319068  1
  V  V58  1  0.74861695  0.87591510  0.62719847  1
  V  V59  1  0.37520748  0.24834125  0.62614582  1
  V  V60  1  0.62642884  0.49931323  0.62581364  1
  V  V61  1  0.62674120  0.37372739  0.75099154  1
  V  V62  1  0.25065778  0.25061790  0.49964764  1
  V  V63  1  0.49935687  0.37445365  0.87573612  1
  V  V64  1  0.50044943  0.00162755  0.50222042  1
  V  V65  1  0.37461669  0.00028802  0.37613240  1
  V  V66  1  0.37522406  0.87463676  0.49831878  1
  V  V67  1  0.12495660  0.62595238  -0.00104785  1
  V  V68  1  0.62587045  0.74835331  0.87579261  1
  V  V69  1  0.62516453  -0.00084692  0.12664676  1
  V  V70  1  -0.00282066  -0.00321697  0.00121558  1
  V  V71  1  0.25363716  0.00368945  0.74889831  1
  V  V72  1  0.49979520  0.12555147  0.12345341  1
  V  V73  1  0.00102579  0.12637521  0.12491110  1
  V  V74  1  0.75690486  0.75654480  0.00248244  1
  V  V75  1  0.00736473  0.36939490  0.87662855  1
  V  V76  1  0.74991673  0.50012683  0.25002479  1
  V  V77  1  0.49897427  0.25049079  0.25034260  1
  V  V78  1  0.87514076  0.24945705  0.62514983  1
  V  V79  1  0.00082778  0.37548958  0.37539133  1
  V  V80  1  0.37427949  0.62489643  0.75109375  1
  V  V81  1  0.00084341  0.75013001  0.74942759  1
  V  V82  1  0.62505448  0.12610107  -0.00116124  1
  V  V83  1  0.62460436  0.75070529  0.36857170  1
  V  V84  1  0.12699181  0.74681419  0.37513716  1
  V  V85  1  0.00111581  0.62463533  0.62512144  1
  V  V86  1  0.50099820  0.75066163  0.75050025  1
  V  V87  1  0.37442214  0.37376645  0.00057992  1
  V  V88  1  0.37488167  0.12354823  0.24821645  1
  V  V89  1  0.74963522  0.12611663  0.87572917  1
  V  V90  1  0.12563765  -0.00054900  0.62453036  1
  V  V91  1  0.12536211  0.12504939  0.49926122  1
  V  V92  1  -0.00011685  0.49989251  0.50114424  1
  Zn  Zn93  1  0.62420293  0.87075528  0.24358243  1
  Zn  Zn94  1  0.12980250  0.36979336  0.75525637  1
  Zn  Zn95  1  0.74809114  0.62491511  0.37324652  1
  Zn  Zn96  1  0.12373516  0.00484407  0.12111690  1
  Zn  Zn97  1  0.75860417  0.88101455  0.12560857  1
  Zn  Zn98  1  0.34248224  0.70991464  0.16323373  1
  Zn  Zn99  1  0.87330174  -0.00105950  0.37513696  1
  Zn  Zn100  1  0.62745475  0.62484727  0.00038380  1
  Zn  Zn101  1  0.75238970  0.37467484  0.62720719  1
  Zn  Zn102  1  0.12485056  0.87576728  0.24835301  1
  Zn  Zn103  1  0.62668554  0.62275528  0.49782809  1
  Zn  Zn104  1  0.75101500  0.50007961  0.75173264  1
  Zn  Zn105  1  0.25268160  0.49749672  0.75156972  1
  Zn  Zn106  1  0.62448269  0.24918204  0.87613529  1
  Zn  Zn107  1  0.24172231  0.25398866  -0.00440683  1
  Zn  Zn108  1  0.74849517  -0.00089113  0.74995533  1
  Zn  Zn109  1  0.74698316  -0.00387557  0.25307655  1
  Zn  Zn110  1  0.88289353  0.76237621  0.11748336  1
  Zn  Zn111  1  0.36547352  0.51935406  0.37340300  1
  Zn  Zn112  1  0.62482086  0.87646385  0.74945178  1
  Zn  Zn113  1  0.74751074  0.25170647  0.00031940  1
  Zn  Zn114  1  0.75008641  0.62292997  0.87622591  1
  Zn  Zn115  1  -0.00018779  0.25078575  0.25065583  1
  Zn  Zn116  1  0.37356738  0.49965950  0.87325538  1
  Zn  Zn117  1  0.62559860  0.00021464  0.62768262  1
  Zn  Zn118  1  0.11733413  0.13444914  -0.00771401  1
  Zn  Zn119  1  0.25858431  0.52707045  0.25554552  1
  Zn  Zn120  1  0.25043267  0.87587431  0.62433665  1
  Zn  Zn121  1  -0.00057633  0.75344191  0.24694948  1
  Zn  Zn122  1  0.18616725  0.19325711  0.18712015  1
  Zn  Zn123  1  0.18898290  0.18496567  0.68763053  1
  Zn  Zn124  1  0.17761200  0.69241346  0.18595827  1
  Zn  Zn125  1  0.19001756  0.68724794  0.68527621  1
  Zn  Zn126  1  0.68775777  0.18717490  0.18751240  1
  Zn  Zn127  1  0.68605377  0.18690179  0.68808299  1
  Zn  Zn128  1  0.68612994  0.68460080  0.18410829  1
  Zn  Zn129  1  0.68902719  0.68659930  0.69037507  1
  Zn  Zn130  1  0.31646881  0.32468055  0.30858403  1
  Zn  Zn131  1  0.31518442  0.31422031  0.81092662  1
  Zn  Zn132  1  0.32048017  0.70304891  0.31815669  1
  Zn  Zn133  1  0.31332950  0.81527911  0.81249273  1
  Zn  Zn134  1  0.81242315  0.31138467  0.31303410  1
  Zn  Zn135  1  0.81611275  0.31122921  0.81348090  1
  Zn  Zn136  1  0.80996357  0.81551164  0.30896144  1
  Zn  Zn137  1  0.81249690  0.81007962  0.81283431  1
  Zn  Zn138  1  0.19234449  0.44126229  0.43472808  1
  Zn  Zn139  1  0.18894072  0.44021443  0.93936530  1
  Zn  Zn140  1  0.18888346  0.93508777  0.43608616  1
  Zn  Zn141  1  0.18222492  0.94392480  0.93571577  1
  Zn  Zn142  1  0.68848149  0.43623520  0.43772220  1
  Zn  Zn143  1  0.68772076  0.43734964  0.93722978  1
  Zn  Zn144  1  0.68804571  0.93866283  0.44004491  1
  Zn  Zn145  1  0.68663076  0.93642713  0.93812394  1
  Zn  Zn146  1  0.31362929  0.06354899  0.05849584  1
  Zn  Zn147  1  0.31321809  0.06357789  0.56279146  1
  Zn  Zn148  1  0.31241131  0.55949875  0.06119964  1
  Zn  Zn149  1  0.31494192  0.56138902  0.56177430  1
  Zn  Zn150  1  0.81260366  0.06256584  0.06165421  1
  Zn  Zn151  1  0.81382936  0.06138972  0.56119215  1
  Zn  Zn152  1  0.81041932  0.56622158  0.06032242  1
  Zn  Zn153  1  0.81219584  0.56137595  0.56462849  1
  Zn  Zn154  1  0.43493575  0.44375011  0.18929098  1
  Zn  Zn155  1  0.43771065  0.43645161  0.68804535  1
  Zn  Zn156  1  0.39749711  0.88136527  0.22400601  1
  Zn  Zn157  1  0.43793469  0.93682580  0.68739034  1
  Zn  Zn158  1  0.93848425  0.43966229  0.18778787  1
  Zn  Zn159  1  0.93960818  0.43469634  0.68960998  1
  Zn  Zn160  1  0.93497698  0.93854161  0.18813248  1
  Zn  Zn161  1  0.93578206  0.93757505  0.68928911  1
  Zn  Zn162  1  0.06105831  0.06344673  0.31243013  1
  Zn  Zn163  1  0.06249759  0.06071729  0.81135503  1
  Zn  Zn164  1  0.06177542  0.56271940  0.31208560  1
  Zn  Zn165  1  0.06165991  0.56087147  0.81327571  1
  Zn  Zn166  1  0.56091392  0.06108100  0.31181174  1
  Zn  Zn167  1  0.56571252  0.05977553  0.81050715  1
  Zn  Zn168  1  0.55852991  0.56581497  0.31371014  1
  Zn  Zn169  1  0.56135864  0.56254718  0.81286719  1
  Zn  Zn170  1  0.43676367  0.18896096  0.43787984  1
  Zn  Zn171  1  0.43435384  0.18880354  0.93678990  1
  Zn  Zn172  1  0.44668398  0.68769515  0.44194002  1
  Zn  Zn173  1  0.43750031  0.68659025  0.93990981  1
  Zn  Zn174  1  0.93814310  0.18848232  0.43702434  1
  Zn  Zn175  1  0.93390448  0.18763229  0.93920821  1
  Zn  Zn176  1  0.93865806  0.68657318  0.43582151  1
  Zn  Zn177  1  0.93728736  0.68596807  0.93556262  1
  Zn  Zn178  1  0.06385342  0.31003269  0.06259688  1
  Zn  Zn179  1  0.06210133  0.31222687  0.56368562  1
  Zn  Zn180  1  0.06190057  0.81387970  0.06066971  1
  Zn  Zn181  1  0.06416787  0.81270417  0.56174780  1
  Zn  Zn182  1  0.56246358  0.31190853  0.06225798  1
  Zn  Zn183  1  0.56320185  0.31200730  0.56381091  1
  Zn  Zn184  1  0.56524201  0.81489846  0.05867129  1
  Zn  Zn185  1  0.56483383  0.81150893  0.56050736  1
  O  O186  1  0.10864858  0.12651697  0.12971830  1
  O  O187  1  0.11975747  0.11900177  0.61852296  1
  O  O188  1  0.11749281  0.62082627  0.11750771  1
  O  O189  1  0.12046611  0.61714162  0.61930156  1
  O  O190  1  0.61967945  0.12129941  0.11840994  1
  O  O191  1  0.61353236  0.12595507  0.61857263  1
  O  O192  1  0.61437414  0.61584266  0.12183737  1
  O  O193  1  0.62079219  0.61358849  0.62798571  1
  O  O194  1  0.38564264  0.36613598  0.38779494  1
  O  O195  1  0.38189337  0.37671433  0.88196480  1
  O  O196  1  0.38787109  0.88191485  0.38995396  1
  O  O197  1  0.37814480  0.88546928  0.88308350  1
  O  O198  1  0.88070965  0.38042050  0.38004594  1
  O  O199  1  0.88430864  0.37964285  0.88093785  1
  O  O200  1  0.88584572  0.87446693  0.38057032  1
  O  O201  1  0.88109943  0.88721736  0.86745443  1
  O  O202  1  0.25341931  0.00625113  0.36777429  1
  O  O203  1  0.25624062  0.00703656  0.86709622  1
  O  O204  1  0.24832052  0.51145496  0.37241603  1
  O  O205  1  0.25159305  0.50942158  0.87233326  1
  O  O206  1  0.75278050  0.00903497  0.37557354  1
  O  O207  1  0.75837874  0.00746198  0.87611710  1
  O  O208  1  0.75636439  0.50112506  0.36879584  1
  O  O209  1  0.75917762  0.50064939  0.87268876  1
  O  O210  1  0.24216555  0.49456589  0.12630125  1
  O  O211  1  0.24088103  0.49399914  0.62434300  1
  O  O212  1  0.24604054  0.99927822  0.12891024  1
  O  O213  1  0.24569023  1.00061895  0.63302345  1
  O  O214  1  0.74383077  0.49474877  0.13007045  1
  O  O215  1  0.73912476  0.49661076  0.62843496  1
  O  O216  1  0.73619724  1.00313237  0.12284654  1
  O  O217  1  0.75158149  0.98757653  0.62466151  1
  O  O218  1  0.01060092  0.37653562  0.25596855  1
  O  O219  1  0.00175471  0.36512225  0.75956611  1
  O  O220  1  0.00305139  0.87653110  0.26243261  1
  O  O221  1  0.00553212  0.86940566  0.75516260  1
  O  O222  1  0.50696898  0.36872843  0.25535248  1
  O  O223  1  0.50839258  0.36709168  0.75438175  1
  O  O224  1  0.50405852  0.88333936  0.27087798  1
  O  O225  1  0.49931421  0.86730888  0.75665048  1
  O  O226  1  0.49272593  0.13070860  0.24503406  1
  O  O227  1  0.50783066  0.13537892  0.74060343  1
  O  O228  1  0.50069792  0.61864160  0.23051748  1
  O  O229  1  0.49432608  0.63133934  0.74532300  1
  O  O230  1  0.98993186  0.12564138  0.24299785  1
  O  O231  1  0.99523843  0.13076173  0.74592453  1
  O  O232  1  0.99034772  0.62478097  0.24297914  1
  O  O233  1  0.99630382  0.63096791  0.74414956  1
  O  O234  1  0.37130398  0.25660750  0.00628226  1
  O  O235  1  0.36913746  0.25431230  0.50716220  1
  O  O236  1  0.36719737  0.76562779  -0.00845083  1
  O  O237  1  0.36944893  0.75720715  0.50496477  1
  O  O238  1  0.87178860  0.25769191  0.00769963  1
  O  O239  1  0.87082854  0.25459881  0.50558143  1
  O  O240  1  0.86043018  0.74501016  -0.00271268  1
  O  O241  1  0.86858094  0.75378972  0.50481304  1
  O  O242  1  0.13076117  0.24464163  0.49559062  1
  O  O243  1  0.12932131  0.24581547  1.00131623  1
  O  O244  1  0.13265213  0.74518243  0.49605242  1
  O  O245  1  0.12950760  0.74539939  0.99146029  1
  O  O246  1  0.63026393  0.24510970  0.49532154  1
  O  O247  1  0.62694620  0.24267733  0.99649897  1
  O  O248  1  0.63724230  0.74783665  0.49445913  1
  O  O249  1  0.63259376  0.74877629  0.98826212  1
  O  O250  1  0.49369497  0.24494113  0.13077919  1
  O  O251  1  0.49583472  0.24327575  0.63124854  1
  O  O252  1  0.50973494  0.73477253  0.11890898  1
  O  O253  1  0.49641929  0.74457772  0.62946356  1
  O  O254  1  0.99093148  0.24164834  0.12733607  1
  O  O255  1  0.99453276  0.24384599  0.63224680  1
  O  O256  1  1.00039379  0.74223237  0.12574108  1
  O  O257  1  0.99597301  0.74477289  0.62928027  1
  O  O258  1  0.00746865  0.25777442  0.37505235  1
  O  O259  1  -0.00771616  0.25763616  0.86634224  1
  O  O260  1  0.00818643  0.76076743  0.37765637  1
  O  O261  1  0.00519367  0.75522550  0.86936587  1
  O  O262  1  0.50626681  0.25443166  0.36995603  1
  O  O263  1  0.50021924  0.25389340  0.86547945  1
  O  O264  1  0.51594179  0.76320707  0.38963032  1
  O  O265  1  0.50706077  0.75463550  0.87125477  1
  O  O266  1  0.24502862  0.13026229  0.49402508  1
  O  O267  1  0.24847026  0.12335875  0.98321062  1
  O  O268  1  0.24482638  0.63793994  0.50845947  1
  O  O269  1  0.24419273  0.63206336  0.99448004  1
  O  O270  1  0.74519596  0.13085822  0.49590820  1
  O  O271  1  0.74506564  0.12649530  0.98983024  1
  O  O272  1  0.75109907  0.63639053  0.49949777  1
  O  O273  1  0.74511626  0.63568253  0.99529561  1
  O  O274  1  0.25678824  0.37584334  0.00626534  1
  O  O275  1  0.25528810  0.36859941  0.50574571  1
  O  O276  1  0.25351991  0.87565213  0.00212355  1
  O  O277  1  0.26013064  0.86703215  0.50070788  1
  O  O278  1  0.75658358  0.37472119  0.00733919  1
  O  O279  1  0.75743290  0.36730301  0.50184279  1
  O  O280  1  0.74596723  0.85973252  0.00016314  1
  O  O281  1  0.75670696  0.86609330  0.50760561  1
  O  O282  1  0.12578942  0.49356856  0.24408130  1
  O  O283  1  0.12490843  0.49865904  0.73651877  1
  O  O284  1  0.13629643  1.00051128  0.24932917  1
  O  O285  1  0.13241837  0.99480166  0.74398467  1
  O  O286  1  0.63024339  0.49362290  0.24573860  1
  O  O287  1  0.62298201  0.48997040  0.74256248  1
  O  O288  1  0.62485374  1.00250608  0.23733749  1
  O  O289  1  0.63065925  0.99367580  0.74520422  1
  O  O290  1  0.36264375  0.00156399  0.25703151  1
  O  O291  1  0.36505263  -0.00806078  0.75927654  1
  O  O292  1  0.36191704  0.47448024  0.26472484  1
  O  O293  1  0.37466887  0.50864597  0.75148828  1
  O  O294  1  0.87209758  0.01468493  0.25299424  1
  O  O295  1  0.87446306  0.00705859  0.76055377  1
  O  O296  1  0.87007166  0.50770355  0.25459229  1
  O  O297  1  0.87605819  0.50417479  0.75541580  1
  O  O298  1  0.12037934  0.37205280  0.36896085  1
  O  O299  1  0.11086615  0.38138217  0.87500672  1
  O  O300  1  0.11661532  0.86572051  0.37749519  1
  O  O301  1  0.11856303  0.87050002  0.86823276  1
  O  O302  1  0.62001349  0.36832151  0.37019783  1
  O  O303  1  0.61893589  0.37302666  0.86586388  1
  O  O304  1  0.62001619  0.86869782  0.37833733  1
  O  O305  1  0.61736758  0.86558729  0.87423335  1
  O  O306  1  0.37965588  0.12977020  0.12913363  1
  O  O307  1  0.38851581  0.13159347  0.61917987  1
  O  O308  1  0.39282586  0.62601772  0.10914705  1
  O  O309  1  0.38193228  0.63119975  0.63043935  1
  O  O310  1  0.88071779  0.12977864  0.13263643  1
  O  O311  1  0.88137076  0.12915671  0.63013340  1
  O  O312  1  0.88068153  0.62560007  0.13337363  1
  O  O313  1  0.88224678  0.62919373  0.63005544  1
  O  O314  1  0.25722049  0.25792317  0.12411634  1
  O  O315  1  0.25481872  0.25304311  0.61989943  1
  O  O316  1  0.24468991  0.76380569  0.11320419  1
  O  O317  1  0.25717018  0.75461408  0.61629630  1
  O  O318  1  0.75587748  0.25790692  0.12490721  1
  O  O319  1  0.75713975  0.24989064  0.61943913  1
  O  O320  1  0.74665478  0.74893779  0.10833127  1
  O  O321  1  0.75584735  0.75571729  0.61752146  1
  O  O322  1  0.24513611  0.24579492  0.38014676  1
  O  O323  1  0.25945457  0.23171340  0.86949229  1
  O  O324  1  0.23762910  0.75217628  0.38886640  1
  O  O325  1  0.24295272  0.74647044  0.87799894  1
  O  O326  1  0.74382433  0.24462561  0.38158624  1
  O  O327  1  0.75046370  0.23692104  0.87608690  1
  O  O328  1  0.74415754  0.75084196  0.38563139  1
  O  O329  1  0.74252336  0.74988393  0.88314679  1
  O  O330  1  -0.00403664  0.11823595  0.00967834  1
  O  O331  1  0.00606013  0.12024981  0.50510265  1
  O  O332  1  0.00561007  0.61955322  0.00350682  1
  O  O333  1  0.00554102  0.61936858  0.50661706  1
  O  O334  1  0.50435642  0.12146979  0.00288546  1
  O  O335  1  0.50453827  0.12182703  0.50774603  1
  O  O336  1  0.50458332  0.61360552  0.00328393  1
  O  O337  1  0.50629295  0.61668742  0.51149615  1
  O  O338  1  0.49632176  0.37874813  0.49690213  1
  O  O339  1  0.49521957  0.38167457  0.99594127  1
  O  O340  1  0.49428755  0.88207943  0.49752185  1
  O  O341  1  0.49042605  0.88087245  0.99441682  1
  O  O342  1  0.99455090  0.38022493  0.49526630  1
  O  O343  1  0.99448848  0.37971226  0.99423877  1
  O  O344  1  0.99647380  0.87950810  0.49346052  1
  O  O345  1  1.00563207  0.88785171  0.99175782  1
  O  O346  1  0.50408871  0.49175236  0.38444490  1
  O  O347  1  0.50000280  0.49386244  0.88495507  1
  O  O348  1  0.49534304  0.99594697  0.38428381  1
  O  O349  1  0.49271930  0.99644164  0.87817800  1
  O  O350  1  0.99478235  0.49486806  0.38217725  1
  O  O351  1  0.99467586  0.49083050  0.88043647  1
  O  O352  1  1.00125871  0.99050499  0.38179273  1
  O  O353  1  0.99221480  0.99700212  0.88099922  1
  O  O354  1  -0.00139457  0.00930464  0.11707766  1
  O  O355  1  0.00525779  0.00541546  0.62058941  1
  O  O356  1  0.00572694  0.50563104  0.11820319  1
  O  O357  1  0.00781225  0.50389219  0.62041896  1
  O  O358  1  0.51155679  0.01099340  0.11440440  1
  O  O359  1  0.49903624  0.00974641  0.62111208  1
  O  O360  1  0.50433874  0.50303544  0.11549952  1
  O  O361  1  0.50920731  0.50286754  0.62102464  1
  O  O362  1  0.23359845  0.37014055  0.24349595  1
  O  O363  1  0.24679774  0.37612150  0.74237463  1
  O  O364  1  0.24873824  0.89072060  0.23329226  1
  O  O365  1  0.24388136  0.88588727  0.74883264  1
  O  O366  1  0.74474278  0.38016942  0.24532750  1
  O  O367  1  0.73817992  0.37329357  0.74984803  1
  O  O368  1  0.74267889  0.87986760  0.24525409  1
  O  O369  1  0.75151332  0.87324326  0.73698393  1
  O  O370  1  0.25503666  0.11939438  0.25345802  1
  O  O371  1  0.24691344  0.11214236  0.75859276  1
  O  O372  1  0.26484072  0.64003205  0.23240480  1
  O  O373  1  0.25680321  0.62503760  0.75533853  1
  O  O374  1  0.75859870  0.12564762  0.25677114  1
  O  O375  1  0.75544449  0.12399306  0.75911240  1
  O  O376  1  0.75960856  0.61830515  0.24896299  1
  O  O377  1  0.76068879  0.62271561  0.75357658  1
  O  O378  1  0.36973118  0.12019001  0.36920515  1
  O  O379  1  0.36656476  0.11135998  0.87835926  1
  O  O380  1  0.38631248  0.63031580  0.37188238  1
  O  O381  1  0.36849943  0.62570576  0.86894188  1
  O  O382  1  0.87020783  0.12615149  0.36712012  1
  O  O383  1  0.86741537  0.11676065  0.87091571  1
  O  O384  1  0.87497945  0.61885732  0.36513671  1
  O  O385  1  0.87803560  0.61544169  0.86713168  1
  O  O386  1  0.12779181  0.38182001  0.13275737  1
  O  O387  1  0.13018660  0.38365293  0.62485727  1
  O  O388  1  0.13416684  0.88147686  0.12335459  1
  O  O389  1  0.12640880  0.88202616  0.63048832  1
  O  O390  1  0.62990473  0.37888200  0.13174560  1
  O  O391  1  0.62467472  0.38257921  0.63462624  1
  O  O392  1  0.62405897  0.88830137  0.12377753  1
  O  O393  1  0.63761163  0.87452359  0.62446606  1
  O  O394  1  0.12078154  0.26035660  0.25699891  1
  O  O395  1  0.11028031  0.24927345  0.74371305  1
  O  O396  1  0.12028179  0.75543732  0.26225383  1
  O  O397  1  0.12000672  0.75489093  0.75331430  1
  O  O398  1  0.61898730  0.25451140  0.25570749  1
  O  O399  1  0.61484000  0.25872960  0.75007543  1
  O  O400  1  0.63318115  0.75056242  0.26499174  1
  O  O401  1  0.61964748  0.75228872  0.75886763  1
  O  O402  1  0.37997315  0.24481983  0.24437798  1
  O  O403  1  0.38985238  0.25668106  0.74209652  1
  O  O404  1  0.37172281  0.77504870  0.24613205  1
  O  O405  1  0.38063562  0.74637844  0.74445665  1
  O  O406  1  0.87669711  0.24068582  0.24526841  1
  O  O407  1  0.88480849  0.24376046  0.74462760  1
  O  O408  1  0.87614135  0.73726994  0.24990171  1
  O  O409  1  0.88262285  0.74370223  0.74474233  1
  O  O410  1  0.38343732  0.49243960  0.49984293  1
  O  O411  1  0.38583780  0.49235676  0.99810341  1
  O  O412  1  0.37852479  0.99349922  0.49607679  1
  O  O413  1  0.37962662  0.99293984  0.99004789  1
  O  O414  1  0.88021517  0.49506779  0.49579540  1
  O  O415  1  0.88122291  0.49499631  0.99526437  1
  O  O416  1  0.88391619  0.99302779  0.49826532  1
  O  O417  1  0.88499387  1.00641042  0.98844871  1
  O  O418  1  0.10992575  0.01050822  -0.00114612  1
  O  O419  1  0.12158255  0.00543504  0.50454246  1
  O  O420  1  0.11889615  0.50691439  0.00593987  1
  O  O421  1  0.11931332  0.50392605  0.50970901  1
  O  O422  1  0.61921013  0.00668419  0.00410490  1
  O  O423  1  0.61814697  0.00770283  0.50413212  1
  O  O424  1  0.61468735  0.49720777  0.00590359  1
  O  O425  1  0.62145524  0.49806561  0.51167353  1
  O  O426  1  0.36965706  0.36982160  0.11907309  1
  O  O427  1  0.36993707  0.36880195  0.61893472  1
  O  O428  1  0.36005805  0.88450755  0.11001383  1
  O  O429  1  0.37659624  0.87020014  0.61269522  1
  O  O430  1  0.87028519  0.37177774  0.12141716  1
  O  O431  1  0.87535284  0.36821277  0.61889480  1
  O  O432  1  0.87188390  0.87331765  0.12637203  1
  O  O433  1  0.86954451  0.86810961  0.62001423  1
  O  O434  1  0.12979681  0.13141707  0.37985415  1
  O  O435  1  0.14007628  0.12016394  0.87212502  1
  O  O436  1  0.11375228  0.63886803  0.38272393  1
  O  O437  1  0.12900153  0.63092993  0.87947662  1
  O  O438  1  0.62870578  0.13073083  0.38078405  1
  O  O439  1  0.63484610  0.12417022  0.87966025  1
  O  O440  1  0.62737362  0.63483933  0.37816072  1
  O  O441  1  0.62555848  0.63713700  0.87420471  1
