# generated using pymatgen
data_V93Zn93O256
_symmetry_space_group_name_H-M   'P 1'
_cell_length_a   17.06173406
_cell_length_b   17.06391736
_cell_length_c   17.05968819
_cell_angle_alpha   90.03052726
_cell_angle_beta   90.07559014
_cell_angle_gamma   90.05087501
_symmetry_Int_Tables_number   1
_chemical_formula_structural   V93Zn93O256
_chemical_formula_sum   'V93 Zn93 O256'
_cell_volume   4966.75097158
_cell_formula_units_Z   1
loop_
 _symmetry_equiv_pos_site_id
 _symmetry_equiv_pos_as_xyz
  1  'x, y, z'
loop_
 _atom_site_type_symbol
 _atom_site_label
 _atom_site_symmetry_multiplicity
 _atom_site_fract_x
 _atom_site_fract_y
 _atom_site_fract_z
 _atom_site_occupancy
  V  V0  1  0.37445577  0.62420874  0.24970870  1
  V  V1  1  0.87968969  0.87978180  0.50008487  1
  V  V2  1  0.87630552  0.50080793  0.37582480  1
  V  V3  1  0.75125197  -0.00191067  0.25037222  1
  V  V4  1  0.87731852  -0.00001555  0.37703821  1
  V  V5  1  -0.00146540  0.49996137  0.49892106  1
  V  V6  1  0.74885079  0.74873789  -0.00255764  1
  V  V7  1  0.37450499  0.12524085  0.75050344  1
  V  V8  1  0.24795217  0.87931819  0.13888445  1
  V  V9  1  0.12569053  0.49987483  0.12467603  1
  V  V10  1  0.00046309  0.37517465  0.87517142  1
  V  V11  1  0.12496961  0.62598973  -0.00109297  1
  V  V12  1  0.62762942  0.50049203  0.12166318  1
  V  V13  1  0.74808086  0.25026895  -0.00803085  1
  V  V14  1  0.87474712  0.12473028  0.25007238  1
  V  V15  1  0.00161543  -0.00000525  0.00061569  1
  V  V16  1  0.74891565  -0.00069940  0.74969944  1
  V  V17  1  0.37579238  0.37582953  -0.00196853  1
  V  V18  1  0.62591877  0.50020351  0.62717624  1
  V  V19  1  0.49861490  -0.00205476  0.49968165  1
  V  V20  1  0.12570035  0.12407691  0.00048904  1
  V  V21  1  0.49964790  0.12299537  0.62514978  1
  V  V22  1  0.24811786  0.24996239  0.50192574  1
  V  V23  1  0.12447197  0.75326456  0.37389986  1
  V  V24  1  0.00144959  0.12359114  0.12531014  1
  V  V25  1  0.50774491  0.24962376  0.75389194  1
  V  V26  1  0.24741928  0.87497017  0.62550437  1
  V  V27  1  0.62616567  0.87072733  0.24955178  1
  V  V28  1  0.12532897  0.24948369  0.87559490  1
  V  V29  1  0.87561832  0.87541466  0.00062679  1
  V  V30  1  0.75091126  0.75014344  0.50004159  1
  V  V31  1  0.87520919  0.25001923  0.62457174  1
  V  V32  1  0.87504124  0.37497116  0.00047106  1
  V  V33  1  0.00327055  0.87887067  0.37449525  1
  V  V34  1  0.12494915  0.37498105  0.75028766  1
  V  V35  1  0.62597995  0.74800568  0.37519067  1
  V  V36  1  0.24973805  0.12459334  0.87565943  1
  V  V37  1  0.25010117  0.50081894  0.75171578  1
  V  V38  1  0.75206531  0.87435421  0.12429764  1
  V  V39  1  0.50281456  0.74540591  0.25049533  1
  V  V40  1  0.49948539  0.74944811  0.74984421  1
  V  V41  1  -0.00008900  0.62742445  0.62685913  1
  V  V42  1  0.50755730  0.37170527  0.87523988  1
  V  V43  1  0.25151548  0.24946665  0.00110585  1
  V  V44  1  0.00086503  0.62678012  0.12505675  1
  V  V45  1  0.25205043  0.11824910  0.36688716  1
  V  V46  1  0.24971610  0.75240102  0.00115218  1
  V  V47  1  0.00002938  0.24938965  0.74924663  1
  V  V48  1  0.25005850  0.62448777  0.87479585  1
  V  V49  1  0.62497433  0.62557407  0.50031846  1
  V  V50  1  0.12291379  0.25098228  0.37413963  1
  V  V51  1  0.74982363  0.62568599  0.37454941  1
  V  V52  1  0.24966304  0.74944076  0.50028595  1
  V  V53  1  0.87694656  0.25016858  0.12305463  1
  V  V54  1  0.12211675  -0.00038419  0.62455379  1
  V  V55  1  -0.00098357  0.12087494  0.62210978  1
  V  V56  1  0.37537030  0.37603279  0.50106547  1
  V  V57  1  0.75021296  0.37513139  0.62431442  1
  V  V58  1  0.12320915  0.75088617  0.87235425  1
  V  V59  1  0.12160301  0.12011521  0.50111788  1
  V  V60  1  0.75095884  0.87582628  0.62513922  1
  V  V61  1  0.38293855  0.24725240  0.13384189  1
  V  V62  1  0.37373072  0.25007164  0.62726884  1
  V  V63  1  0.75112867  0.49852842  0.24770877  1
  V  V64  1  0.50192772  0.87458198  0.87498698  1
  V  V65  1  0.50117460  0.00297131  0.00132099  1
  V  V66  1  0.87736998  0.62688400  0.25005034  1
  V  V67  1  0.49947145  0.62466761  0.12120324  1
  V  V68  1  0.74420123  0.12788384  0.37465631  1
  V  V69  1  0.62581395  0.12877922  -0.00677798  1
  V  V70  1  0.87461916  0.50170096  0.87395733  1
  V  V71  1  0.12951135  -0.00266467  0.13790437  1
  V  V72  1  0.12284401  0.87173444  0.75041688  1
  V  V73  1  0.24769508  0.49925845  0.24957226  1
  V  V74  1  0.00105437  0.87065576  0.87080286  1
  V  V75  1  0.37305536  0.87640444  0.00175736  1
  V  V76  1  0.12475080  0.62538527  0.50084525  1
  V  V77  1  -0.00065533  0.25041817  0.25063709  1
  V  V78  1  0.24888323  0.37508684  0.62622828  1
  V  V79  1  0.24941971  -0.00032641  0.75051523  1
  V  V80  1  0.00037774  0.50056968  0.00019376  1
  V  V81  1  0.87770345  0.62672494  0.75087594  1
  V  V82  1  0.49774569  0.49995161  0.50081997  1
  V  V83  1  0.87418051  0.00302301  0.87501041  1
  V  V84  1  0.74349465  0.24858202  0.49721918  1
  V  V85  1  0.00525109  0.75507869  0.24903900  1
  V  V86  1  0.12364129  0.50008451  0.62503415  1
  V  V87  1  0.88043664  0.75080148  0.63030234  1
  V  V88  1  0.37455683  0.74907933  0.62651209  1
  V  V89  1  0.37452105  0.87596205  0.49950117  1
  V  V90  1  0.62615795  -0.00112344  0.12286948  1
  V  V91  1  0.24958047  0.62471731  0.37506693  1
  V  V92  1  0.37455538  0.00088186  0.87619175  1
  Zn  Zn93  1  0.56852152  0.21136680  0.31181210  1
  Zn  Zn94  1  0.24941815  0.37223856  0.12660557  1
  Zn  Zn95  1  0.50896148  0.12959356  0.13477123  1
  Zn  Zn96  1  0.37371124  0.75247237  0.12597610  1
  Zn  Zn97  1  0.87423166  0.12582498  0.74900126  1
  Zn  Zn98  1  0.62403277  0.62617548  -0.00461771  1
  Zn  Zn99  1  -0.00210917  0.37579585  0.37475054  1
  Zn  Zn100  1  0.37465596  0.62304077  0.75080582  1
  Zn  Zn101  1  0.61947204  0.12556849  0.49652373  1
  Zn  Zn102  1  0.37675191  0.50110963  0.87322643  1
  Zn  Zn103  1  0.61864156  0.36784552  0.25342688  1
  Zn  Zn104  1  0.62838633  0.37186091  0.75486248  1
  Zn  Zn105  1  0.74910516  0.50040093  0.75152292  1
  Zn  Zn106  1  0.62512383  -0.00072228  0.62396687  1
  Zn  Zn107  1  0.50169465  0.50160373  -0.00511898  1
  Zn  Zn108  1  0.49905011  0.87183269  0.37370007  1
  Zn  Zn109  1  0.87642107  0.75097562  0.12454643  1
  Zn  Zn110  1  0.62585103  0.74593138  0.87217185  1
  Zn  Zn111  1  0.74774431  0.37217454  0.12484969  1
  Zn  Zn112  1  0.36620791  -0.01170381  0.35886773  1
  Zn  Zn113  1  0.12341907  0.37475420  0.24809175  1
  Zn  Zn114  1  0.87601540  0.37391849  0.49747742  1
  Zn  Zn115  1  0.74571682  0.13099455  0.86887370  1
  Zn  Zn116  1  0.62595651  0.87369942  0.74795059  1
  Zn  Zn117  1  0.50315626  0.36446495  0.37291083  1
  Zn  Zn118  1  0.39010622  0.12376068  0.25550110  1
  Zn  Zn119  1  0.49932733  0.62571358  0.62784770  1
  Zn  Zn120  1  0.37223414  0.49604859  0.37534607  1
  Zn  Zn121  1  0.74712681  0.62391846  0.87330481  1
  Zn  Zn122  1  0.18863659  0.18765024  0.18588656  1
  Zn  Zn123  1  0.18626846  0.18735327  0.68847624  1
  Zn  Zn124  1  0.18754067  0.68954693  0.18604211  1
  Zn  Zn125  1  0.18701631  0.68809124  0.68952160  1
  Zn  Zn126  1  0.69268349  0.18573457  0.17835276  1
  Zn  Zn127  1  0.68686003  0.18334043  0.68314202  1
  Zn  Zn128  1  0.68828586  0.68530806  0.18458287  1
  Zn  Zn129  1  0.68958559  0.68808974  0.68838168  1
  Zn  Zn130  1  0.31193531  0.31318790  0.31608539  1
  Zn  Zn131  1  0.31494734  0.31289480  0.81345358  1
  Zn  Zn132  1  0.31510697  0.80631023  0.31277691  1
  Zn  Zn133  1  0.31192767  0.81179983  0.81394106  1
  Zn  Zn134  1  0.81093329  0.31349557  0.31304709  1
  Zn  Zn135  1  0.81485294  0.31488228  0.81007522  1
  Zn  Zn136  1  0.81559588  0.81151500  0.31226876  1
  Zn  Zn137  1  0.81372804  0.81349617  0.81294135  1
  Zn  Zn138  1  0.18675330  0.43724966  0.43801574  1
  Zn  Zn139  1  0.18901567  0.43737888  0.93813745  1
  Zn  Zn140  1  0.18539735  0.93801739  0.43773403  1
  Zn  Zn141  1  0.18722110  0.93808715  0.94185317  1
  Zn  Zn142  1  0.68629149  0.43658013  0.43653562  1
  Zn  Zn143  1  0.68995539  0.43849628  0.93816121  1
  Zn  Zn144  1  0.68757664  0.93664866  0.43724922  1
  Zn  Zn145  1  0.68744659  0.93733535  0.93741770  1
  Zn  Zn146  1  0.31293814  0.06221631  0.06761648  1
  Zn  Zn147  1  0.31035533  0.06243158  0.56104584  1
  Zn  Zn148  1  0.31242260  0.56263422  0.06273887  1
  Zn  Zn149  1  0.31226313  0.56350392  0.56595202  1
  Zn  Zn150  1  0.81103522  0.06427380  0.06099465  1
  Zn  Zn151  1  0.81248702  0.06324431  0.56170547  1
  Zn  Zn152  1  0.81479944  0.56504015  0.06216238  1
  Zn  Zn153  1  0.81274886  0.56327239  0.56221381  1
  Zn  Zn154  1  0.43485567  0.43621826  0.18279104  1
  Zn  Zn155  1  0.43743918  0.43659686  0.68916686  1
  Zn  Zn156  1  0.43799793  0.93819836  0.18699749  1
  Zn  Zn157  1  0.43580200  0.93650722  0.68741362  1
  Zn  Zn158  1  0.93832424  0.43626337  0.18830667  1
  Zn  Zn159  1  0.93655628  0.43907601  0.68736975  1
  Zn  Zn160  1  0.93894207  0.93829162  0.18814195  1
  Zn  Zn161  1  0.93687587  0.93859587  0.68913397  1
  Zn  Zn162  1  0.06090739  0.06380524  0.31462606  1
  Zn  Zn163  1  0.06169687  0.06109796  0.81077586  1
  Zn  Zn164  1  0.06273515  0.56547816  0.31280863  1
  Zn  Zn165  1  0.06130545  0.56384641  0.81180924  1
  Zn  Zn166  1  0.55674628  0.04613963  0.31092865  1
  Zn  Zn167  1  0.56270399  0.06157986  0.81209181  1
  Zn  Zn168  1  0.54496008  0.52622591  0.29579741  1
  Zn  Zn169  1  0.56209284  0.56180134  0.81439260  1
  Zn  Zn170  1  0.43306982  0.18695941  0.44215997  1
  Zn  Zn171  1  0.43908494  0.18913332  0.93974443  1
  Zn  Zn172  1  0.43915436  0.68374272  0.43736233  1
  Zn  Zn173  1  0.43353710  0.68916038  0.93734332  1
  Zn  Zn174  1  0.93389030  0.18793086  0.43902835  1
  Zn  Zn175  1  0.93794376  0.18770844  0.93814112  1
  Zn  Zn176  1  0.93752843  0.68946447  0.43847680  1
  Zn  Zn177  1  0.93615386  0.68852110  0.93804617  1
  Zn  Zn178  1  0.06338253  0.31320973  0.06351148  1
  Zn  Zn179  1  0.06054392  0.31225860  0.56106029  1
  Zn  Zn180  1  0.06617031  0.81566113  0.06258437  1
  Zn  Zn181  1  0.06169034  0.81280348  0.56051791  1
  Zn  Zn182  1  0.56482517  0.31433801  0.06368515  1
  Zn  Zn183  1  0.56140827  0.31296566  0.56271602  1
  Zn  Zn184  1  0.56339407  0.81210154  0.06206753  1
  Zn  Zn185  1  0.56401216  0.81369801  0.56461484  1
  O  O186  1  0.12128684  0.11831152  0.11915710  1
  O  O187  1  0.11859232  0.12131523  0.61915509  1
  O  O188  1  0.11985885  0.62010973  0.11794192  1
  O  O189  1  0.12003020  0.62045091  0.62044931  1
  O  O190  1  0.62767968  0.11604717  0.11190200  1
  O  O191  1  0.61486206  0.11867139  0.62003187  1
  O  O192  1  0.61611731  0.61855662  0.12102942  1
  O  O193  1  0.62751146  0.61585367  0.61926335  1
  O  O194  1  0.37625433  0.37733668  0.38687288  1
  O  O195  1  0.38316902  0.37475248  0.88438922  1
  O  O196  1  0.37390407  0.87238499  0.38806674  1
  O  O197  1  0.38276705  0.88149371  0.88027280  1
  O  O198  1  0.87654375  0.38488021  0.37720309  1
  O  O199  1  0.88240972  0.38137525  0.87983581  1
  O  O200  1  0.88172135  0.87885549  0.38274794  1
  O  O201  1  0.88351890  0.88383064  0.87917500  1
  O  O202  1  0.24893034  0.01483508  0.38125053  1
  O  O203  1  0.25454777  0.00516710  0.87035823  1
  O  O204  1  0.24734307  0.50659107  0.36650498  1
  O  O205  1  0.24949843  0.50647834  0.86894376  1
  O  O206  1  0.75683111  0.00692975  0.37037438  1
  O  O207  1  0.76033045  -0.00254499  0.86741185  1
  O  O208  1  0.75633381  0.50762877  0.36669161  1
  O  O209  1  0.75974993  0.50151496  0.87214036  1
  O  O210  1  0.24388350  0.50047891  0.13459410  1
  O  O211  1  0.24188311  0.49463807  0.63061769  1
  O  O212  1  0.24066013  0.99153485  0.11916859  1
  O  O213  1  0.24315702  0.99459449  0.63087983  1
  O  O214  1  0.74542292  0.50170982  0.13059207  1
  O  O215  1  0.74284469  0.49105523  0.62254224  1
  O  O216  1  0.74649250  0.99426723  0.13025624  1
  O  O217  1  0.75331166  0.99488270  0.63496481  1
  O  O218  1  0.00338168  0.36627442  0.25389474  1
  O  O219  1  0.00568652  0.36994530  0.75485184  1
  O  O220  1  -0.00702857  0.86456806  0.26099380  1
  O  O221  1  0.00625847  0.88251699  0.76302439  1
  O  O222  1  0.50777143  0.41494072  0.26377633  1
  O  O223  1  0.50039658  0.36552696  0.75730768  1
  O  O224  1  0.50857944  0.86477537  0.24979528  1
  O  O225  1  0.49858095  0.86856365  0.75900579  1
  O  O226  1  0.50776778  0.12949440  0.25196376  1
  O  O227  1  0.49386199  0.13055195  0.74692992  1
  O  O228  1  0.49458131  0.62407236  0.24030825  1
  O  O229  1  0.49706643  0.63802383  0.74952921  1
  O  O230  1  0.99331713  0.13053522  0.24493582  1
  O  O231  1  1.00074902  0.13140780  0.73974095  1
  O  O232  1  0.99613955  0.63433763  0.24501777  1
  O  O233  1  0.98728050  0.62062168  0.74239779  1
  O  O234  1  0.37070172  0.25774834  0.00756945  1
  O  O235  1  0.36643856  0.25618461  0.50990256  1
  O  O236  1  0.36738073  0.75852105  0.00262389  1
  O  O237  1  0.36998021  0.75768973  0.50520201  1
  O  O238  1  0.87069528  0.25494488  0.00375767  1
  O  O239  1  0.86437347  0.25129041  0.50729969  1
  O  O240  1  0.86716413  0.75795054  0.00128392  1
  O  O241  1  0.86947890  0.75819917  0.50795188  1
  O  O242  1  0.12802213  0.24076263  0.49352894  1
  O  O243  1  0.12998652  0.24392543  0.99495419  1
  O  O244  1  0.13078089  0.74451000  0.49546737  1
  O  O245  1  0.12980863  0.74468240  0.99312599  1
  O  O246  1  0.63992081  0.24670595  0.50743888  1
  O  O247  1  0.63646627  0.24123792  1.00774336  1
  O  O248  1  0.63159120  0.74625561  0.49659769  1
  O  O249  1  0.63703146  0.75086965  0.99729884  1
  O  O250  1  0.48600018  0.25149967  0.12275640  1
  O  O251  1  0.49264159  0.24431823  0.63247161  1
  O  O252  1  0.50124601  0.73941542  0.13092897  1
  O  O253  1  0.49378673  0.75268952  0.63534375  1
  O  O254  1  0.99679876  0.24261420  0.12956731  1
  O  O255  1  0.99625457  0.24192747  0.62983829  1
  O  O256  1  1.00186181  0.74693798  0.13315633  1
  O  O257  1  0.98758232  0.74449027  0.61807066  1
  O  O258  1  0.00857456  0.24635040  0.37025297  1
  O  O259  1  0.00577865  0.25508817  0.87023155  1
  O  O260  1  0.00412117  0.75726373  0.36808781  1
  O  O261  1  0.00559813  0.76405260  0.88227805  1
  O  O262  1  0.50395008  0.25225091  0.38998868  1
  O  O263  1  0.49340215  0.25822451  0.86405555  1
  O  O264  1  0.50800050  0.74873512  0.36872335  1
  O  O265  1  0.49739775  0.76003555  0.86731380  1
  O  O266  1  0.23956926  0.13142921  0.49570857  1
  O  O267  1  0.24549733  0.12940373  0.99399094  1
  O  O268  1  0.24420979  0.63025392  0.49605431  1
  O  O269  1  0.24381525  0.63079340  0.99575201  1
  O  O270  1  0.74890166  0.13030585  0.49105254  1
  O  O271  1  0.74416023  0.13259927  0.99571753  1
  O  O272  1  0.74584926  0.63112392  0.49517622  1
  O  O273  1  0.75234456  0.63828636  0.99839971  1
  O  O274  1  0.25952329  0.36814977  -0.00038771  1
  O  O275  1  0.25332897  0.37008381  0.50718050  1
  O  O276  1  0.25596613  0.87008789  0.00397329  1
  O  O277  1  0.25579954  0.87001120  0.50552633  1
  O  O278  1  0.75668494  0.36664570  0.00154486  1
  O  O279  1  0.75149078  0.36719873  0.50948360  1
  O  O280  1  0.75563275  0.86925324  0.00441665  1
  O  O281  1  0.75979809  0.86960207  0.50435626  1
  O  O282  1  0.13312170  0.50227317  0.24448494  1
  O  O283  1  0.12876302  0.49388122  0.74447729  1
  O  O284  1  0.12104251  1.00668154  0.23636356  1
  O  O285  1  0.13122208  0.99348547  0.74469225  1
  O  O286  1  0.64200079  0.51098845  0.23611209  1
  O  O287  1  0.62641293  0.49879895  0.73703686  1
  O  O288  1  0.63256725  0.99017745  0.24387795  1
  O  O289  1  0.63782498  0.99705780  0.75035699  1
  O  O290  1  0.38251678  0.00998538  0.25081349  1
  O  O291  1  0.36877273  0.00540668  0.75581822  1
  O  O292  1  0.36110702  0.50665245  0.25008614  1
  O  O293  1  0.36507728  0.50135188  0.75059432  1
  O  O294  1  0.86989525  0.00506314  0.25564912  1
  O  O295  1  0.86663709  0.00081947  0.75887581  1
  O  O296  1  0.87000066  0.50779471  0.25385352  1
  O  O297  1  0.87333989  0.50878873  0.75486778  1
  O  O298  1  0.12411197  0.36002006  0.37563644  1
  O  O299  1  0.11969910  0.36906532  0.87051051  1
  O  O300  1  0.11225753  0.86877286  0.38494445  1
  O  O301  1  0.11804377  0.87217917  0.87138006  1
  O  O302  1  0.61869238  0.38547979  0.36798588  1
  O  O303  1  0.61217757  0.37958211  0.87430555  1
  O  O304  1  0.62545024  0.86593516  0.36800161  1
  O  O305  1  0.61037557  0.87493876  0.87404698  1
  O  O306  1  0.37867518  0.13989835  0.12396174  1
  O  O307  1  0.37828918  0.12980979  0.63116921  1
  O  O308  1  0.38398542  0.62621853  0.12985326  1
  O  O309  1  0.37620628  0.63545618  0.62869352  1
  O  O310  1  0.88177917  0.12864189  0.12979736  1
  O  O311  1  0.88498890  0.12978949  0.62439188  1
  O  O312  1  0.88463836  0.62794987  0.13115523  1
  O  O313  1  0.87917457  0.63279862  0.63076299  1
  O  O314  1  0.26000611  0.25050782  0.11854434  1
  O  O315  1  0.25288763  0.25558366  0.62233852  1
  O  O316  1  0.24879178  0.76011544  0.11826058  1
  O  O317  1  0.25334182  0.75609894  0.61933452  1
  O  O318  1  0.76146709  0.25086972  0.11051993  1
  O  O319  1  0.75520430  0.25569562  0.61886902  1
  O  O320  1  0.75249876  0.75644381  0.11603627  1
  O  O321  1  0.76060362  0.75588536  0.61961298  1
  O  O322  1  0.23999749  0.24086045  0.38137492  1
  O  O323  1  0.24459341  0.24390969  0.87943370  1
  O  O324  1  0.24393243  0.74473029  0.38090769  1
  O  O325  1  0.24344054  0.74533336  0.88151006  1
  O  O326  1  0.75847796  0.23778031  0.38456719  1
  O  O327  1  0.75865117  0.24922110  0.88714603  1
  O  O328  1  0.74673026  0.74524715  0.38019698  1
  O  O329  1  0.74941332  0.75162854  0.88498419  1
  O  O330  1  0.00577369  0.12008241  0.00600330  1
  O  O331  1  0.01005729  0.13179612  0.51067441  1
  O  O332  1  0.00531365  0.62030139  0.00450194  1
  O  O333  1  0.00577702  0.62069705  0.50611654  1
  O  O334  1  0.50986899  0.12094574  0.00143032  1
  O  O335  1  0.49654801  0.11263008  0.50655730  1
  O  O336  1  0.49887215  0.62497714  0.00952674  1
  O  O337  1  0.50644750  0.61944367  0.50765424  1
  O  O338  1  0.49215438  0.38605447  0.50585728  1
  O  O339  1  0.49257648  0.37305223  0.99143266  1
  O  O340  1  0.48903671  0.87976856  0.50227495  1
  O  O341  1  0.49442175  0.88038026  0.99301756  1
  O  O342  1  0.99744438  0.38359495  0.49739841  1
  O  O343  1  0.99562534  0.38042833  0.99417662  1
  O  O344  1  0.98812873  0.86799359  0.48897887  1
  O  O345  1  0.99626600  0.88160450  0.99158417  1
  O  O346  1  0.49269162  0.50967354  0.39695851  1
  O  O347  1  0.49547627  0.48862742  0.87587651  1
  O  O348  1  0.49241915  0.99226927  0.38847950  1
  O  O349  1  0.49386588  0.99261545  0.87932602  1
  O  O350  1  0.99487195  0.50172707  0.38100339  1
  O  O351  1  0.99581953  0.49442059  0.88082875  1
  O  O352  1  0.99326475  0.98831742  0.36842778  1
  O  O353  1  0.99325367  0.99291609  0.88001210  1
  O  O354  1  0.00783959  0.00420255  0.11997595  1
  O  O355  1  0.00547496  0.01266448  0.63176443  1
  O  O356  1  0.00562746  0.50646417  0.11956568  1
  O  O357  1  0.00536267  0.50642103  0.61949166  1
  O  O358  1  0.50965474  0.00132459  0.11676229  1
  O  O359  1  0.49804124  0.00385415  0.61701568  1
  O  O360  1  0.50900044  0.51054583  0.12123291  1
  O  O361  1  0.50880521  0.50125839  0.61938045  1
  O  O362  1  0.24696122  0.38745980  0.25054153  1
  O  O363  1  0.24367187  0.37902833  0.74594774  1
  O  O364  1  0.25639943  0.86954749  0.23757105  1
  O  O365  1  0.24455920  0.88091014  0.74477620  1
  O  O366  1  0.75491504  0.39159748  0.24578137  1
  O  O367  1  0.74720354  0.37526398  0.73763906  1
  O  O368  1  0.74699741  0.87850511  0.24508599  1
  O  O369  1  0.75153276  0.88365566  0.74441417  1
  O  O370  1  0.24724829  0.12946023  0.26715908  1
  O  O371  1  0.25424720  0.11962365  0.75564571  1
  O  O372  1  0.25311785  0.61905207  0.25446800  1
  O  O373  1  0.24859169  0.61825566  0.75720992  1
  O  O374  1  0.75666781  0.11780934  0.25651701  1
  O  O375  1  0.75298609  0.11513950  0.75162766  1
  O  O376  1  0.75848764  0.61958676  0.25375702  1
  O  O377  1  0.76462604  0.62327279  0.75008929  1
  O  O378  1  0.35688759  0.12754169  0.37764765  1
  O  O379  1  0.36938970  0.12041197  0.87056849  1
  O  O380  1  0.36605702  0.62288322  0.36921083  1
  O  O381  1  0.36519668  0.62234329  0.87320841  1
  O  O382  1  0.86825119  0.11860288  0.37029855  1
  O  O383  1  0.87633091  0.11154078  0.87392417  1
  O  O384  1  0.86981021  0.62168172  0.37032057  1
  O  O385  1  0.87706140  0.62072921  0.86559497  1
  O  O386  1  0.12887985  0.38319422  0.12668472  1
  O  O387  1  0.12921905  0.37958212  0.63050752  1
  O  O388  1  0.13512663  0.88618873  0.11977108  1
  O  O389  1  0.12770253  0.87945787  0.62873498  1
  O  O390  1  0.62652492  0.38955894  0.12859383  1
  O  O391  1  0.63397970  0.38377805  0.62536203  1
  O  O392  1  0.63244351  0.87950833  0.12965875  1
  O  O393  1  0.63585756  0.87865132  0.62684125  1
  O  O394  1  0.11907772  0.24816674  0.25942392  1
  O  O395  1  0.12026232  0.25565822  0.75611867  1
  O  O396  1  0.11250446  0.74369185  0.25747045  1
  O  O397  1  0.13024157  0.75944721  0.75890046  1
  O  O398  1  0.64159363  0.25735600  0.24432604  1
  O  O399  1  0.61080319  0.24951588  0.74312190  1
  O  O400  1  0.62246620  0.75181989  0.25499783  1
  O  O401  1  0.61390308  0.75344678  0.75054183  1
  O  O402  1  0.36947540  0.24953738  0.23636269  1
  O  O403  1  0.38177731  0.24388117  0.74528912  1
  O  O404  1  0.38414906  0.74095413  0.24760659  1
  O  O405  1  0.38316354  0.75183971  0.74444161  1
  O  O406  1  0.87884240  0.24406298  0.24377675  1
  O  O407  1  0.88242093  0.24753022  0.74330739  1
  O  O408  1  0.88681734  0.74457235  0.24876011  1
  O  O409  1  0.87093151  0.74331828  0.73836687  1
  O  O410  1  0.38098274  0.49399075  0.50532137  1
  O  O411  1  0.37592303  0.48571987  1.00162089  1
  O  O412  1  0.37993252  0.98833561  0.50199754  1
  O  O413  1  0.38103999  0.99716725  0.99471915  1
  O  O414  1  0.88132017  0.50127967  0.49372068  1
  O  O415  1  0.88179973  0.49565429  0.99467259  1
  O  O416  1  0.86965489  0.98642635  0.49519528  1
  O  O417  1  0.88000475  0.99566718  0.99266346  1
  O  O418  1  0.11892413  0.00749122  0.00516436  1
  O  O419  1  0.12893065  0.01300265  0.50764896  1
  O  O420  1  0.11962758  0.50603710  0.00403465  1
  O  O421  1  0.12011459  0.50611971  0.50592461  1
  O  O422  1  0.62175970  0.00679486  0.00378602  1
  O  O423  1  0.61104547  -0.00181836  0.50049410  1
  O  O424  1  0.62556510  0.50324268  0.01087699  1
  O  O425  1  0.61766484  0.50517375  0.51011365  1
  O  O426  1  0.37327619  0.36404877  0.11650549  1
  O  O427  1  0.36725104  0.36920658  0.62158504  1
  O  O428  1  0.36631919  0.87516931  0.11782203  1
  O  O429  1  0.36697608  0.86934435  0.61769440  1
  O  O430  1  0.87614072  0.36836632  0.11688916  1
  O  O431  1  0.86534117  0.37015993  0.62414314  1
  O  O432  1  0.87002178  0.87551648  0.11801830  1
  O  O433  1  0.87381408  0.86914500  0.61885641  1
  O  O434  1  0.13107758  0.13053361  0.38305016  1
  O  O435  1  0.12958920  0.12976446  0.87957827  1
  O  O436  1  0.13016646  0.63252767  0.38219567  1
  O  O437  1  0.12838613  0.63073937  0.88014266  1
  O  O438  1  0.63832837  0.11879877  0.37410354  1
  O  O439  1  0.62744738  0.11916662  0.88858751  1
  O  O440  1  0.63382970  0.63166562  0.38370782  1
  O  O441  1  0.62903637  0.62784621  0.87828649  1
