# generated using pymatgen
data_V93Zn93O256
_symmetry_space_group_name_H-M   'P 1'
_cell_length_a   17.05653919
_cell_length_b   17.05599888
_cell_length_c   17.05612785
_cell_angle_alpha   90.10508465
_cell_angle_beta   90.11670018
_cell_angle_gamma   90.09828217
_symmetry_Int_Tables_number   1
_chemical_formula_structural   V93Zn93O256
_chemical_formula_sum   'V93 Zn93 O256'
_cell_volume   4961.87986199
_cell_formula_units_Z   1
loop_
 _symmetry_equiv_pos_site_id
 _symmetry_equiv_pos_as_xyz
  1  'x, y, z'
loop_
 _atom_site_type_symbol
 _atom_site_label
 _atom_site_symmetry_multiplicity
 _atom_site_fract_x
 _atom_site_fract_y
 _atom_site_fract_z
 _atom_site_occupancy
  V  V0  1  0.49972626  0.12414127  0.12678856  1
  V  V1  1  0.00233035  0.87510277  0.87378002  1
  V  V2  1  0.49815028  0.12685100  0.62754874  1
  V  V3  1  0.87637298  0.25047688  0.62516340  1
  V  V4  1  0.62578116  0.50033935  0.62618244  1
  V  V5  1  0.50116651  0.00034664  0.00058170  1
  V  V6  1  0.87857775  0.74231684  0.12511290  1
  V  V7  1  0.12584056  0.75404142  0.87246527  1
  V  V8  1  0.62545221  0.75046171  0.87501520  1
  V  V9  1  0.12353811  0.50648000  0.12379872  1
  V  V10  1  0.24668119  0.87398422  0.62783216  1
  V  V11  1  0.62903586  0.38328264  0.25061725  1
  V  V12  1  0.75074665  0.00006832  0.75093708  1
  V  V13  1  0.87597279  0.12529687  0.74940047  1
  V  V14  1  0.12590388  0.37536958  0.75015815  1
  V  V15  1  0.75083148  0.62538732  0.87426167  1
  V  V16  1  0.62126695  0.87480955  0.25328730  1
  V  V17  1  0.62113975  0.75436129  0.37604916  1
  V  V18  1  0.24957553  0.36722379  0.62178481  1
  V  V19  1  0.37508260  0.87480329  0.00081881  1
  V  V20  1  0.75017203  0.12408601  0.37370749  1
  V  V21  1  0.62512189  0.62344302  0.00050948  1
  V  V22  1  0.00184337  0.50699316  0.00171568  1
  V  V23  1  0.12387404  0.12570982  0.00078011  1
  V  V24  1  0.49838171  0.49925927  0.50219571  1
  V  V25  1  0.00209823  0.37594614  0.87295002  1
  V  V26  1  -0.00517275  0.12934755  0.12539669  1
  V  V27  1  0.75067139  0.74952605  0.00019728  1
  V  V28  1  0.12443330  0.50130596  0.62441815  1
  V  V29  1  -0.00005659  0.37656874  0.37771912  1
  V  V30  1  0.87712619  0.49992314  0.87383362  1
  V  V31  1  0.50110492  0.62385391  0.12531949  1
  V  V32  1  0.37521290  0.62438140  0.25123972  1
  V  V33  1  0.25031309  0.62520293  0.37601018  1
  V  V34  1  0.62530224  0.87468176  0.75024386  1
  V  V35  1  0.37419725  0.75016077  0.62551823  1
  V  V36  1  0.49991092  0.75330129  0.25252036  1
  V  V37  1  0.24900711  -0.00044620  0.25049919  1
  V  V38  1  0.75128991  0.87495274  0.62406704  1
  V  V39  1  0.12646396  0.37469283  0.24921362  1
  V  V40  1  0.50153332  0.49900737  0.00198751  1
  V  V41  1  0.24996212  0.24964257  0.00042171  1
  V  V42  1  0.00074208  0.00081894  0.00058247  1
  V  V43  1  0.12553638  0.25101700  0.87435017  1
  V  V44  1  0.25013682  0.12389002  0.87562854  1
  V  V45  1  0.37763988  -0.00676205  0.37484111  1
  V  V46  1  0.36976563  0.36654964  0.50147420  1
  V  V47  1  0.87521675  0.87606448  0.49968211  1
  V  V48  1  0.75176151  0.25184305  0.50077833  1
  V  V49  1  0.37424375  -0.00000418  0.87561023  1
  V  V50  1  0.24985489  0.62588417  0.87564686  1
  V  V51  1  0.37438208  0.24877775  0.12608626  1
  V  V52  1  -0.00047880  0.87639150  0.37275975  1
  V  V53  1  0.87629434  0.62541020  0.74802518  1
  V  V54  1  0.12357341  0.87520945  0.24987589  1
  V  V55  1  0.87479023  0.00096523  0.37216238  1
  V  V56  1  0.24886437  0.87522400  0.12610740  1
  V  V57  1  0.24569252  -0.00392289  0.75135706  1
  V  V58  1  0.24988147  0.74978990  0.50053313  1
  V  V59  1  0.37501661  0.74894643  0.12562525  1
  V  V60  1  -0.00222521  0.74235838  0.24661777  1
  V  V61  1  0.37662506  0.37479386  0.00070097  1
  V  V62  1  0.62495338  0.12415912  0.50053370  1
  V  V63  1  0.37397538  0.12559270  0.25032519  1
  V  V64  1  0.74946604  0.00042088  0.25058870  1
  V  V65  1  0.62566558  0.62568998  0.50013274  1
  V  V66  1  0.24974768  0.12796343  0.38299399  1
  V  V67  1  0.24987486  0.37478416  0.12533428  1
  V  V68  1  0.37350765  0.49968277  0.37567477  1
  V  V69  1  0.50059390  0.75050701  0.75099447  1
  V  V70  1  0.75022985  0.87480352  0.12606740  1
  V  V71  1  0.37590856  0.49860279  0.87655260  1
  V  V72  1  0.49955134  -0.00702087  0.49609620  1
  V  V73  1  0.12455553  0.62564708  0.49955794  1
  V  V74  1  0.12983427  0.24943945  0.38188459  1
  V  V75  1  0.75045970  0.50043219  0.74843703  1
  V  V76  1  0.62440236  0.37130429  0.75250991  1
  V  V77  1  0.62452162  0.00060958  0.12624712  1
  V  V78  1  0.75224128  0.61992696  0.36698253  1
  V  V79  1  0.00037393  0.62628081  0.62377886  1
  V  V80  1  0.49998754  0.62474882  0.62585913  1
  V  V81  1  0.87448899  0.36877961  0.00637504  1
  V  V82  1  0.12405127  -0.00139030  0.62428263  1
  V  V83  1  -0.00513382  0.24994146  0.24662781  1
  V  V84  1  0.62434041  -0.00077982  0.62554486  1
  V  V85  1  0.87531338  0.00011855  0.87431459  1
  V  V86  1  0.37562138  0.62431192  0.75055898  1
  V  V87  1  0.25016276  0.74954671  -0.00043440  1
  V  V88  1  0.87569846  0.87494904  0.00018983  1
  V  V89  1  0.62321777  0.25004575  0.37500408  1
  V  V90  1  0.49770007  0.37322556  0.37752595  1
  V  V91  1  0.00341565  0.75474579  0.74910225  1
  V  V92  1  0.25080904  0.49986507  0.75002538  1
  Zn  Zn93  1  0.12235869  0.62828913  0.00389203  1
  Zn  Zn94  1  0.00080620  0.24974641  0.74851363  1
  Zn  Zn95  1  0.76305920  0.37532789  0.13887514  1
  Zn  Zn96  1  -0.00425281  0.50292793  0.49813649  1
  Zn  Zn97  1  0.24989866  0.50087149  0.24885374  1
  Zn  Zn98  1  0.00316479  0.12552926  0.62148562  1
  Zn  Zn99  1  0.62738402  0.24857569  0.88329345  1
  Zn  Zn100  1  0.50024452  0.87558544  0.87489717  1
  Zn  Zn101  1  0.87469376  0.75043976  0.62411661  1
  Zn  Zn102  1  0.49998988  0.25055577  0.25024182  1
  Zn  Zn103  1  0.37741268  0.87168958  0.49698897  1
  Zn  Zn104  1  0.63576051  0.50338085  0.13080453  1
  Zn  Zn105  1  0.74940761  0.12916315  0.88026648  1
  Zn  Zn106  1  0.37473315  0.12664017  0.75005529  1
  Zn  Zn107  1  0.86936686  0.49455130  0.37011445  1
  Zn  Zn108  1  0.87583409  0.37950334  0.50111440  1
  Zn  Zn109  1  0.12457168  0.00101288  0.12549479  1
  Zn  Zn110  1  0.62979084  0.12876013  0.00021188  1
  Zn  Zn111  1  0.00350493  0.00311463  0.49712123  1
  Zn  Zn112  1  0.86970423  0.13069993  0.24487953  1
  Zn  Zn113  1  0.75020177  0.74948652  0.49998752  1
  Zn  Zn114  1  0.87166572  0.61354389  0.23980282  1
  Zn  Zn115  1  0.75079574  0.37688410  0.62495008  1
  Zn  Zn116  1  0.37169201  0.24644069  0.62618042  1
  Zn  Zn117  1  0.75146027  0.24595797  0.01140227  1
  Zn  Zn118  1  0.50155809  0.37093394  0.87688241  1
  Zn  Zn119  1  0.49835363  0.24866786  0.75550927  1
  Zn  Zn120  1  0.12553718  0.12772124  0.50300902  1
  Zn  Zn121  1  0.12363537  0.74994705  0.37415813  1
  Zn  Zn122  1  0.18429809  0.18693908  0.19024958  1
  Zn  Zn123  1  0.18727155  0.18426019  0.69055983  1
  Zn  Zn124  1  0.18771881  0.68874420  0.19042909  1
  Zn  Zn125  1  0.18662774  0.68747328  0.68854173  1
  Zn  Zn126  1  0.68844486  0.19519199  0.18412133  1
  Zn  Zn127  1  0.68886364  0.18686330  0.68835814  1
  Zn  Zn128  1  0.68701493  0.68932789  0.18738968  1
  Zn  Zn129  1  0.68922687  0.68899344  0.68641319  1
  Zn  Zn130  1  0.31154332  0.31215077  0.31168323  1
  Zn  Zn131  1  0.31502501  0.31044267  0.81083484  1
  Zn  Zn132  1  0.31039715  0.81063507  0.31168841  1
  Zn  Zn133  1  0.31350732  0.81426733  0.81221900  1
  Zn  Zn134  1  0.81288870  0.31185567  0.31456592  1
  Zn  Zn135  1  0.80848452  0.31212763  0.81785328  1
  Zn  Zn136  1  0.81043512  0.80928323  0.31237940  1
  Zn  Zn137  1  0.81452973  0.81266280  0.81152160  1
  Zn  Zn138  1  0.18631363  0.43937679  0.43831744  1
  Zn  Zn139  1  0.18866093  0.43789136  0.93888667  1
  Zn  Zn140  1  0.18869126  0.93660260  0.43850628  1
  Zn  Zn141  1  0.18649279  0.93702405  0.93935595  1
  Zn  Zn142  1  0.68520495  0.43804287  0.43713681  1
  Zn  Zn143  1  0.68949077  0.43815385  0.93718236  1
  Zn  Zn144  1  0.68825430  0.93691162  0.43789449  1
  Zn  Zn145  1  0.68839450  0.93865614  0.93714113  1
  Zn  Zn146  1  0.31220343  0.06206507  0.06301442  1
  Zn  Zn147  1  0.31412257  0.05944042  0.56201914  1
  Zn  Zn148  1  0.31154671  0.56202297  0.06267082  1
  Zn  Zn149  1  0.31128727  0.55966593  0.56239530  1
  Zn  Zn150  1  0.81282138  0.06180321  0.06327108  1
  Zn  Zn151  1  0.81318886  0.06226502  0.56217348  1
  Zn  Zn152  1  0.80916383  0.55371358  0.06208835  1
  Zn  Zn153  1  0.81368910  0.56296172  0.55731964  1
  Zn  Zn154  1  0.44117972  0.43742988  0.18887142  1
  Zn  Zn155  1  0.43800173  0.43528688  0.68816060  1
  Zn  Zn156  1  0.43677224  0.93689917  0.18880855  1
  Zn  Zn157  1  0.43547696  0.93817389  0.68754455  1
  Zn  Zn158  1  0.94205997  0.44220715  0.19008173  1
  Zn  Zn159  1  0.93857524  0.43762694  0.68608013  1
  Zn  Zn160  1  0.93770118  0.93774692  0.18647927  1
  Zn  Zn161  1  0.93874925  0.93720565  0.68733976  1
  Zn  Zn162  1  0.06294833  0.06386706  0.31138626  1
  Zn  Zn163  1  0.06246277  0.06290620  0.81078641  1
  Zn  Zn164  1  0.06395025  0.56131861  0.31172276  1
  Zn  Zn165  1  0.06387051  0.56523379  0.81271385  1
  Zn  Zn166  1  0.56170764  0.06326363  0.31233072  1
  Zn  Zn167  1  0.56445699  0.06424260  0.81518257  1
  Zn  Zn168  1  0.55979919  0.56509038  0.31647890  1
  Zn  Zn169  1  0.56260982  0.55985685  0.81430712  1
  Zn  Zn170  1  0.43775823  0.18373693  0.43862021  1
  Zn  Zn171  1  0.44048228  0.18796446  0.93656391  1
  Zn  Zn172  1  0.43786734  0.68724789  0.43854468  1
  Zn  Zn173  1  0.43859315  0.68658625  0.93778511  1
  Zn  Zn174  1  0.94036643  0.18574896  0.43673485  1
  Zn  Zn175  1  0.93892242  0.18799240  0.93490684  1
  Zn  Zn176  1  0.93767401  0.69069732  0.43557761  1
  Zn  Zn177  1  0.93711570  0.68779108  0.93600984  1
  Zn  Zn178  1  0.06081208  0.31562585  0.06211967  1
  Zn  Zn179  1  0.06192595  0.31352643  0.56279976  1
  Zn  Zn180  1  0.06267512  0.81223320  0.06270177  1
  Zn  Zn181  1  0.06303963  0.81409613  0.56072335  1
  Zn  Zn182  1  0.56334623  0.31076842  0.06528018  1
  Zn  Zn183  1  0.56296076  0.31297330  0.56454855  1
  Zn  Zn184  1  0.56244481  0.81266020  0.06456458  1
  Zn  Zn185  1  0.56300955  0.81161098  0.56363349  1
  O  O186  1  0.11589990  0.12318715  0.11839157  1
  O  O187  1  0.12663523  0.11440357  0.62315630  1
  O  O188  1  0.13346631  0.61111408  0.12352914  1
  O  O189  1  0.12041716  0.62068226  0.62015707  1
  O  O190  1  0.61669789  0.11606860  0.12726614  1
  O  O191  1  0.61904620  0.11788020  0.62003691  1
  O  O192  1  0.61929400  0.62524898  0.11871630  1
  O  O193  1  0.61911964  0.62079628  0.62091936  1
  O  O194  1  0.37662535  0.37906792  0.38341238  1
  O  O195  1  0.37436813  0.38167378  0.88310087  1
  O  O196  1  0.36867634  0.88963328  0.37500247  1
  O  O197  1  0.37671296  0.88144942  0.88293084  1
  O  O198  1  0.88847966  0.37196610  0.37749424  1
  O  O199  1  0.88403694  0.38273251  0.87945524  1
  O  O200  1  0.87772672  0.88046563  0.38102510  1
  O  O201  1  0.88182474  0.87971348  0.88103728  1
  O  O202  1  0.25763961  0.00762417  0.36988058  1
  O  O203  1  0.25264592  0.00267261  0.86897051  1
  O  O204  1  0.25614487  0.50707385  0.37329669  1
  O  O205  1  0.25556338  0.50549124  0.86995541  1
  O  O206  1  0.75389148  0.00539274  0.36972055  1
  O  O207  1  0.75931322  -0.00121571  0.86760870  1
  O  O208  1  0.74565703  0.51720892  0.37947660  1
  O  O209  1  0.75718872  0.50775626  0.86839873  1
  O  O210  1  0.24214207  0.49222798  0.12475643  1
  O  O211  1  0.24417526  0.49257415  0.63171297  1
  O  O212  1  0.24949545  0.99308479  0.13219416  1
  O  O213  1  0.24549994  0.99287777  0.63191828  1
  O  O214  1  0.74681441  0.48696962  0.12393384  1
  O  O215  1  0.74386982  0.50108265  0.63057240  1
  O  O216  1  0.74465665  0.99333747  0.13133196  1
  O  O217  1  0.74375903  0.99496165  0.63023912  1
  O  O218  1  0.00791692  0.36677973  0.25691546  1
  O  O219  1  0.00861128  0.37521324  0.75556497  1
  O  O220  1  0.00411461  0.86800379  0.25395494  1
  O  O221  1  -0.00621938  0.86254412  0.75750957  1
  O  O222  1  0.50568288  0.37187504  0.26137244  1
  O  O223  1  0.51176642  0.37474829  0.75104744  1
  O  O224  1  0.50827500  0.86617260  0.24355940  1
  O  O225  1  0.50666795  0.86876109  0.75022806  1
  O  O226  1  0.49149533  0.12542375  0.24433717  1
  O  O227  1  0.49902387  0.12125525  0.73742593  1
  O  O228  1  0.49438340  0.63207321  0.24503081  1
  O  O229  1  0.49512521  0.62995179  0.74535263  1
  O  O230  1  1.00073163  0.13345005  0.24176014  1
  O  O231  1  0.98800028  0.12615745  0.74602564  1
  O  O232  1  0.99753420  0.64030767  0.25774413  1
  O  O233  1  0.99571637  0.63392379  0.74493775  1
  O  O234  1  0.36869487  0.25437699  0.00627935  1
  O  O235  1  0.37869963  0.26366796  0.50225797  1
  O  O236  1  0.37050748  0.75483734  0.00548070  1
  O  O237  1  0.36991512  0.75075831  0.50742394  1
  O  O238  1  0.88269176  0.26758674  -0.00454030  1
  O  O239  1  0.86608313  0.24775382  0.50807568  1
  O  O240  1  0.87109103  0.75503378  0.00550815  1
  O  O241  1  0.87415774  0.76549388  0.50061796  1
  O  O242  1  0.12163209  0.24991651  0.48525976  1
  O  O243  1  0.13063221  0.24631354  0.99411852  1
  O  O244  1  0.13223479  0.74348371  0.49863044  1
  O  O245  1  0.13048606  0.74759273  0.99188696  1
  O  O246  1  0.63358270  0.24462755  0.49672292  1
  O  O247  1  0.62956796  0.24727832  1.00248626  1
  O  O248  1  0.62300563  0.74488340  0.49178510  1
  O  O249  1  0.63089814  0.74506043  0.99550111  1
  O  O250  1  0.49059531  0.24109755  0.12651043  1
  O  O251  1  0.50127393  0.23517563  0.62396914  1
  O  O252  1  0.49383919  0.74339897  0.13033060  1
  O  O253  1  0.49464109  0.74404845  0.63114309  1
  O  O254  1  1.00914289  0.24176636  0.13519092  1
  O  O255  1  0.98880152  0.24905528  0.62675035  1
  O  O256  1  0.98902044  0.75627967  0.13288534  1
  O  O257  1  1.00133357  0.74665910  0.63484445  1
  O  O258  1  0.00969359  0.25634665  0.36706244  1
  O  O259  1  0.00862198  0.25755691  0.87192116  1
  O  O260  1  -0.00020859  0.75947874  0.36425594  1
  O  O261  1  0.00734530  0.75374564  0.86897312  1
  O  O262  1  0.50603900  0.25481823  0.37768422  1
  O  O263  1  0.50661434  0.25349817  0.87285401  1
  O  O264  1  0.51231890  0.74163570  0.36853729  1
  O  O265  1  0.50696130  0.75130024  0.86908218  1
  O  O266  1  0.25028444  0.12041670  0.48589224  1
  O  O267  1  0.24400216  0.12980449  0.99566685  1
  O  O268  1  0.24527121  0.63041209  0.49655908  1
  O  O269  1  0.25078119  0.63292154  0.99250920  1
  O  O270  1  0.74451879  0.13210843  0.49525530  1
  O  O271  1  0.74976769  0.12627147  0.99969736  1
  O  O272  1  0.74177917  0.62963207  0.49177892  1
  O  O273  1  0.74521830  0.63036115  0.99307147  1
  O  O274  1  0.25610338  0.36860228  0.00561152  1
  O  O275  1  0.25874591  0.38286797  0.51047469  1
  O  O276  1  0.25561716  0.86923082  0.00590625  1
  O  O277  1  0.25362671  0.86836429  0.51003602  1
  O  O278  1  0.77183355  0.37924895  -0.00597030  1
  O  O279  1  0.75008524  0.36167988  0.49936372  1
  O  O280  1  0.75581405  0.86918925  0.00534266  1
  O  O281  1  0.75895544  0.87522225  0.50575230  1
  O  O282  1  0.12569828  0.49341873  0.23992189  1
  O  O283  1  0.13151114  0.49573604  0.74513932  1
  O  O284  1  0.13188347  0.99309920  0.24885067  1
  O  O285  1  0.13770542  1.00358588  0.74207123  1
  O  O286  1  0.61704442  0.48632498  0.25521467  1
  O  O287  1  0.63061899  0.49445817  0.74525565  1
  O  O288  1  0.62916044  0.99403560  0.24646028  1
  O  O289  1  0.63058550  0.99345675  0.74463234  1
  O  O290  1  0.37026442  0.00481396  0.25752291  1
  O  O291  1  0.36398688  0.00130910  0.75669561  1
  O  O292  1  0.37487021  0.50668161  0.25735090  1
  O  O293  1  0.37047561  0.50516705  0.75562089  1
  O  O294  1  0.86632293  0.00023560  0.25530398  1
  O  O295  1  0.87120719  0.00656356  0.75343738  1
  O  O296  1  0.88240087  0.50433958  0.25818892  1
  O  O297  1  0.87095037  0.50591561  0.75396830  1
  O  O298  1  0.12173569  0.36769690  0.37012856  1
  O  O299  1  0.12264729  0.37074960  0.86955334  1
  O  O300  1  0.11860162  0.87376386  0.36817786  1
  O  O301  1  0.11960407  0.86163385  0.88049727  1
  O  O302  1  0.61681658  0.37023047  0.37099193  1
  O  O303  1  0.62452123  0.37733592  0.86278271  1
  O  O304  1  0.63142252  0.86327568  0.36906286  1
  O  O305  1  0.62440578  0.86814534  0.86832425  1
  O  O306  1  0.37861323  0.12914065  0.13095738  1
  O  O307  1  0.38462361  0.12534619  0.62358629  1
  O  O308  1  0.37991674  0.63030860  0.13075640  1
  O  O309  1  0.37972314  0.62959652  0.63110449  1
  O  O310  1  0.89113845  0.12076993  0.12674658  1
  O  O311  1  0.87570462  0.13230525  0.63268680  1
  O  O312  1  0.86616531  0.63942829  0.12216439  1
  O  O313  1  0.88218431  0.62794193  0.63012138  1
  O  O314  1  0.25389784  0.25397375  0.11994413  1
  O  O315  1  0.24773397  0.26446875  0.62927036  1
  O  O316  1  0.25577172  0.75477915  0.11991015  1
  O  O317  1  0.25400128  0.75626176  0.62259189  1
  O  O318  1  0.75495502  0.26304484  0.12606487  1
  O  O319  1  0.75828003  0.24914520  0.61535421  1
  O  O320  1  0.75701391  0.75629925  0.11943583  1
  O  O321  1  0.75329664  0.75919062  0.62230439  1
  O  O322  1  0.24080045  0.23967145  0.36730472  1
  O  O323  1  0.24521987  0.24418565  0.88107052  1
  O  O324  1  0.24939200  0.74312184  0.38241258  1
  O  O325  1  0.24351936  0.74726416  0.87831705  1
  O  O326  1  0.74509386  0.24357280  0.38409354  1
  O  O327  1  0.74791200  0.24692088  0.88546901  1
  O  O328  1  0.73748895  0.74152743  0.37708631  1
  O  O329  1  0.74598769  0.74519238  0.88016238  1
  O  O330  1  0.00426598  0.12164785  0.00640906  1
  O  O331  1  0.00490947  0.11968095  0.50354340  1
  O  O332  1  0.00178438  0.61120330  -0.00692550  1
  O  O333  1  0.00648388  0.62798395  0.50558651  1
  O  O334  1  0.49786511  0.11132779  0.00805507  1
  O  O335  1  0.50552171  0.11489734  0.50789940  1
  O  O336  1  0.50535184  0.62005260  0.00595296  1
  O  O337  1  0.50471023  0.61900536  0.50689317  1
  O  O338  1  0.49127486  0.38045539  0.49791959  1
  O  O339  1  0.49312815  0.38224542  1.00195326  1
  O  O340  1  0.49861982  0.88924115  0.50635919  1
  O  O341  1  0.49381244  0.88443756  1.00173226  1
  O  O342  1  0.99983147  0.37573044  0.48885848  1
  O  O343  1  0.99494549  0.38520859  0.99187228  1
  O  O344  1  0.99156308  0.87806838  0.49258817  1
  O  O345  1  0.99509011  0.88040807  0.99412674  1
  O  O346  1  0.49258743  0.49477515  0.38375955  1
  O  O347  1  0.49225906  0.49905097  0.88358574  1
  O  O348  1  0.48947679  1.00817623  0.38495669  1
  O  O349  1  0.49413624  0.99824234  0.88542312  1
  O  O350  1  1.00690690  0.48460093  0.37595808  1
  O  O351  1  0.99798569  0.49544971  0.88032081  1
  O  O352  1  0.99295182  0.99314915  0.37264334  1
  O  O353  1  0.99569423  0.99462774  0.87932066  1
  O  O354  1  0.00268606  0.00858217  0.11865738  1
  O  O355  1  0.01476509  -0.00246722  0.62664247  1
  O  O356  1  0.01359002  0.49388730  0.11311860  1
  O  O357  1  0.00723967  0.50815040  0.62423256  1
  O  O358  1  0.50326735  0.00377377  0.11877666  1
  O  O359  1  0.50412088  0.00697675  0.61725121  1
  O  O360  1  0.50329016  0.50775399  0.11914843  1
  O  O361  1  0.50471618  0.50657358  0.62133632  1
  O  O362  1  0.24379561  0.37685833  0.24319608  1
  O  O363  1  0.24564077  0.38135979  0.74227910  1
  O  O364  1  0.24406608  0.87900775  0.24500877  1
  O  O365  1  0.25437748  0.88413149  0.74032717  1
  O  O366  1  0.73188955  0.37319500  0.26083916  1
  O  O367  1  0.74239260  0.38335192  0.74857581  1
  O  O368  1  0.74256332  0.87991154  0.24506638  1
  O  O369  1  0.74601437  0.88015544  0.74430717  1
  O  O370  1  0.25488384  0.11861534  0.25762783  1
  O  O371  1  0.25209663  0.11389672  0.75774529  1
  O  O372  1  0.25802937  0.62478727  0.25734408  1
  O  O373  1  0.25636627  0.62000531  0.75516337  1
  O  O374  1  0.74931162  0.11903836  0.25590631  1
  O  O375  1  0.76195584  0.11750319  0.74865751  1
  O  O376  1  0.74884870  0.63007574  0.26382719  1
  O  O377  1  0.75585032  0.62092926  0.75498001  1
  O  O378  1  0.36747953  0.11792296  0.37058347  1
  O  O379  1  0.36690889  0.11655812  0.87705219  1
  O  O380  1  0.37046454  0.61942574  0.37121405  1
  O  O381  1  0.36971715  0.61981981  0.86948086  1
  O  O382  1  0.86762426  0.11860255  0.37214679  1
  O  O383  1  0.87689523  0.11826709  0.86420284  1
  O  O384  1  0.85690081  0.63116207  0.37645138  1
  O  O385  1  0.87018048  0.62016021  0.86827891  1
  O  O386  1  0.13125816  0.38223261  0.12914797  1
  O  O387  1  0.13170923  0.38056648  0.62945642  1
  O  O388  1  0.13199504  0.87666650  0.13071947  1
  O  O389  1  0.13845393  0.88239793  0.62121297  1
  O  O390  1  0.61721671  0.37607764  0.14702065  1
  O  O391  1  0.62729470  0.38292988  0.63264499  1
  O  O392  1  0.63133998  0.87961708  0.13197560  1
  O  O393  1  0.63068988  0.88018496  0.63071027  1
  O  O394  1  0.11730019  0.25556408  0.25920431  1
  O  O395  1  0.12469323  0.25690838  0.75679351  1
  O  O396  1  0.11533119  0.75672193  0.24962308  1
  O  O397  1  0.11485127  0.74471661  0.76041307  1
  O  O398  1  0.62040810  0.25958052  0.26001530  1
  O  O399  1  0.62568304  0.26292108  0.74670360  1
  O  O400  1  0.61926991  0.75519477  0.25708613  1
  O  O401  1  0.62020064  0.75472401  0.75530723  1
  O  O402  1  0.37581648  0.24338880  0.24370807  1
  O  O403  1  0.37936742  0.24502268  0.74442987  1
  O  O404  1  0.37993432  0.74478880  0.24518759  1
  O  O405  1  0.38026045  0.74390807  0.74555778  1
  O  O406  1  0.89090227  0.24934178  0.25597112  1
  O  O407  1  0.87311111  0.24204924  0.74125097  1
  O  O408  1  0.88098350  0.74924608  0.24016314  1
  O  O409  1  0.88623346  0.74352220  0.75030905  1
  O  O410  1  0.37993979  0.49158228  0.49561612  1
  O  O411  1  0.38042111  0.49476808  0.99614586  1
  O  O412  1  0.38311093  0.99784331  0.49126821  1
  O  O413  1  0.38165884  0.99409182  0.99663127  1
  O  O414  1  0.87831091  0.49666252  0.49016818  1
  O  O415  1  0.88564193  0.49437137  0.99227459  1
  O  O416  1  0.87516601  0.99012842  0.49272481  1
  O  O417  1  0.88185579  0.99342430  0.99422316  1
  O  O418  1  0.11795172  0.00758994  -0.00004498  1
  O  O419  1  0.12647392  0.00125244  0.51197297  1
  O  O420  1  0.11889623  0.50123171  0.00588566  1
  O  O421  1  0.12307602  0.50859548  0.50765071  1
  O  O422  1  0.61476712  -0.00345406  0.00799856  1
  O  O423  1  0.61822006  0.00420718  0.50412936  1
  O  O424  1  0.61857559  0.50710932  -0.00049571  1
  O  O425  1  0.61771178  0.50487082  0.50644793  1
  O  O426  1  0.37011236  0.36951557  0.12080680  1
  O  O427  1  0.36618318  0.37536413  0.61769648  1
  O  O428  1  0.36862942  0.86818253  0.12105624  1
  O  O429  1  0.36443958  0.86850838  0.62379180  1
  O  O430  1  0.88447389  0.38156556  0.10770555  1
  O  O431  1  0.87205754  0.36346377  0.62360322  1
  O  O432  1  0.86895171  0.86715617  0.11870462  1
  O  O433  1  0.87035310  0.87664178  0.61533819  1
  O  O434  1  0.13400279  0.13232950  0.37449471  1
  O  O435  1  0.12969263  0.13067690  0.88063589  1
  O  O436  1  0.13231132  0.62667749  0.38131199  1
  O  O437  1  0.13215939  0.63655132  0.87701227  1
  O  O438  1  0.63009642  0.12953873  0.38124143  1
  O  O439  1  0.63076110  0.12629283  0.87978294  1
  O  O440  1  0.63255027  0.63299391  0.37976165  1
  O  O441  1  0.63128975  0.63097885  0.87978847  1
