# generated using pymatgen
data_V93Zn93O256
_symmetry_space_group_name_H-M   'P 1'
_cell_length_a   17.04689182
_cell_length_b   17.04784409
_cell_length_c   17.04378950
_cell_angle_alpha   90.03063815
_cell_angle_beta   89.94626652
_cell_angle_gamma   90.00382768
_symmetry_Int_Tables_number   1
_chemical_formula_structural   V93Zn93O256
_chemical_formula_sum   'V93 Zn93 O256'
_cell_volume   4953.13970826
_cell_formula_units_Z   1
loop_
 _symmetry_equiv_pos_site_id
 _symmetry_equiv_pos_as_xyz
  1  'x, y, z'
loop_
 _atom_site_type_symbol
 _atom_site_label
 _atom_site_symmetry_multiplicity
 _atom_site_fract_x
 _atom_site_fract_y
 _atom_site_fract_z
 _atom_site_occupancy
  V  V0  1  0.37569831  0.87472741  -0.00010371  1
  V  V1  1  0.24989594  0.12375839  0.87473706  1
  V  V2  1  0.49884431  0.24900093  0.74948902  1
  V  V3  1  0.25086662  0.49957137  0.25139667  1
  V  V4  1  0.24906030  -0.00018636  0.25133034  1
  V  V5  1  0.49942545  0.25014919  0.25185451  1
  V  V6  1  0.00022447  0.37469017  0.37550874  1
  V  V7  1  0.37965602  0.62176022  0.74794260  1
  V  V8  1  0.87485065  0.50175570  0.87426440  1
  V  V9  1  0.87657438  0.00213016  0.37293759  1
  V  V10  1  0.87577425  0.62579499  0.24990454  1
  V  V11  1  0.87602441  0.75023121  0.62375706  1
  V  V12  1  0.12455128  0.24659108  0.37791973  1
  V  V13  1  0.00170602  0.37539895  0.87374136  1
  V  V14  1  0.37398562  0.37430624  -0.00030548  1
  V  V15  1  0.62413872  0.37535427  0.25112457  1
  V  V16  1  0.12498445  -0.00094607  0.12498063  1
  V  V17  1  0.87494969  0.37515194  0.50107806  1
  V  V18  1  0.12517529  0.37574138  0.25111870  1
  V  V19  1  0.12559765  0.61985571  0.50304277  1
  V  V20  1  0.62468172  0.50137968  0.12453713  1
  V  V21  1  0.00540610  0.87475996  0.86625110  1
  V  V22  1  0.62547358  0.37531338  0.74908974  1
  V  V23  1  0.12676344  0.75263145  0.86801505  1
  V  V24  1  0.75026127  0.12461801  0.87413219  1
  V  V25  1  0.62656883  0.12571507  0.49835094  1
  V  V26  1  0.11812380  0.75322049  0.37615884  1
  V  V27  1  0.00569217  0.00009690  0.49547040  1
  V  V28  1  0.49931947  0.37432636  0.87499591  1
  V  V29  1  0.24318593  0.24573560  0.50262611  1
  V  V30  1  0.62529940  0.00043991  0.12443785  1
  V  V31  1  0.24921968  0.75031492  0.50142348  1
  V  V32  1  0.37416107  -0.00184081  0.87382085  1
  V  V33  1  0.37288128  -0.00140270  0.37701611  1
  V  V34  1  0.49850792  0.12499403  0.62464875  1
  V  V35  1  0.50029781  0.12475801  0.12516855  1
  V  V36  1  0.25044565  0.87468170  0.12480798  1
  V  V37  1  0.00101514  0.00041424  -0.00143916  1
  V  V38  1  0.49968881  0.87459080  0.87330725  1
  V  V39  1  0.12739096  0.39295674  0.74701220  1
  V  V40  1  0.87565873  0.87445526  -0.00034145  1
  V  V41  1  0.87652661  0.12528149  0.74901375  1
  V  V42  1  0.24572592  0.12550583  0.37837083  1
  V  V43  1  0.25020574  0.24914169  -0.00021883  1
  V  V44  1  0.00030034  0.62701822  0.12631271  1
  V  V45  1  0.87650502  -0.00078263  0.87378455  1
  V  V46  1  0.12451179  -0.00894332  0.62675962  1
  V  V47  1  0.62556565  0.87506516  0.74903898  1
  V  V48  1  0.75134901  0.25146613  -0.00011019  1
  V  V49  1  -0.00091814  0.24928629  0.24953690  1
  V  V50  1  0.74929140  0.49955675  0.25038081  1
  V  V51  1  0.87537112  0.37440568  -0.00002799  1
  V  V52  1  0.37387377  0.24985958  0.12524477  1
  V  V53  1  0.00561809  0.25038650  0.74985124  1
  V  V54  1  0.62476528  0.24973218  0.87405328  1
  V  V55  1  0.37343019  0.87421541  0.50141590  1
  V  V56  1  0.87601759  0.75089029  0.12475089  1
  V  V57  1  0.62263207  0.50130455  0.62662329  1
  V  V58  1  0.37590850  0.62485044  0.25075648  1
  V  V59  1  0.24489321  -0.00779971  0.75032063  1
  V  V60  1  0.37230492  0.49908477  0.87141465  1
  V  V61  1  0.49889171  0.50290910  0.50284348  1
  V  V62  1  0.87465312  0.25107552  0.62275678  1
  V  V63  1  0.50050482  0.50025230  0.00045890  1
  V  V64  1  0.87413121  0.62614063  0.75038536  1
  V  V65  1  0.49820299  0.37483276  0.37738731  1
  V  V66  1  0.24517391  0.38596203  0.62917043  1
  V  V67  1  0.38261460  0.74556838  0.62545357  1
  V  V68  1  0.25033395  0.61962292  0.87028711  1
  V  V69  1  0.74948902  0.62529836  0.37640424  1
  V  V70  1  0.62395910  0.87478201  0.25164610  1
  V  V71  1  0.00310569  0.62049700  0.62516586  1
  V  V72  1  0.62644450  0.74855445  0.87628279  1
  V  V73  1  0.37396093  0.12437574  0.25098648  1
  V  V74  1  0.62200259  0.62634210  0.50437754  1
  V  V75  1  0.75057798  -0.00046228  0.74856158  1
  V  V76  1  0.12498697  0.50104032  0.12621766  1
  V  V77  1  0.12553746  0.12568488  -0.00071760  1
  V  V78  1  -0.00142348  0.12641379  0.12522040  1
  V  V79  1  0.37605161  0.74959432  0.12548911  1
  V  V80  1  0.49747159  -0.00014228  0.50097169  1
  V  V81  1  0.00191667  0.50015843  0.50088345  1
  V  V82  1  0.75045628  0.87598714  0.12383930  1
  V  V83  1  0.00832960  0.12451003  0.61938885  1
  V  V84  1  0.37230763  0.25081344  0.62551616  1
  V  V85  1  0.12614893  0.62561596  -0.00040034  1
  V  V86  1  0.88026941  0.87564076  0.49276505  1
  V  V87  1  0.74987771  0.75084728  0.49889128  1
  V  V88  1  0.87496464  0.50003649  0.37540089  1
  V  V89  1  0.00006408  0.50009246  0.00084866  1
  V  V90  1  0.62457585  0.12500050  -0.00003919  1
  V  V91  1  0.75089224  0.87648689  0.62418778  1
  V  V92  1  0.11910718  0.87367116  0.25375914  1
  Zn  Zn93  1  0.74998061  0.37566836  0.62495555  1
  Zn  Zn94  1  0.37112442  0.37822852  0.50165420  1
  Zn  Zn95  1  0.75099947  0.74741339  -0.00049626  1
  Zn  Zn96  1  0.25045182  0.74939168  -0.00150970  1
  Zn  Zn97  1  0.62280344  0.75087198  0.37473444  1
  Zn  Zn98  1  0.75204341  0.37400055  0.12595808  1
  Zn  Zn99  1  0.00564980  0.75473512  0.74435052  1
  Zn  Zn100  1  0.24561830  0.86925328  0.63211315  1
  Zn  Zn101  1  0.12798343  0.25208035  0.87491088  1
  Zn  Zn102  1  0.75029754  0.12827958  0.37199558  1
  Zn  Zn103  1  0.74837655  0.25148387  0.49747940  1
  Zn  Zn104  1  0.37456250  0.50156610  0.37693734  1
  Zn  Zn105  1  0.62723940  0.24907620  0.37500283  1
  Zn  Zn106  1  0.24930350  0.37418100  0.12428675  1
  Zn  Zn107  1  0.49939386  0.87321958  0.37531894  1
  Zn  Zn108  1  0.75025116  0.00329331  0.25114073  1
  Zn  Zn109  1  0.50082126  0.74905801  0.25314094  1
  Zn  Zn110  1  0.87151529  0.12737829  0.24913406  1
  Zn  Zn111  1  -0.00283084  0.75325789  0.25421770  1
  Zn  Zn112  1  0.87330398  0.25030581  0.12643478  1
  Zn  Zn113  1  0.75019697  0.49855291  0.75002247  1
  Zn  Zn114  1  0.74933903  0.62422035  0.87682159  1
  Zn  Zn115  1  0.62646394  0.62550826  -0.00055838  1
  Zn  Zn116  1  0.24919635  0.62323877  0.37630205  1
  Zn  Zn117  1  0.62378826  -0.00035221  0.62445899  1
  Zn  Zn118  1  0.49959752  0.00091706  -0.00154329  1
  Zn  Zn119  1  0.50099970  0.62635120  0.12405483  1
  Zn  Zn120  1  0.37379336  0.12270010  0.75030469  1
  Zn  Zn121  1  0.50305006  0.74716006  0.74595372  1
  Zn  Zn122  1  0.18611604  0.18746808  0.18846639  1
  Zn  Zn123  1  0.18871939  0.18420367  0.68805929  1
  Zn  Zn124  1  0.18918298  0.68818160  0.18849054  1
  Zn  Zn125  1  0.19134625  0.68180271  0.68770897  1
  Zn  Zn126  1  0.68879939  0.18796688  0.18828293  1
  Zn  Zn127  1  0.68644915  0.18606090  0.68577269  1
  Zn  Zn128  1  0.68977888  0.68912044  0.18721124  1
  Zn  Zn129  1  0.68866177  0.68877111  0.68681777  1
  Zn  Zn130  1  0.31264073  0.31297299  0.31439171  1
  Zn  Zn131  1  0.30973222  0.31347142  0.81091186  1
  Zn  Zn132  1  0.30825258  0.81190085  0.31429633  1
  Zn  Zn133  1  0.31315656  0.80869612  0.81240276  1
  Zn  Zn134  1  0.81108572  0.31076435  0.31356375  1
  Zn  Zn135  1  0.81265941  0.31425499  0.81177637  1
  Zn  Zn136  1  0.80922146  0.81368887  0.31133330  1
  Zn  Zn137  1  0.81364881  0.81163691  0.81190773  1
  Zn  Zn138  1  0.18873202  0.43370876  0.43926346  1
  Zn  Zn139  1  0.18683687  0.43646040  0.93618644  1
  Zn  Zn140  1  0.18664178  0.93616395  0.43883978  1
  Zn  Zn141  1  0.18840331  0.93593856  0.93809154  1
  Zn  Zn142  1  0.68785792  0.43618531  0.43901736  1
  Zn  Zn143  1  0.68968486  0.43829981  0.93632429  1
  Zn  Zn144  1  0.68936212  0.94114315  0.43676780  1
  Zn  Zn145  1  0.68770531  0.93655858  0.93787648  1
  Zn  Zn146  1  0.31283293  0.06149720  0.06202629  1
  Zn  Zn147  1  0.30979216  0.06275278  0.56445386  1
  Zn  Zn148  1  0.31166924  0.56262263  0.06093143  1
  Zn  Zn149  1  0.31427186  0.56505187  0.56339446  1
  Zn  Zn150  1  0.81245441  0.06276853  0.06273250  1
  Zn  Zn151  1  0.81405502  0.06298115  0.56093155  1
  Zn  Zn152  1  0.81051516  0.56398762  0.06122537  1
  Zn  Zn153  1  0.81063188  0.56161330  0.56395294  1
  Zn  Zn154  1  0.43780713  0.43671095  0.18640847  1
  Zn  Zn155  1  0.43621403  0.43700175  0.68785847  1
  Zn  Zn156  1  0.43953595  0.93806849  0.18791851  1
  Zn  Zn157  1  0.43454651  0.93477885  0.68725344  1
  Zn  Zn158  1  0.93713123  0.43686675  0.18700132  1
  Zn  Zn159  1  0.93989776  0.43850705  0.68826815  1
  Zn  Zn160  1  0.93796928  0.93861937  0.18662418  1
  Zn  Zn161  1  0.93646799  0.93831442  0.68399389  1
  Zn  Zn162  1  0.06153323  0.06388531  0.31220832  1
  Zn  Zn163  1  0.06506071  0.06311420  0.81065743  1
  Zn  Zn164  1  0.06300749  0.56510667  0.31483660  1
  Zn  Zn165  1  0.05950041  0.56709399  0.81462305  1
  Zn  Zn166  1  0.56115393  0.05981128  0.31388182  1
  Zn  Zn167  1  0.56170582  0.06126018  0.81105260  1
  Zn  Zn168  1  0.56173666  0.56258395  0.31496262  1
  Zn  Zn169  1  0.55934284  0.56309859  0.81272021  1
  Zn  Zn170  1  0.43463953  0.18773739  0.43954167  1
  Zn  Zn171  1  0.43622674  0.18575816  0.93726636  1
  Zn  Zn172  1  0.43857118  0.68846316  0.43436085  1
  Zn  Zn173  1  0.44032668  0.68666683  0.93730236  1
  Zn  Zn174  1  0.93869552  0.18542914  0.43708034  1
  Zn  Zn175  1  0.93783261  0.18821710  0.93724192  1
  Zn  Zn176  1  0.93745820  0.68690201  0.43775845  1
  Zn  Zn177  1  0.94023564  0.68992582  0.93741974  1
  Zn  Zn178  1  0.06332099  0.31270592  0.06379120  1
  Zn  Zn179  1  0.06475376  0.31577172  0.56450638  1
  Zn  Zn180  1  0.06256736  0.81165934  0.05947478  1
  Zn  Zn181  1  0.06088937  0.81186080  0.56130588  1
  Zn  Zn182  1  0.56294922  0.31293807  0.06350275  1
  Zn  Zn183  1  0.56188620  0.31317009  0.56263651  1
  Zn  Zn184  1  0.56124289  0.81393966  0.06170103  1
  Zn  Zn185  1  0.56232117  0.81472499  0.56147067  1
  O  O186  1  0.11960452  0.11819432  0.11972471  1
  O  O187  1  0.11304681  0.11580200  0.62807225  1
  O  O188  1  0.12091500  0.62095607  0.12034174  1
  O  O189  1  0.11529929  0.63181320  0.61422279  1
  O  O190  1  0.61923281  0.12065151  0.11936528  1
  O  O191  1  0.61694051  0.12337955  0.61667815  1
  O  O192  1  0.62339358  0.61240707  0.12681408  1
  O  O193  1  0.62963318  0.61665189  0.61389509  1
  O  O194  1  0.38630290  0.37808931  0.37753064  1
  O  O195  1  0.37962719  0.37903446  0.87913709  1
  O  O196  1  0.37190015  0.88123062  0.38280233  1
  O  O197  1  0.37960649  0.87786285  0.87990011  1
  O  O198  1  0.88170979  0.38114490  0.38099509  1
  O  O199  1  0.88283537  0.38120532  0.87839516  1
  O  O200  1  0.87050707  0.88275266  0.38631104  1
  O  O201  1  0.88419629  0.87984993  0.87926573  1
  O  O202  1  0.25306702  0.00544768  0.37142167  1
  O  O203  1  0.25294585  0.00337018  0.86815437  1
  O  O204  1  0.25190095  0.49957653  0.36372432  1
  O  O205  1  0.25666061  0.51101495  0.88107273  1
  O  O206  1  0.76403057  0.00407974  0.37523481  1
  O  O207  1  0.75683917  0.00502677  0.86887154  1
  O  O208  1  0.75564921  0.50523685  0.37075853  1
  O  O209  1  0.75893960  0.50331281  0.87034451  1
  O  O210  1  0.24400981  0.49908763  0.13523901  1
  O  O211  1  0.25600785  0.48394309  0.61886076  1
  O  O212  1  0.24437139  0.99537275  0.13175858  1
  O  O213  1  0.24037661  0.99911949  0.63172981  1
  O  O214  1  0.74084652  0.49821971  0.13160207  1
  O  O215  1  0.73666590  0.49785445  0.62711236  1
  O  O216  1  0.74343721  0.99328932  0.12512127  1
  O  O217  1  0.75138600  0.99423616  0.63151396  1
  O  O218  1  0.00575843  0.37114679  0.25678304  1
  O  O219  1  0.00824970  0.36841882  0.75245413  1
  O  O220  1  0.01582830  0.87344233  0.24417393  1
  O  O221  1  -0.00488643  0.87517570  0.76239449  1
  O  O222  1  0.50323058  0.37122872  0.25894707  1
  O  O223  1  0.50509427  0.36829168  0.75580892  1
  O  O224  1  0.51133967  0.87422845  0.25124481  1
  O  O225  1  0.50692392  0.87254354  0.75518493  1
  O  O226  1  0.49324673  0.12991214  0.24577753  1
  O  O227  1  0.49829006  0.13184780  0.74332134  1
  O  O228  1  0.48741882  0.62427803  0.24786150  1
  O  O229  1  0.48455572  0.62993160  0.75584769  1
  O  O230  1  0.99956157  0.13181325  0.24217411  1
  O  O231  1  0.99572565  0.13233706  0.74240200  1
  O  O232  1  0.99360212  0.62651243  0.24432449  1
  O  O233  1  0.99199582  0.62676528  0.74029214  1
  O  O234  1  0.36997174  0.25450816  0.00550684  1
  O  O235  1  0.36576143  0.25328437  0.51088166  1
  O  O236  1  0.37484563  0.75481234  0.00996836  1
  O  O237  1  0.36647923  0.75035578  0.50606896  1
  O  O238  1  0.86915808  0.25685766  -0.00138137  1
  O  O239  1  0.87901623  0.25561973  0.51010642  1
  O  O240  1  0.87635658  0.75743876  0.00649175  1
  O  O241  1  0.87129644  0.75753392  0.50290547  1
  O  O242  1  0.13503749  0.25483101  0.49455636  1
  O  O243  1  0.13154725  0.24389529  0.99856163  1
  O  O244  1  0.13072950  0.74396837  0.49491168  1
  O  O245  1  0.12621916  0.74275116  0.98909774  1
  O  O246  1  0.62417206  0.23887200  0.50041772  1
  O  O247  1  0.63006385  0.24544254  0.99319369  1
  O  O248  1  0.63065960  0.74117463  0.50163862  1
  O  O249  1  0.62581504  0.75026276  0.98885064  1
  O  O250  1  0.49385166  0.24469539  0.13144061  1
  O  O251  1  0.48991848  0.24689229  0.62912721  1
  O  O252  1  0.48707018  0.74901268  0.12878676  1
  O  O253  1  0.48624344  0.75111487  0.62294744  1
  O  O254  1  1.00070230  0.24341639  0.13152378  1
  O  O255  1  0.99484095  0.24322687  0.63026130  1
  O  O256  1  0.99445088  0.74392521  0.12669615  1
  O  O257  1  0.99466200  0.73961067  0.62426395  1
  O  O258  1  0.00521574  0.25531484  0.37108022  1
  O  O259  1  -0.00021671  0.25575452  0.86367029  1
  O  O260  1  0.01361118  0.74726661  0.37547131  1
  O  O261  1  0.00892486  0.75858636  0.87245751  1
  O  O262  1  0.49885425  0.25929641  0.37084110  1
  O  O263  1  0.50479866  0.25442038  0.86980731  1
  O  O264  1  0.50473833  0.75536547  0.37136254  1
  O  O265  1  0.50954758  0.75701302  0.87298872  1
  O  O266  1  0.25467305  0.13784517  0.49453174  1
  O  O267  1  0.24471197  0.12903377  0.99509443  1
  O  O268  1  0.24121333  0.63240840  0.50104969  1
  O  O269  1  0.24452460  0.62684396  0.98983531  1
  O  O270  1  0.73776730  0.12581127  0.50138631  1
  O  O271  1  0.74481458  0.13054120  0.99267916  1
  O  O272  1  0.74284570  0.63006721  0.49598868  1
  O  O273  1  0.74539406  0.62938815  0.99535148  1
  O  O274  1  0.25610552  0.36819397  0.00081499  1
  O  O275  1  0.25060961  0.36431634  0.50915866  1
  O  O276  1  0.25726962  0.87292750  0.00734144  1
  O  O277  1  0.25389093  0.86360775  0.50302840  1
  O  O278  1  0.75750011  0.36848752  -0.00133067  1
  O  O279  1  0.75923087  0.37290790  0.50423231  1
  O  O280  1  0.75858802  0.87405986  0.00568622  1
  O  O281  1  0.75894373  0.87099593  0.50490394  1
  O  O282  1  0.13241066  0.49686654  0.24719778  1
  O  O283  1  0.11911327  0.49151373  0.75189894  1
  O  O284  1  0.12947951  0.99234134  0.24583030  1
  O  O285  1  0.13346654  1.00364721  0.74012388  1
  O  O286  1  0.62879219  0.49586176  0.24380621  1
  O  O287  1  0.62167231  0.49580252  0.74078154  1
  O  O288  1  0.62493750  0.99151067  0.24306175  1
  O  O289  1  0.63305356  0.99354505  0.74832530  1
  O  O290  1  0.36818787  0.00449469  0.25566681  1
  O  O291  1  0.36435898  0.00144364  0.75504212  1
  O  O292  1  0.36665799  0.50756468  0.24792215  1
  O  O293  1  0.38122036  0.50893929  0.75812868  1
  O  O294  1  0.87784644  -0.00126472  0.26286390  1
  O  O295  1  0.87089049  0.00586446  0.75429480  1
  O  O296  1  0.86978038  0.50525898  0.25596593  1
  O  O297  1  0.87688586  0.50963712  0.75495187  1
  O  O298  1  0.11885212  0.36833608  0.37045746  1
  O  O299  1  0.11963091  0.37259845  0.86482067  1
  O  O300  1  0.13205704  0.86549506  0.36500772  1
  O  O301  1  0.11622106  0.86552404  0.88121192  1
  O  O302  1  0.61307928  0.37557393  0.37059618  1
  O  O303  1  0.61875942  0.36929247  0.86958636  1
  O  O304  1  0.62612778  0.87603475  0.36391616  1
  O  O305  1  0.62080735  0.86840262  0.86896344  1
  O  O306  1  0.37962354  0.12957098  0.13119605  1
  O  O307  1  0.37893250  0.13622706  0.62588923  1
  O  O308  1  0.37364394  0.63315800  0.13283263  1
  O  O309  1  0.36661179  0.63396663  0.63662270  1
  O  O310  1  0.88486768  0.12683888  0.12532564  1
  O  O311  1  0.88538195  0.13214874  0.62966061  1
  O  O312  1  0.88033469  0.63004727  0.13078575  1
  O  O313  1  0.88272374  0.62989042  0.62988230  1
  O  O314  1  0.25621794  0.25013597  0.11890492  1
  O  O315  1  0.25496592  0.25254750  0.61941153  1
  O  O316  1  0.26017441  0.75541900  0.12352135  1
  O  O317  1  0.25469079  0.74943173  0.61513657  1
  O  O318  1  0.75124241  0.25352638  0.11511569  1
  O  O319  1  0.76599958  0.24899774  0.62532208  1
  O  O320  1  0.75850201  0.75799443  0.12329558  1
  O  O321  1  0.75705953  0.75599487  0.61796602  1
  O  O322  1  0.24566787  0.24678247  0.38392995  1
  O  O323  1  0.24998652  0.24216207  0.88149939  1
  O  O324  1  0.24097569  0.74691365  0.38739792  1
  O  O325  1  0.24307556  0.74104222  0.87729129  1
  O  O326  1  0.74537708  0.24661436  0.38015294  1
  O  O327  1  0.74476871  0.24369993  0.87824652  1
  O  O328  1  0.74797553  0.74311109  0.38218597  1
  O  O329  1  0.73892796  0.75019746  0.87537317  1
  O  O330  1  0.00587483  0.11972016  0.00358466  1
  O  O331  1  -0.00556781  0.11385479  0.51135719  1
  O  O332  1  0.00573437  0.61898600  0.00563307  1
  O  O333  1  0.00654186  0.62083716  0.50658049  1
  O  O334  1  0.50682777  0.12506483  0.00657072  1
  O  O335  1  0.50487098  0.12014711  0.50545942  1
  O  O336  1  0.50381820  0.61518637  0.00287793  1
  O  O337  1  0.51059208  0.61417834  0.49264507  1
  O  O338  1  0.49907510  0.38383883  0.49267550  1
  O  O339  1  0.49376154  0.37868497  0.99375638  1
  O  O340  1  0.49151101  0.88230100  0.49958647  1
  O  O341  1  0.49291410  0.87825045  0.99232679  1
  O  O342  1  0.99620811  0.38099305  0.49523736  1
  O  O343  1  0.99690838  0.38038669  0.99351955  1
  O  O344  1  0.98864727  0.88499376  0.50602584  1
  O  O345  1  0.99560283  0.88193462  0.99056872  1
  O  O346  1  0.49949924  0.49111655  0.38453552  1
  O  O347  1  0.49421513  0.49248453  0.88115299  1
  O  O348  1  0.48927909  0.99817918  0.38293004  1
  O  O349  1  0.49257808  0.99308338  0.87467933  1
  O  O350  1  0.99450961  0.49493140  0.38050515  1
  O  O351  1  0.99507552  0.49527710  0.88175635  1
  O  O352  1  0.99333582  1.00617671  0.38698513  1
  O  O353  1  0.99704324  0.99387909  0.87812080  1
  O  O354  1  0.00612407  0.00531093  0.11794929  1
  O  O355  1  0.00585952  0.00633641  0.61916582  1
  O  O356  1  0.00572457  0.50687854  0.12056852  1
  O  O357  1  -0.00542661  0.51318404  0.61726997  1
  O  O358  1  0.50585247  0.00798583  0.12256508  1
  O  O359  1  0.49787144  0.00683303  0.61885113  1
  O  O360  1  0.50902776  0.49956776  0.11957125  1
  O  O361  1  0.51036930  0.49295835  0.61406226  1
  O  O362  1  0.24478551  0.38367639  0.24937753  1
  O  O363  1  0.23760359  0.36868772  0.74179184  1
  O  O364  1  0.24117012  0.88071519  0.24442793  1
  O  O365  1  0.25288267  0.88779686  0.75089943  1
  O  O366  1  0.74256030  0.38255547  0.25054959  1
  O  O367  1  0.74148087  0.37686185  0.74680908  1
  O  O368  1  0.74092020  0.87890878  0.24253607  1
  O  O369  1  0.74694965  0.88045921  0.74398930  1
  O  O370  1  0.25492800  0.11920852  0.25607419  1
  O  O371  1  0.25109072  0.11439262  0.75678616  1
  O  O372  1  0.25713119  0.61541828  0.25108525  1
  O  O373  1  0.26027514  0.62752451  0.76284770  1
  O  O374  1  0.75357702  0.12068856  0.25248850  1
  O  O375  1  0.75619385  0.12056536  0.75471023  1
  O  O376  1  0.75599828  0.61927807  0.25627405  1
  O  O377  1  0.76486189  0.62371304  0.74894987  1
  O  O378  1  0.36713361  0.11948231  0.36999192  1
  O  O379  1  0.36783150  0.11668382  0.87434046  1
  O  O380  1  0.37060323  0.62321697  0.36366187  1
  O  O381  1  0.36772989  0.62087502  0.86963439  1
  O  O382  1  0.87468508  0.11411055  0.37437602  1
  O  O383  1  0.87085263  0.11928379  0.86875508  1
  O  O384  1  0.87009717  0.61943946  0.37078259  1
  O  O385  1  0.87929307  0.62150463  0.86444859  1
  O  O386  1  0.12594003  0.38329518  0.13296742  1
  O  O387  1  0.13303193  0.37149319  0.63547200  1
  O  O388  1  0.13076501  0.87912877  0.13101047  1
  O  O389  1  0.12443149  0.88606334  0.62418751  1
  O  O390  1  0.62485224  0.38567922  0.13207119  1
  O  O391  1  0.62573589  0.38312905  0.63059391  1
  O  O392  1  0.62963932  0.88030270  0.13083717  1
  O  O393  1  0.63292228  0.87619975  0.63037334  1
  O  O394  1  0.11997746  0.25676263  0.25653914  1
  O  O395  1  0.11245376  0.25112729  0.74947057  1
  O  O396  1  0.12669210  0.75659379  0.25919736  1
  O  O397  1  0.12469068  0.74246792  0.76344249  1
  O  O398  1  0.61585753  0.25729376  0.25073983  1
  O  O399  1  0.61920891  0.25435418  0.75453289  1
  O  O400  1  0.62440914  0.76127022  0.24980895  1
  O  O401  1  0.62434650  0.75602591  0.75653132  1
  O  O402  1  0.37887507  0.24402197  0.24566902  1
  O  O403  1  0.37944062  0.24824925  0.74080542  1
  O  O404  1  0.37112576  0.74162887  0.24249549  1
  O  O405  1  0.37548505  0.74268408  0.74063883  1
  O  O406  1  0.88501946  0.25019042  0.24812738  1
  O  O407  1  0.88649670  0.24717541  0.74219314  1
  O  O408  1  0.87675600  0.74479043  0.24479433  1
  O  O409  1  0.87846175  0.74176446  0.74281891  1
  O  O410  1  0.38619397  0.50036169  0.49935622  1
  O  O411  1  0.38035319  0.49373929  0.99426588  1
  O  O412  1  0.37630242  0.99455911  0.49680111  1
  O  O413  1  0.37532156  0.99261074  0.99265141  1
  O  O414  1  0.88091404  0.49596259  0.49474730  1
  O  O415  1  0.88155523  0.49521214  0.99468870  1
  O  O416  1  0.88351021  0.99331123  0.49429554  1
  O  O417  1  0.88162077  0.99526589  0.99254540  1
  O  O418  1  0.12063852  0.00507121  0.00568657  1
  O  O419  1  0.11411732  -0.00579100  0.50846739  1
  O  O420  1  0.11958801  0.50501395  0.00568465  1
  O  O421  1  0.11959732  0.51294638  0.49170320  1
  O  O422  1  0.62359159  0.00742180  0.00513908  1
  O  O423  1  0.61724918  0.00805776  0.50229901  1
  O  O424  1  0.61956768  0.49775569  0.00916057  1
  O  O425  1  0.61908634  0.50654145  0.50724430  1
  O  O426  1  0.37359983  0.36757620  0.11831250  1
  O  O427  1  0.36599128  0.36409046  0.62720865  1
  O  O428  1  0.37043204  0.86813999  0.12220772  1
  O  O429  1  0.36915397  0.86317143  0.61933358  1
  O  O430  1  0.87374427  0.37359170  0.11531896  1
  O  O431  1  0.87853527  0.36573354  0.62058650  1
  O  O432  1  0.87152726  0.87130081  0.11956762  1
  O  O433  1  0.87063271  0.87019606  0.61545898  1
  O  O434  1  0.13358329  0.13398300  0.36871397  1
  O  O435  1  0.13123843  0.12675672  0.88206999  1
  O  O436  1  0.12685977  0.63450047  0.38541712  1
  O  O437  1  0.13170122  0.63077104  0.87949659  1
  O  O438  1  0.62274031  0.12528280  0.38723747  1
  O  O439  1  0.63036761  0.13029061  0.87889919  1
  O  O440  1  0.63210285  0.62379766  0.38665522  1
  O  O441  1  0.62558585  0.63660034  0.87272736  1
