# generated using pymatgen
data_V93Zn93O256
_symmetry_space_group_name_H-M   'P 1'
_cell_length_a   17.06222082
_cell_length_b   17.06110070
_cell_length_c   17.04901621
_cell_angle_alpha   90.05755031
_cell_angle_beta   90.01744784
_cell_angle_gamma   90.06444020
_symmetry_Int_Tables_number   1
_chemical_formula_structural   V93Zn93O256
_chemical_formula_sum   'V93 Zn93 O256'
_cell_volume   4962.96730494
_cell_formula_units_Z   1
loop_
 _symmetry_equiv_pos_site_id
 _symmetry_equiv_pos_as_xyz
  1  'x, y, z'
loop_
 _atom_site_type_symbol
 _atom_site_label
 _atom_site_symmetry_multiplicity
 _atom_site_fract_x
 _atom_site_fract_y
 _atom_site_fract_z
 _atom_site_occupancy
  V  V0  1  0.75091085  0.49959772  0.74890298  1
  V  V1  1  0.87488488  0.74472084  0.12680008  1
  V  V2  1  0.87524079  0.37673691  -0.00167063  1
  V  V3  1  -0.00141490  0.12614117  0.62307118  1
  V  V4  1  0.87611383  0.00192987  0.87517269  1
  V  V5  1  0.12526104  0.00134915  0.12468716  1
  V  V6  1  0.62487105  0.49907580  0.62465534  1
  V  V7  1  0.62535377  0.62485838  0.49948064  1
  V  V8  1  0.88145415  0.38241737  0.49056096  1
  V  V9  1  0.74973360  -0.00042199  0.25010991  1
  V  V10  1  0.62642362  0.12583922  0.50140207  1
  V  V11  1  0.87384274  0.62542765  0.74821115  1
  V  V12  1  0.37137097  0.74934163  0.11833921  1
  V  V13  1  0.62448781  0.87252649  0.75110768  1
  V  V14  1  0.49931354  0.24716447  0.25052197  1
  V  V15  1  0.49888951  -0.00130867  0.50189470  1
  V  V16  1  0.37625569  0.62449142  0.24867126  1
  V  V17  1  0.12503295  0.12656779  0.49871538  1
  V  V18  1  0.12823130  0.50346026  0.11566631  1
  V  V19  1  0.75512945  0.50350816  0.25236757  1
  V  V20  1  -0.00076769  0.25117875  0.74880999  1
  V  V21  1  0.74928263  0.62540182  0.87572208  1
  V  V22  1  0.37356358  0.74768467  0.62712818  1
  V  V23  1  0.50039558  0.49709069  0.00076631  1
  V  V24  1  0.75043109  0.37183590  0.61781574  1
  V  V25  1  -0.00159900  0.62460771  0.62077854  1
  V  V26  1  -0.00246870  0.74733879  0.24910278  1
  V  V27  1  0.37421642  0.25158061  0.62512934  1
  V  V28  1  0.37456662  0.12489123  0.75121689  1
  V  V29  1  0.74983916  0.37559507  0.12516641  1
  V  V30  1  -0.00068002  0.87635692  0.87301404  1
  V  V31  1  0.87076679  0.25121942  0.61754719  1
  V  V32  1  0.37352699  0.50130011  0.87312226  1
  V  V33  1  0.12467587  0.62604572  0.49856551  1
  V  V34  1  0.50004480  0.62402054  0.12574507  1
  V  V35  1  0.62721517  0.24937943  0.38052139  1
  V  V36  1  0.24839683  0.87558613  0.62546587  1
  V  V37  1  0.12123671  0.50060521  0.62199863  1
  V  V38  1  0.87312798  0.87522097  0.00200431  1
  V  V39  1  0.00101112  0.00423415  0.00089290  1
  V  V40  1  0.62648931  0.37329609  0.74922398  1
  V  V41  1  0.12303423  0.37699809  0.25466326  1
  V  V42  1  0.74992414  0.12694325  0.38029059  1
  V  V43  1  -0.00020201  0.75144293  0.74943577  1
  V  V44  1  -0.00087191  0.37682454  0.87478636  1
  V  V45  1  0.62601399  0.62433234  -0.00038167  1
  V  V46  1  0.50015364  0.24864878  0.75060721  1
  V  V47  1  0.00038111  0.00081767  0.49941367  1
  V  V48  1  0.00410873  0.62537565  0.11784201  1
  V  V49  1  0.12567493  0.37689337  0.74658673  1
  V  V50  1  0.87518997  0.12556317  0.25131839  1
  V  V51  1  0.37415186  -0.00000088  0.37596222  1
  V  V52  1  0.75006627  0.25049760  0.00092685  1
  V  V53  1  0.87305191  0.75049567  0.62410237  1
  V  V54  1  0.62417870  -0.00068517  0.62658717  1
  V  V55  1  0.25081762  0.87249851  0.11857302  1
  V  V56  1  0.24889817  0.75020989  0.49977811  1
  V  V57  1  0.87585451  0.50057233  0.87478163  1
  V  V58  1  0.13079416  0.24953675  0.88125495  1
  V  V59  1  0.25324098  0.49858200  0.24474391  1
  V  V60  1  0.62573815  0.37338701  0.25142027  1
  V  V61  1  0.50041930  0.87366409  0.37633629  1
  V  V62  1  0.50002191  0.12459038  0.62612714  1
  V  V63  1  0.87536562  0.25063952  0.12498326  1
  V  V64  1  0.62450069  0.49908816  0.12579796  1
  V  V65  1  0.24801836  0.00112048  0.75123395  1
  V  V66  1  0.12403361  0.87517326  0.24964396  1
  V  V67  1  0.37000916  0.36796853  0.00095146  1
  V  V68  1  0.74944799  -0.00012180  0.75045823  1
  V  V69  1  0.25149876  0.00106984  0.25216982  1
  V  V70  1  0.50098032  0.37289006  0.87563188  1
  V  V71  1  0.62564341  0.12360019  0.00199196  1
  V  V72  1  0.50008106  0.87244456  0.87672100  1
  V  V73  1  0.50056187  0.75018273  0.25110585  1
  V  V74  1  0.00090500  0.12569825  0.12598993  1
  V  V75  1  0.37411693  0.87408868  0.50120526  1
  V  V76  1  0.00087259  0.25619728  0.25664968  1
  V  V77  1  0.62480647  0.87493637  0.25139892  1
  V  V78  1  0.12824716  0.74655420  0.88639650  1
  V  V79  1  0.87319048  0.87585399  0.50020473  1
  V  V80  1  0.37789784  0.49682115  0.37551906  1
  V  V81  1  0.75134035  0.12605757  0.87566876  1
  V  V82  1  0.37482568  -0.00050778  0.87603181  1
  V  V83  1  0.25290628  0.62732299  0.37376404  1
  V  V84  1  0.50094209  -0.00131991  0.00093908  1
  V  V85  1  -0.00024119  0.87567220  0.37410816  1
  V  V86  1  0.87464655  0.12638086  0.74895634  1
  V  V87  1  0.49787374  0.62343733  0.62844736  1
  V  V88  1  0.36956960  0.24719055  0.12323242  1
  V  V89  1  0.25065844  0.25269140  0.50016273  1
  V  V90  1  0.62525687  -0.00126594  0.12595342  1
  V  V91  1  0.75370142  0.62328609  0.37237031  1
  V  V92  1  0.62577887  0.24930036  0.87581807  1
  Zn  Zn93  1  0.87451092  0.00046360  0.37467381  1
  Zn  Zn94  1  0.24219591  0.62529545  0.88343896  1
  Zn  Zn95  1  0.74829493  0.74943787  0.00064763  1
  Zn  Zn96  1  0.00088731  0.49818418  0.47122843  1
  Zn  Zn97  1  0.12340963  -0.00037990  0.62677128  1
  Zn  Zn98  1  0.37550139  0.12457007  0.25063528  1
  Zn  Zn99  1  0.62480510  0.74959347  0.37542341  1
  Zn  Zn100  1  0.49864517  0.12205819  0.12611082  1
  Zn  Zn101  1  0.74868172  0.75091665  0.49800630  1
  Zn  Zn102  1  0.12659097  0.75102908  0.37306057  1
  Zn  Zn103  1  0.24866265  0.50482780  0.74999757  1
  Zn  Zn104  1  0.50082505  0.37378104  0.37844620  1
  Zn  Zn105  1  0.25561756  0.13146413  0.88287590  1
  Zn  Zn106  1  0.24619548  0.36913515  0.12098503  1
  Zn  Zn107  1  0.25172922  0.37915363  0.62381109  1
  Zn  Zn108  1  0.62526590  0.74780070  0.87689654  1
  Zn  Zn109  1  0.12397036  0.25697464  0.37755851  1
  Zn  Zn110  1  0.13336897  0.13269344  0.00654273  1
  Zn  Zn111  1  0.12409319  0.87477813  0.74952681  1
  Zn  Zn112  1  0.49856021  0.49684604  0.50033957  1
  Zn  Zn113  1  0.91744721  0.56489867  0.30939180  1
  Zn  Zn114  1  0.49718348  0.74758642  0.75306934  1
  Zn  Zn115  1  0.25177460  0.12765633  0.37571776  1
  Zn  Zn116  1  0.74799174  0.87337104  0.62377823  1
  Zn  Zn117  1  0.37666674  0.37573637  0.50155923  1
  Zn  Zn118  1  0.00542619  0.50514940  -0.00453112  1
  Zn  Zn119  1  0.36775393  0.62599569  0.75226761  1
  Zn  Zn120  1  0.74990397  0.87219040  0.12788080  1
  Zn  Zn121  1  0.37109989  0.87302192  -0.00243013  1
  Zn  Zn122  1  0.18640340  0.18763248  0.19014882  1
  Zn  Zn123  1  0.18795772  0.18789527  0.68761632  1
  Zn  Zn124  1  0.18791477  0.68713628  0.18312533  1
  Zn  Zn125  1  0.18661910  0.68652312  0.69437952  1
  Zn  Zn126  1  0.68714932  0.18536113  0.18954156  1
  Zn  Zn127  1  0.68847172  0.18757385  0.68717367  1
  Zn  Zn128  1  0.68774273  0.68789717  0.18771223  1
  Zn  Zn129  1  0.68786894  0.68903079  0.68641831  1
  Zn  Zn130  1  0.30975120  0.31349993  0.31073019  1
  Zn  Zn131  1  0.31202887  0.31645770  0.80996042  1
  Zn  Zn132  1  0.31427416  0.81309886  0.31004359  1
  Zn  Zn133  1  0.31071899  0.81275949  0.81107333  1
  Zn  Zn134  1  0.81018462  0.31144082  0.31089948  1
  Zn  Zn135  1  0.81250342  0.31280337  0.81005166  1
  Zn  Zn136  1  0.81100616  0.80986068  0.31461249  1
  Zn  Zn137  1  0.81133202  0.81141953  0.81367609  1
  Zn  Zn138  1  0.19065108  0.44065780  0.43651906  1
  Zn  Zn139  1  0.19099344  0.43397291  0.93581179  1
  Zn  Zn140  1  0.18529614  0.93732551  0.43785290  1
  Zn  Zn141  1  0.18400188  0.93823651  0.93596448  1
  Zn  Zn142  1  0.69011613  0.43918061  0.43651426  1
  Zn  Zn143  1  0.68855651  0.43842688  0.93721173  1
  Zn  Zn144  1  0.68713700  0.93964763  0.43642126  1
  Zn  Zn145  1  0.68808766  0.93800031  0.93744384  1
  Zn  Zn146  1  0.31323814  0.06395546  0.06113042  1
  Zn  Zn147  1  0.31167051  0.06386674  0.56444230  1
  Zn  Zn148  1  0.30982682  0.56222818  0.05529788  1
  Zn  Zn149  1  0.30973373  0.56274870  0.56157436  1
  Zn  Zn150  1  0.81205523  0.06251404  0.06504542  1
  Zn  Zn151  1  0.81117260  0.06004133  0.56275800  1
  Zn  Zn152  1  0.81353581  0.56288739  0.06288569  1
  Zn  Zn153  1  0.81239267  0.56009029  0.55849188  1
  Zn  Zn154  1  0.43845560  0.43227437  0.18797413  1
  Zn  Zn155  1  0.43784243  0.43657523  0.68805337  1
  Zn  Zn156  1  0.43725698  0.93582244  0.18760574  1
  Zn  Zn157  1  0.43552789  0.93627328  0.68931385  1
  Zn  Zn158  1  0.94148289  0.43651196  0.18238050  1
  Zn  Zn159  1  0.93791154  0.43796637  0.68435340  1
  Zn  Zn160  1  0.93656510  0.93792508  0.18779954  1
  Zn  Zn161  1  0.93729776  0.93853359  0.68546627  1
  Zn  Zn162  1  0.06257536  0.06413165  0.31349407  1
  Zn  Zn163  1  0.06237028  0.06513120  0.81197618  1
  Zn  Zn164  1  0.07860074  0.56606907  0.30525583  1
  Zn  Zn165  1  0.06071896  0.56593137  0.80986020  1
  Zn  Zn166  1  0.56204813  0.06142561  0.31380137  1
  Zn  Zn167  1  0.56234258  0.06112540  0.81453146  1
  Zn  Zn168  1  0.56439737  0.56177789  0.31244521  1
  Zn  Zn169  1  0.56219811  0.55953883  0.81309952  1
  Zn  Zn170  1  0.43724521  0.18566012  0.43758900  1
  Zn  Zn171  1  0.43869581  0.18471472  0.93924395  1
  Zn  Zn172  1  0.43770763  0.68608734  0.43966515  1
  Zn  Zn173  1  0.43709939  0.68482104  0.93972341  1
  Zn  Zn174  1  0.93625604  0.19089532  0.43725626  1
  Zn  Zn175  1  0.94139647  0.19014561  0.93790695  1
  Zn  Zn176  1  0.93904162  0.69172061  0.43980312  1
  Zn  Zn177  1  0.93920338  0.68956399  0.93684293  1
  Zn  Zn178  1  0.06020251  0.31731613  0.06515084  1
  Zn  Zn179  1  0.05880776  0.31360631  0.55998173  1
  Zn  Zn180  1  0.06039399  0.81699547  0.06312699  1
  Zn  Zn181  1  0.06298786  0.81255330  0.56338275  1
  Zn  Zn182  1  0.55984593  0.31073661  0.06451284  1
  Zn  Zn183  1  0.55946960  0.31309018  0.56069351  1
  Zn  Zn184  1  0.56272244  0.81067194  0.06419501  1
  Zn  Zn185  1  0.56067269  0.80909801  0.56460917  1
  O  O186  1  0.11840788  0.11944966  0.12631779  1
  O  O187  1  0.11741211  0.12669661  0.61443571  1
  O  O188  1  0.11657395  0.61460755  0.13067504  1
  O  O189  1  0.11908301  0.61849604  0.61923803  1
  O  O190  1  0.62445822  0.11780868  0.11900667  1
  O  O191  1  0.61986345  0.11989205  0.62195470  1
  O  O192  1  0.61921911  0.61847747  0.12036051  1
  O  O193  1  0.61895851  0.61953303  0.61893214  1
  O  O194  1  0.37482614  0.38721938  0.37390846  1
  O  O195  1  0.38182662  0.37790262  0.88146061  1
  O  O196  1  0.38074571  0.87999745  0.38194566  1
  O  O197  1  0.38475670  0.87922089  0.87580049  1
  O  O198  1  0.86333968  0.36682395  0.39384867  1
  O  O199  1  0.87899206  0.38045251  0.87759028  1
  O  O200  1  0.88048009  0.87553343  0.38486886  1
  O  O201  1  0.87871576  0.88184185  0.88292827  1
  O  O202  1  0.25521380  -0.00217297  0.36659341  1
  O  O203  1  0.25612169  -0.00308796  0.86386872  1
  O  O204  1  0.25926165  0.50701726  0.36663510  1
  O  O205  1  0.26347646  0.49690217  0.87389925  1
  O  O206  1  0.75019647  0.01138771  0.36851231  1
  O  O207  1  0.75636330  0.00723959  0.87042249  1
  O  O208  1  0.74559390  0.50872054  0.36312609  1
  O  O209  1  0.75589034  0.50430929  0.86789483  1
  O  O210  1  0.24428168  0.49893905  0.12840938  1
  O  O211  1  0.23391061  0.50003449  0.62553493  1
  O  O212  1  0.24649100  0.99228187  0.13572056  1
  O  O213  1  0.25036199  0.99567868  0.63562336  1
  O  O214  1  0.74334062  0.49558113  0.13140719  1
  O  O215  1  0.74510857  0.49188554  0.63059341  1
  O  O216  1  0.74379625  0.99779729  0.13264941  1
  O  O217  1  0.74228223  0.99804123  0.63301658  1
  O  O218  1  0.00936037  0.36529280  0.24099261  1
  O  O219  1  0.00725674  0.37145962  0.75395767  1
  O  O220  1  0.00507272  0.86919294  0.25345448  1
  O  O221  1  -0.00281855  0.87029662  0.75572982  1
  O  O222  1  0.50751468  0.36355212  0.25356719  1
  O  O223  1  0.50767231  0.36750913  0.75505604  1
  O  O224  1  0.50476012  0.87029666  0.25721502  1
  O  O225  1  0.50851584  0.87660057  0.75975002  1
  O  O226  1  0.49999882  0.13541916  0.24956427  1
  O  O227  1  0.49566403  0.12926972  0.74581248  1
  O  O228  1  0.49621225  0.62955323  0.24436559  1
  O  O229  1  0.50163241  0.62501583  0.73735206  1
  O  O230  1  0.99534003  0.13363405  0.24511867  1
  O  O231  1  0.99289051  0.13060218  0.74306984  1
  O  O232  1  0.99823913  0.63586412  0.24011251  1
  O  O233  1  0.99133048  0.63119303  0.74119908  1
  O  O234  1  0.38633716  0.25743048  0.01079319  1
  O  O235  1  0.36597260  0.24835686  0.50591311  1
  O  O236  1  0.38358942  0.75381444  0.01535271  1
  O  O237  1  0.36881599  0.75461571  0.50654204  1
  O  O238  1  0.86916471  0.25575671  0.00473959  1
  O  O239  1  0.87994572  0.26017513  0.51267104  1
  O  O240  1  0.87648986  0.76052951  0.00809184  1
  O  O241  1  0.87438202  0.76158926  0.50568123  1
  O  O242  1  0.13130916  0.24460237  0.49965110  1
  O  O243  1  0.11982869  0.25593813  0.98414073  1
  O  O244  1  0.13143841  0.74444318  0.49757581  1
  O  O245  1  0.11586036  0.75730046  0.98507898  1
  O  O246  1  0.61809982  0.24195539  0.48846999  1
  O  O247  1  0.63065740  0.24498721  0.99541814  1
  O  O248  1  0.62593861  0.73680558  0.50055503  1
  O  O249  1  0.62738134  0.74060625  0.99951048  1
  O  O250  1  0.49359798  0.24780282  0.13640017  1
  O  O251  1  0.49563367  0.24357188  0.63172656  1
  O  O252  1  0.49194129  0.74440574  0.13193744  1
  O  O253  1  0.49244563  0.73922603  0.62671089  1
  O  O254  1  0.99425336  0.24539238  0.13294356  1
  O  O255  1  0.99007503  0.24581960  0.62957252  1
  O  O256  1  0.99533356  0.74517101  0.13036506  1
  O  O257  1  0.99259826  0.74449850  0.62875147  1
  O  O258  1  0.00160403  0.24718565  0.36021301  1
  O  O259  1  0.00755854  0.25759279  0.86758038  1
  O  O260  1  0.00025274  0.75535774  0.36355930  1
  O  O261  1  0.00395333  0.75727540  0.86827018  1
  O  O262  1  0.50917362  0.24840771  0.36708711  1
  O  O263  1  0.50683281  0.25332980  0.86981257  1
  O  O264  1  0.49983800  0.75558789  0.36950068  1
  O  O265  1  0.50146588  0.76061101  0.87434322  1
  O  O266  1  0.24107599  0.13401622  0.50197498  1
  O  O267  1  0.24399901  0.11860490  0.99376842  1
  O  O268  1  0.24451503  0.63170538  0.49399833  1
  O  O269  1  0.26048438  0.63361579  0.99166043  1
  O  O270  1  0.74315210  0.11818710  0.48879715  1
  O  O271  1  0.74627979  0.13110905  0.99506174  1
  O  O272  1  0.74062709  0.62336420  0.49190686  1
  O  O273  1  0.74346705  0.62360658  0.99348561  1
  O  O274  1  0.26642674  0.37385464  0.00106243  1
  O  O275  1  0.25027021  0.36391699  0.50203698  1
  O  O276  1  0.25084563  0.88366655  0.01557040  1
  O  O277  1  0.25505350  0.87067776  0.50519295  1
  O  O278  1  0.75456690  0.36940648  0.00524996  1
  O  O279  1  0.75900847  0.38187429  0.51342727  1
  O  O280  1  0.76322526  0.87553100  0.00093760  1
  O  O281  1  0.76051893  0.87552629  0.50004391  1
  O  O282  1  0.13411521  0.49309854  0.23669402  1
  O  O283  1  0.12220783  0.49170430  0.74176551  1
  O  O284  1  0.13205913  0.99545677  0.24552861  1
  O  O285  1  0.13547537  1.00090797  0.74901923  1
  O  O286  1  0.63241111  0.49292893  0.24445218  1
  O  O287  1  0.63087844  0.49195842  0.74447325  1
  O  O288  1  0.62931442  0.99450857  0.24598745  1
  O  O289  1  0.62916766  0.99210311  0.74672336  1
  O  O290  1  0.36633262  -0.00144743  0.25606970  1
  O  O291  1  0.36775769  0.00528016  0.75520632  1
  O  O292  1  0.37269044  0.50447143  0.25473794  1
  O  O293  1  0.37358933  0.49711558  0.76135537  1
  O  O294  1  0.86956976  0.00760289  0.25227130  1
  O  O295  1  0.86976877  0.00701484  0.75489805  1
  O  O296  1  0.85966803  0.49697772  0.23902203  1
  O  O297  1  0.87035431  0.50546478  0.75399711  1
  O  O298  1  0.12960941  0.37850366  0.35879721  1
  O  O299  1  0.11995494  0.36830514  0.86578990  1
  O  O300  1  0.11779437  0.87270479  0.36818067  1
  O  O301  1  0.11504719  0.86862141  0.87165799  1
  O  O302  1  0.62815552  0.36416717  0.37094774  1
  O  O303  1  0.62176071  0.36880090  0.86971118  1
  O  O304  1  0.61729017  0.87383664  0.37057078  1
  O  O305  1  0.61714656  0.87605980  0.86713293  1
  O  O306  1  0.37967877  0.13299214  0.12862013  1
  O  O307  1  0.38153700  0.13062394  0.63167978  1
  O  O308  1  0.38111988  0.63091258  0.13010721  1
  O  O309  1  0.38318644  0.62736097  0.62586583  1
  O  O310  1  0.87988042  0.13161106  0.13162026  1
  O  O311  1  0.87674054  0.13345584  0.62809141  1
  O  O312  1  0.88393945  0.63750660  0.12070156  1
  O  O313  1  0.87793974  0.62958586  0.62822112  1
  O  O314  1  0.26535727  0.25002464  0.13351568  1
  O  O315  1  0.25548439  0.25110187  0.61648593  1
  O  O316  1  0.26021110  0.76142623  0.13448109  1
  O  O317  1  0.25417097  0.75430304  0.62002016  1
  O  O318  1  0.75500167  0.25528413  0.12115280  1
  O  O319  1  0.75938377  0.25994705  0.63107914  1
  O  O320  1  0.76172238  0.75131677  0.12388429  1
  O  O321  1  0.75750242  0.75332118  0.62090335  1
  O  O322  1  0.24793365  0.24801271  0.38624912  1
  O  O323  1  0.23359523  0.25253879  0.86719556  1
  O  O324  1  0.25200753  0.74526047  0.38067854  1
  O  O325  1  0.22974203  0.75764107  0.87029547  1
  O  O326  1  0.73746177  0.23751612  0.36703346  1
  O  O327  1  0.74559466  0.24573097  0.88010095  1
  O  O328  1  0.74378584  0.73886995  0.37623631  1
  O  O329  1  0.74750849  0.74097839  0.87835497  1
  O  O330  1  0.00332528  0.12168417  0.00777728  1
  O  O331  1  0.00594852  0.12260035  0.50339725  1
  O  O332  1  -0.00208940  0.62467654  0.01297341  1
  O  O333  1  0.00646081  0.62379747  0.50405025  1
  O  O334  1  0.50945604  0.11637394  0.00052377  1
  O  O335  1  0.50542281  0.11802249  0.50713154  1
  O  O336  1  0.50583392  0.61633119  0.00684211  1
  O  O337  1  0.50783653  0.62211231  0.51063985  1
  O  O338  1  0.49516832  0.37927725  0.49548073  1
  O  O339  1  0.49462664  0.37827395  0.99455938  1
  O  O340  1  0.49383408  0.87925482  0.49726965  1
  O  O341  1  0.50276746  0.88031805  0.98961372  1
  O  O342  1  0.98620875  0.37818156  0.49966461  1
  O  O343  1  0.99129539  0.37767670  0.99300842  1
  O  O344  1  0.99261768  0.87995962  0.49520341  1
  O  O345  1  0.98855351  0.88371028  0.99519610  1
  O  O346  1  0.48917807  0.49913334  0.37444847  1
  O  O347  1  0.49470169  0.49054261  0.88005398  1
  O  O348  1  0.49470563  0.99384161  0.38257853  1
  O  O349  1  0.49566506  0.99088074  0.87947104  1
  O  O350  1  0.99982663  0.50933048  0.35984825  1
  O  O351  1  0.99413323  0.49522708  0.87503939  1
  O  O352  1  0.99748573  0.99421795  0.38111924  1
  O  O353  1  0.99405211  0.99787516  0.87938416  1
  O  O354  1  0.00527919  0.00620335  0.12181208  1
  O  O355  1  0.00015266  0.00902137  0.61804895  1
  O  O356  1  0.00884540  0.50964362  0.12315094  1
  O  O357  1  0.01065492  0.50702226  0.62517067  1
  O  O358  1  0.50701539  -0.00087721  0.11953462  1
  O  O359  1  0.50403461  0.00507904  0.62172231  1
  O  O360  1  0.50533868  0.50358896  0.12158187  1
  O  O361  1  0.50638006  0.50753336  0.62461497  1
  O  O362  1  0.24170278  0.38103637  0.24436140  1
  O  O363  1  0.23538497  0.37809404  0.74601082  1
  O  O364  1  0.24497113  0.88345457  0.24322176  1
  O  O365  1  0.25007986  0.88660068  0.74306057  1
  O  O366  1  0.74481211  0.38188845  0.24442345  1
  O  O367  1  0.74582070  0.37980381  0.74033481  1
  O  O368  1  0.74360211  0.88161132  0.25153494  1
  O  O369  1  0.74007942  0.88144129  0.75144623  1
  O  O370  1  0.24950759  0.11113889  0.25301361  1
  O  O371  1  0.25584391  0.11679959  0.75297791  1
  O  O372  1  0.25712240  0.61959758  0.25323149  1
  O  O373  1  0.25076219  0.62135071  0.76321751  1
  O  O374  1  0.75505548  0.11983707  0.25885863  1
  O  O375  1  0.75506864  0.12036569  0.75626775  1
  O  O376  1  0.74214576  0.61479727  0.25913514  1
  O  O377  1  0.75435896  0.61874402  0.75407174  1
  O  O378  1  0.37207723  0.11498362  0.37291106  1
  O  O379  1  0.37609708  0.11844083  0.86808056  1
  O  O380  1  0.37205720  0.61723178  0.36878419  1
  O  O381  1  0.38534734  0.60864097  0.87250346  1
  O  O382  1  0.86504090  0.12683768  0.37115398  1
  O  O383  1  0.87107769  0.12255925  0.86947680  1
  O  O384  1  0.85954114  0.63198808  0.37958865  1
  O  O385  1  0.87062442  0.62007744  0.86841100  1
  O  O386  1  0.12713492  0.38333716  0.13315010  1
  O  O387  1  0.12079592  0.38331235  0.63181275  1
  O  O388  1  0.13185807  0.88090072  0.13041675  1
  O  O389  1  0.13240291  0.87919146  0.62734337  1
  O  O390  1  0.63066223  0.37882729  0.13039422  1
  O  O391  1  0.63265688  0.37694711  0.62870568  1
  O  O392  1  0.62696278  0.88074314  0.13260486  1
  O  O393  1  0.62316083  0.88045683  0.63499801  1
  O  O394  1  0.11790816  0.25924320  0.25061259  1
  O  O395  1  0.11830311  0.25936158  0.75392459  1
  O  O396  1  0.11333013  0.75602558  0.24759368  1
  O  O397  1  0.11359089  0.75410527  0.75599644  1
  O  O398  1  0.61820830  0.25274040  0.25824589  1
  O  O399  1  0.62059713  0.25370591  0.75607975  1
  O  O400  1  0.61723788  0.75663189  0.25014038  1
  O  O401  1  0.62221929  0.76207191  0.75154881  1
  O  O402  1  0.38433734  0.24978290  0.24450902  1
  O  O403  1  0.38063527  0.24531748  0.74630372  1
  O  O404  1  0.38153666  0.74422020  0.24169103  1
  O  O405  1  0.37720441  0.74700596  0.74279802  1
  O  O406  1  0.88166483  0.24693998  0.24452298  1
  O  O407  1  0.87942384  0.24597939  0.74078858  1
  O  O408  1  0.88699484  0.75973499  0.23857457  1
  O  O409  1  0.87912450  0.74488101  0.74435367  1
  O  O410  1  0.37331294  0.49982920  0.48744523  1
  O  O411  1  0.38319581  0.48765383  0.99310820  1
  O  O412  1  0.37954400  0.99405211  0.49733982  1
  O  O413  1  0.38385366  0.99614403  0.99382208  1
  O  O414  1  0.87951095  0.48677054  0.50136568  1
  O  O415  1  0.87569495  0.49355223  0.99251635  1
  O  O416  1  0.88110460  0.99128539  0.49907034  1
  O  O417  1  0.87986703  0.99491652  0.99583708  1
  O  O418  1  0.11566922  -0.00000544  0.00752037  1
  O  O419  1  0.11991930  0.01038216  0.50244076  1
  O  O420  1  0.12487789  0.48961396  0.01192330  1
  O  O421  1  0.12173483  0.50569492  0.50558772  1
  O  O422  1  0.62175343  0.00440056  0.00540890  1
  O  O423  1  0.61798682  0.00460412  0.50700996  1
  O  O424  1  0.61975281  0.50299037  0.00603856  1
  O  O425  1  0.62461104  0.50950732  0.50607722  1
  O  O426  1  0.37613059  0.36557871  0.11666053  1
  O  O427  1  0.37175612  0.36732299  0.62400303  1
  O  O428  1  0.36738243  0.86651549  0.12515183  1
  O  O429  1  0.36959298  0.86883971  0.61975077  1
  O  O430  1  0.86914723  0.36945761  0.11827502  1
  O  O431  1  0.86865497  0.36904866  0.61884711  1
  O  O432  1  0.87647126  0.86744337  0.11573466  1
  O  O433  1  0.87400050  0.87052914  0.61494688  1
  O  O434  1  0.12667675  0.12830897  0.38872530  1
  O  O435  1  0.12206277  0.14373045  0.87339848  1
  O  O436  1  0.13684491  0.63018546  0.37957691  1
  O  O437  1  0.11845859  0.64246576  0.87240630  1
  O  O438  1  0.63118879  0.13012066  0.38060761  1
  O  O439  1  0.63181617  0.12963593  0.88065433  1
  O  O440  1  0.63091837  0.62471217  0.38495397  1
  O  O441  1  0.63025364  0.62325668  0.88113371  1
