# generated using pymatgen
data_V93Zn93O256
_symmetry_space_group_name_H-M   'P 1'
_cell_length_a   17.05814297
_cell_length_b   17.05705475
_cell_length_c   17.05467126
_cell_angle_alpha   89.97434288
_cell_angle_beta   90.03578344
_cell_angle_gamma   89.99064693
_symmetry_Int_Tables_number   1
_chemical_formula_structural   V93Zn93O256
_chemical_formula_sum   'V93 Zn93 O256'
_cell_volume   4962.25424655
_cell_formula_units_Z   1
loop_
 _symmetry_equiv_pos_site_id
 _symmetry_equiv_pos_as_xyz
  1  'x, y, z'
loop_
 _atom_site_type_symbol
 _atom_site_label
 _atom_site_symmetry_multiplicity
 _atom_site_fract_x
 _atom_site_fract_y
 _atom_site_fract_z
 _atom_site_occupancy
  V  V0  1  0.87387160  0.12452691  0.75011747  1
  V  V1  1  0.37496899  0.74927089  0.62463113  1
  V  V2  1  0.62856209  0.62536028  0.49545070  1
  V  V3  1  0.49956411  0.74801226  0.24811524  1
  V  V4  1  0.24902697  -0.00003750  0.75064487  1
  V  V5  1  0.62446438  0.37604610  0.75015377  1
  V  V6  1  0.87418032  0.62693873  0.74739953  1
  V  V7  1  0.37375050  0.12524347  0.75021371  1
  V  V8  1  0.74683482  0.50347201  0.25039646  1
  V  V9  1  0.37417289  0.25076753  0.12601647  1
  V  V10  1  0.50344133  0.87580172  0.87399060  1
  V  V11  1  0.25086757  0.74837679  0.49959561  1
  V  V12  1  0.87646637  0.75003208  0.12659978  1
  V  V13  1  0.12465900  0.37503755  0.25026873  1
  V  V14  1  0.12401979  0.12420979  0.00061811  1
  V  V15  1  0.75133848  0.00279636  0.25176788  1
  V  V16  1  -0.00075091  0.62953441  0.12844681  1
  V  V17  1  0.25024064  0.50022691  0.25004065  1
  V  V18  1  0.75012281  0.75038622  -0.00167956  1
  V  V19  1  -0.00081495  0.00022891  0.00017529  1
  V  V20  1  0.12444844  0.25130826  0.87587740  1
  V  V21  1  -0.00051262  0.87040008  0.37321914  1
  V  V22  1  0.62137779  0.25229619  0.37624442  1
  V  V23  1  0.74214234  -0.00076684  0.73823136  1
  V  V24  1  0.37495548  0.12415478  0.25221171  1
  V  V25  1  0.49960337  0.62482951  0.62386609  1
  V  V26  1  0.62442276  0.00089497  0.12542345  1
  V  V27  1  0.25072835  0.37400250  0.12494871  1
  V  V28  1  -0.00031652  0.12385322  0.62554686  1
  V  V29  1  0.74998358  0.62674645  0.87471879  1
  V  V30  1  0.12306361  0.87421563  0.74915584  1
  V  V31  1  0.87617615  0.37644065  0.00078756  1
  V  V32  1  0.74909170  0.24875449  -0.00015937  1
  V  V33  1  0.12619602  0.49943423  0.62552518  1
  V  V34  1  0.87453252  -0.00304227  0.37917058  1
  V  V35  1  0.12151792  0.87072056  0.24908713  1
  V  V36  1  0.74527119  0.37968414  0.12603893  1
  V  V37  1  0.49985521  0.25329140  0.25346559  1
  V  V38  1  0.37645611  0.87390828  0.49881022  1
  V  V39  1  0.62931189  0.74520763  0.37585309  1
  V  V40  1  0.49988897  0.25040073  0.75070468  1
  V  V41  1  -0.00566789  0.75072521  0.74525677  1
  V  V42  1  0.24979489  0.75109703  -0.00079978  1
  V  V43  1  0.49959111  0.37609682  0.87522018  1
  V  V44  1  -0.00061022  0.37685851  0.37541617  1
  V  V45  1  0.74980712  0.87573624  0.12315618  1
  V  V46  1  0.62117996  0.37784221  0.25175160  1
  V  V47  1  0.24961945  0.12486073  0.87493964  1
  V  V48  1  -0.00153112  0.25183650  0.75024153  1
  V  V49  1  0.25051372  0.37470929  0.62573129  1
  V  V50  1  0.50028550  0.00068649  0.00143648  1
  V  V51  1  0.50271544  0.62235920  0.12410721  1
  V  V52  1  0.37614073  0.50012313  0.87473806  1
  V  V53  1  0.12566678  0.12404742  0.49977215  1
  V  V54  1  0.87498396  0.50075481  0.87579860  1
  V  V55  1  0.37561011  0.62392761  0.24950007  1
  V  V56  1  0.50009098  0.12538791  0.12640725  1
  V  V57  1  0.12484957  0.62539250  0.00062911  1
  V  V58  1  -0.00289913  0.24842607  0.24880323  1
  V  V59  1  0.37841682  0.37358134  0.49394551  1
  V  V60  1  0.24965281  0.62467916  0.87539767  1
  V  V61  1  0.12439935  0.24851935  0.37643870  1
  V  V62  1  0.62510108  0.25085017  0.87646423  1
  V  V63  1  0.62555037  0.62423143  0.00190843  1
  V  V64  1  0.25046772  0.00000066  0.25237861  1
  V  V65  1  0.87250017  0.50218885  0.37581499  1
  V  V66  1  0.49982009  0.49450570  0.49226259  1
  V  V67  1  0.12425059  0.50080236  0.12467432  1
  V  V68  1  0.12359952  -0.00092350  0.62444789  1
  V  V69  1  0.87364904  0.62903659  0.25171540  1
  V  V70  1  0.74905784  0.50072643  0.75061558  1
  V  V71  1  -0.00106735  0.87445460  0.87313053  1
  V  V72  1  0.12359703  0.00036159  0.12522668  1
  V  V73  1  0.62392296  0.49962409  0.62400214  1
  V  V74  1  0.25026821  0.49980532  0.74986067  1
  V  V75  1  0.37443335  0.25010510  0.62536111  1
  V  V76  1  0.24967032  0.87379016  0.62497700  1
  V  V77  1  0.50712991  0.11885721  0.62264068  1
  V  V78  1  0.87195725  0.00017871  0.87408139  1
  V  V79  1  -0.00327635  0.62690329  0.62384722  1
  V  V80  1  0.25203444  0.62317388  0.37357133  1
  V  V81  1  0.37506536  0.62515247  0.74935935  1
  V  V82  1  0.75118177  0.85626050  0.61402679  1
  V  V83  1  0.50050487  0.75132250  0.74961151  1
  V  V84  1  0.87458656  0.87550864  -0.00022866  1
  V  V85  1  0.75054160  0.25090042  0.49931549  1
  V  V86  1  0.62434511  0.87372711  0.24952975  1
  V  V87  1  0.37448077  0.87591329  0.00095898  1
  V  V88  1  0.12657258  0.74942186  0.37108506  1
  V  V89  1  0.50310882  0.49984591  0.00184884  1
  V  V90  1  0.49876595  0.87733816  0.37423774  1
  V  V91  1  0.75036508  0.37424587  0.62507682  1
  V  V92  1  0.12793573  0.62225987  0.49988874  1
  Zn  Zn93  1  0.25256502  0.12506782  0.37839705  1
  Zn  Zn94  1  0.25096611  0.24964319  0.49992836  1
  Zn  Zn95  1  0.62692570  0.75175605  0.87058646  1
  Zn  Zn96  1  0.00121111  0.37861138  0.87540686  1
  Zn  Zn97  1  0.87557893  0.25151782  0.62300696  1
  Zn  Zn98  1  0.37489112  0.00254186  0.87568114  1
  Zn  Zn99  1  -0.00268996  0.12543797  0.12521852  1
  Zn  Zn100  1  0.87589767  0.12537288  0.25023966  1
  Zn  Zn101  1  0.74656809  0.12192692  0.87464845  1
  Zn  Zn102  1  0.50690006  -0.00780519  0.50940123  1
  Zn  Zn103  1  0.62086665  0.87845851  0.73696139  1
  Zn  Zn104  1  0.63064400  0.11685198  0.50160431  1
  Zn  Zn105  1  0.87787594  0.85231856  0.50752911  1
  Zn  Zn106  1  -0.00299402  -0.00402702  0.50162017  1
  Zn  Zn107  1  0.37485760  0.74993177  0.12491719  1
  Zn  Zn108  1  0.12314161  0.74895037  0.87363425  1
  Zn  Zn109  1  0.79007903  0.69214850  0.44334707  1
  Zn  Zn110  1  0.12431386  0.37663333  0.75095265  1
  Zn  Zn111  1  0.00007078  0.50156625  -0.00114716  1
  Zn  Zn112  1  0.87693745  0.37538137  0.50096312  1
  Zn  Zn113  1  0.62435216  0.12538564  0.00007981  1
  Zn  Zn114  1  0.00059909  0.49735049  0.50087573  1
  Zn  Zn115  1  0.24945935  0.87471781  0.12516217  1
  Zn  Zn116  1  0.87379893  0.24827173  0.12699574  1
  Zn  Zn117  1  0.37833618  0.49423112  0.37130675  1
  Zn  Zn118  1  0.37541614  0.00197436  0.37944046  1
  Zn  Zn119  1  0.25127448  0.25035879  0.00096904  1
  Zn  Zn120  1  0.75173470  0.12594004  0.37719088  1
  Zn  Zn121  1  0.37451108  0.37392698  0.00062911  1
  Zn  Zn122  1  0.18636440  0.18625200  0.18831911  1
  Zn  Zn123  1  0.18686828  0.18803428  0.68728869  1
  Zn  Zn124  1  0.18943759  0.68785705  0.18533690  1
  Zn  Zn125  1  0.18478312  0.68732496  0.68810919  1
  Zn  Zn126  1  0.68627186  0.18961580  0.18690191  1
  Zn  Zn127  1  0.68843942  0.18846142  0.68863091  1
  Zn  Zn128  1  0.68825874  0.68778013  0.18616797  1
  Zn  Zn129  1  0.68399720  0.68812397  0.68631284  1
  Zn  Zn130  1  0.30940618  0.30951145  0.31316822  1
  Zn  Zn131  1  0.31251916  0.31292300  0.81282720  1
  Zn  Zn132  1  0.31242195  0.81131548  0.31121345  1
  Zn  Zn133  1  0.31382279  0.81313246  0.81378541  1
  Zn  Zn134  1  0.81137789  0.31603664  0.31487984  1
  Zn  Zn135  1  0.81269197  0.31322069  0.81419316  1
  Zn  Zn136  1  0.81405285  0.81667177  0.30903673  1
  Zn  Zn137  1  0.81146293  0.81554250  0.80845535  1
  Zn  Zn138  1  0.18977560  0.43610718  0.43824801  1
  Zn  Zn139  1  0.18863794  0.43704730  0.93951225  1
  Zn  Zn140  1  0.18720703  0.93730205  0.43735498  1
  Zn  Zn141  1  0.18544146  0.93800307  0.93531966  1
  Zn  Zn142  1  0.68835646  0.43666468  0.43531720  1
  Zn  Zn143  1  0.68733966  0.43834644  0.93763923  1
  Zn  Zn144  1  0.68608201  0.93440957  0.44190263  1
  Zn  Zn145  1  0.68703436  0.94030693  0.93572767  1
  Zn  Zn146  1  0.31092462  0.06349952  0.06436444  1
  Zn  Zn147  1  0.31575949  0.06016470  0.56320883  1
  Zn  Zn148  1  0.31467051  0.56200031  0.06291115  1
  Zn  Zn149  1  0.31398856  0.55933892  0.56148202  1
  Zn  Zn150  1  0.81496749  0.06515578  0.06542725  1
  Zn  Zn151  1  0.81401509  0.06382585  0.56181452  1
  Zn  Zn152  1  0.81162027  0.56196529  0.06463802  1
  Zn  Zn153  1  0.81401115  0.55876049  0.56555537  1
  Zn  Zn154  1  0.43751537  0.43789889  0.18615559  1
  Zn  Zn155  1  0.43733220  0.43749875  0.68434546  1
  Zn  Zn156  1  0.43669471  0.93782379  0.18781465  1
  Zn  Zn157  1  0.43388229  0.93835704  0.68912307  1
  Zn  Zn158  1  0.93619953  0.43948306  0.18668163  1
  Zn  Zn159  1  0.93682260  0.43839405  0.68733569  1
  Zn  Zn160  1  0.93797827  0.93775891  0.18804808  1
  Zn  Zn161  1  0.93113307  0.93757472  0.68523959  1
  Zn  Zn162  1  0.06124501  0.06059265  0.31411382  1
  Zn  Zn163  1  0.06142750  0.06294615  0.81313538  1
  Zn  Zn164  1  0.06092242  0.56277345  0.31092333  1
  Zn  Zn165  1  0.06261302  0.56272962  0.81276908  1
  Zn  Zn166  1  0.56575656  0.06515172  0.31527722  1
  Zn  Zn167  1  0.56257114  0.06421201  0.81408715  1
  Zn  Zn168  1  0.56356099  0.56165080  0.31212823  1
  Zn  Zn169  1  0.56304081  0.56446518  0.81398746  1
  Zn  Zn170  1  0.43805349  0.18847766  0.43748362  1
  Zn  Zn171  1  0.43653186  0.18804422  0.93936978  1
  Zn  Zn172  1  0.44003937  0.68614366  0.43596385  1
  Zn  Zn173  1  0.43677845  0.68952864  0.93594342  1
  Zn  Zn174  1  0.93626085  0.18498464  0.43596643  1
  Zn  Zn175  1  0.93590557  0.18631689  0.93615425  1
  Zn  Zn176  1  0.95262287  0.68456861  0.43309560  1
  Zn  Zn177  1  0.93812321  0.68825014  0.93691157  1
  Zn  Zn178  1  0.06260819  0.31263500  0.06344012  1
  Zn  Zn179  1  0.06294507  0.31296846  0.56257244  1
  Zn  Zn180  1  0.06232397  0.81252137  0.06285252  1
  Zn  Zn181  1  0.06277956  0.81071988  0.55894071  1
  Zn  Zn182  1  0.56252380  0.31337182  0.06578135  1
  Zn  Zn183  1  0.56229257  0.30991512  0.56304771  1
  Zn  Zn184  1  0.56321969  0.81076758  0.06132583  1
  Zn  Zn185  1  0.56751257  0.81174676  0.56101959  1
  O  O186  1  0.12201136  0.11820753  0.11841035  1
  O  O187  1  0.11996716  0.11931526  0.61866034  1
  O  O188  1  0.11723987  0.62165686  0.12201914  1
  O  O189  1  0.11853510  0.61905940  0.62031379  1
  O  O190  1  0.61779309  0.11896062  0.12450442  1
  O  O191  1  0.60917587  0.13200147  0.62598698  1
  O  O192  1  0.61541505  0.62961222  0.11323690  1
  O  O193  1  0.61860768  0.61937609  0.61607108  1
  O  O194  1  0.36936854  0.37418836  0.38958022  1
  O  O195  1  0.38243908  0.38185575  0.87649948  1
  O  O196  1  0.38440908  0.87149671  0.37994963  1
  O  O197  1  0.38462628  0.87712804  0.88435268  1
  O  O198  1  0.88152100  0.38658020  0.37487918  1
  O  O199  1  0.87391352  0.38201759  0.88550378  1
  O  O200  1  0.88503986  0.88027642  0.37235526  1
  O  O201  1  0.87977043  0.88012213  0.88042394  1
  O  O202  1  0.25174720  0.00065634  0.36385529  1
  O  O203  1  0.25011194  0.00690703  0.86803306  1
  O  O204  1  0.25159797  0.50609617  0.36727613  1
  O  O205  1  0.25622489  0.50534258  0.87023804  1
  O  O206  1  0.75729698  -0.00501612  0.36517922  1
  O  O207  1  0.75592017  -0.00031774  0.86531411  1
  O  O208  1  0.76126760  0.49419959  0.36287268  1
  O  O209  1  0.75424867  0.50680954  0.86958823  1
  O  O210  1  0.24462101  0.49586082  0.13067260  1
  O  O211  1  0.24611514  0.49568449  0.63115227  1
  O  O212  1  0.24293964  0.99782939  0.13548720  1
  O  O213  1  0.24429672  0.99274142  0.63091968  1
  O  O214  1  0.75509843  0.48907219  0.13586262  1
  O  O215  1  0.74284923  0.49443366  0.63174712  1
  O  O216  1  0.74540241  0.99467901  0.13199966  1
  O  O217  1  0.74971908  1.00247992  0.63728689  1
  O  O218  1  0.00521519  0.36903115  0.25471000  1
  O  O219  1  0.00074870  0.36376454  0.75244382  1
  O  O220  1  0.01243327  0.88075177  0.25878693  1
  O  O221  1  0.00200558  0.86799833  0.75152438  1
  O  O222  1  0.51308048  0.37060628  0.24148073  1
  O  O223  1  0.50494141  0.37106422  0.75468664  1
  O  O224  1  0.50441515  0.86775287  0.25440322  1
  O  O225  1  0.49942402  0.87187638  0.75785531  1
  O  O226  1  0.49494125  0.13106511  0.24537852  1
  O  O227  1  0.49473960  0.13053957  0.74267255  1
  O  O228  1  0.49748745  0.62659249  0.24108066  1
  O  O229  1  0.49443661  0.62967538  0.74428654  1
  O  O230  1  1.00148322  0.13720124  0.25072334  1
  O  O231  1  0.99498522  0.13275898  0.74594199  1
  O  O232  1  0.98743169  0.61991475  0.23890310  1
  O  O233  1  0.99594136  0.63241821  0.74288591  1
  O  O234  1  0.37299620  0.25291233  0.00974177  1
  O  O235  1  0.37488525  0.25817186  0.50652594  1
  O  O236  1  0.36679625  0.75860342  -0.00090201  1
  O  O237  1  0.37001004  0.75308113  0.50538327  1
  O  O238  1  0.86549472  0.26021798  -0.00172861  1
  O  O239  1  0.86380743  0.25229037  0.49967545  1
  O  O240  1  0.86911684  0.75595408  0.00544403  1
  O  O241  1  0.87582446  0.74091658  0.49045950  1
  O  O242  1  0.12513350  0.23928346  0.49602005  1
  O  O243  1  0.12374164  0.24434462  0.98995987  1
  O  O244  1  0.13271891  0.74258276  0.49316929  1
  O  O245  1  0.13452001  0.74567225  0.99797884  1
  O  O246  1  0.63261455  0.25093026  0.49197035  1
  O  O247  1  0.63442266  0.25273797  0.99585439  1
  O  O248  1  0.61900887  0.73632476  0.48893294  1
  O  O249  1  0.63129387  0.74070032  0.99661573  1
  O  O250  1  0.49491783  0.24507465  0.13251895  1
  O  O251  1  0.49400074  0.24247112  0.63256039  1
  O  O252  1  0.49891763  0.73912242  0.12876069  1
  O  O253  1  0.49408159  0.74498388  0.62913502  1
  O  O254  1  0.99900062  0.25087490  0.13753075  1
  O  O255  1  1.00047400  0.24430907  0.63611881  1
  O  O256  1  0.99319811  0.73836210  0.12015398  1
  O  O257  1  1.00716291  0.73807755  0.63310799  1
  O  O258  1  0.00455594  0.25617666  0.36788479  1
  O  O259  1  0.00795500  0.24980651  0.86649071  1
  O  O260  1  0.01230386  0.76148943  0.37330486  1
  O  O261  1  0.00111972  0.75575284  0.86453737  1
  O  O262  1  0.51131701  0.24674972  0.36857572  1
  O  O263  1  0.50457625  0.25654681  0.87058253  1
  O  O264  1  0.50767585  0.75695045  0.36788985  1
  O  O265  1  0.49899469  0.75994461  0.86851551  1
  O  O266  1  0.23833762  0.12478215  0.50141369  1
  O  O267  1  0.24227444  0.12648526  0.99358005  1
  O  O268  1  0.24717562  0.62907185  0.49450125  1
  O  O269  1  0.24660655  0.63247117  0.99577999  1
  O  O270  1  0.74824201  0.13785291  0.50045246  1
  O  O271  1  0.74907329  0.13839291  1.00027776  1
  O  O272  1  0.73346487  0.61437347  0.50260725  1
  O  O273  1  0.74321621  0.62895654  0.99663173  1
  O  O274  1  0.25315130  0.37234699  0.00916090  1
  O  O275  1  0.26020167  0.37413068  0.50836924  1
  O  O276  1  0.25751559  0.86855275  -0.00238105  1
  O  O277  1  0.25484240  0.86790579  0.50498456  1
  O  O278  1  0.75476359  0.37036044  0.00711735  1
  O  O279  1  0.74987793  0.36679414  0.50629701  1
  O  O280  1  0.75502620  0.87095746  0.00421861  1
  O  O281  1  0.75270834  0.87041908  0.50987055  1
  O  O282  1  0.13030502  0.49510654  0.24422210  1
  O  O283  1  0.13273235  0.49944284  0.74453868  1
  O  O284  1  0.13215071  0.99194950  0.24674082  1
  O  O285  1  0.12899016  0.99426348  0.74410234  1
  O  O286  1  0.63563899  0.49074401  0.25854298  1
  O  O287  1  0.62912210  0.49633743  0.74469133  1
  O  O288  1  0.63274503  0.99373280  0.24609103  1
  O  O289  1  0.63934626  0.99894403  0.75530292  1
  O  O290  1  0.36498587  0.00423987  0.24993895  1
  O  O291  1  0.36581110  0.00673014  0.75235848  1
  O  O292  1  0.36945431  0.50530109  0.25143883  1
  O  O293  1  0.37115183  0.50638224  0.75424636  1
  O  O294  1  0.86575919  -0.00295647  0.25802448  1
  O  O295  1  0.86443463  0.00552292  0.75492928  1
  O  O296  1  0.86761658  0.50789336  0.25626404  1
  O  O297  1  0.86789746  0.50641948  0.75577855  1
  O  O298  1  0.11978925  0.36994842  0.36977213  1
  O  O299  1  0.12328149  0.36420980  0.87417765  1
  O  O300  1  0.11926847  0.87107720  0.36810338  1
  O  O301  1  0.11650548  0.87386803  0.86676468  1
  O  O302  1  0.63142611  0.36423917  0.36296184  1
  O  O303  1  0.61897461  0.37170524  0.86930668  1
  O  O304  1  0.61600345  0.86454675  0.36902765  1
  O  O305  1  0.61101358  0.87381502  0.87583729  1
  O  O306  1  0.38033162  0.13030449  0.13255883  1
  O  O307  1  0.38224266  0.13096277  0.63149821  1
  O  O308  1  0.38573360  0.62700581  0.12988142  1
  O  O309  1  0.37978513  0.62982393  0.62962275  1
  O  O310  1  0.87965693  0.13022370  0.13190567  1
  O  O311  1  0.88254992  0.12789279  0.63187636  1
  O  O312  1  0.88127086  0.62923827  0.13065165  1
  O  O313  1  0.88866694  0.61619627  0.63167566  1
  O  O314  1  0.25555498  0.25604475  0.12657225  1
  O  O315  1  0.25669390  0.25612912  0.62507011  1
  O  O316  1  0.25264455  0.75208177  0.11084936  1
  O  O317  1  0.25471764  0.75400251  0.61984427  1
  O  O318  1  0.75116001  0.26020198  0.11694511  1
  O  O319  1  0.74947995  0.25642332  0.61678424  1
  O  O320  1  0.75524102  0.75664570  0.11803353  1
  O  O321  1  0.75356892  0.75735076  0.62807934  1
  O  O322  1  0.23950606  0.24541693  0.37827459  1
  O  O323  1  0.23924770  0.24439301  0.87426749  1
  O  O324  1  0.24572177  0.74320383  0.38035335  1
  O  O325  1  0.24946813  0.74432007  0.88410679  1
  O  O326  1  0.74302064  0.25080937  0.38355390  1
  O  O327  1  0.74367290  0.25147205  0.88510460  1
  O  O328  1  0.73390847  0.75468513  0.36690437  1
  O  O329  1  0.75036795  0.74500142  0.88025573  1
  O  O330  1  0.00570137  0.11750792  -0.00042278  1
  O  O331  1  0.00952461  0.12282313  0.50613886  1
  O  O332  1  0.00521792  0.62437860  0.00951964  1
  O  O333  1  0.01069153  0.62047523  0.50905755  1
  O  O334  1  0.49999818  0.11828218  0.00817365  1
  O  O335  1  0.49823037  0.12696858  0.51732565  1
  O  O336  1  0.50585687  0.62040537  0.00401130  1
  O  O337  1  0.50687144  0.61564998  0.50492634  1
  O  O338  1  0.49073189  0.38386882  0.50840907  1
  O  O339  1  0.50184098  0.38571280  0.99582187  1
  O  O340  1  0.49502781  0.87077112  0.49011824  1
  O  O341  1  0.49285784  0.87865858  0.99390647  1
  O  O342  1  0.99801791  0.37762889  0.49187308  1
  O  O343  1  0.98708829  0.37656334  1.00004174  1
  O  O344  1  0.99807883  0.87593933  0.48864662  1
  O  O345  1  0.99388560  0.87967504  0.99393844  1
  O  O346  1  0.49861370  0.50273528  0.38860625  1
  O  O347  1  0.49566806  0.49640702  0.88212245  1
  O  O348  1  0.49819010  0.98326615  0.36692064  1
  O  O349  1  0.49790499  0.99212600  0.88125307  1
  O  O350  1  0.98994657  0.49536988  0.37354313  1
  O  O351  1  0.99153823  0.49891902  0.87762291  1
  O  O352  1  0.99170569  0.98922432  0.37549720  1
  O  O353  1  0.99299427  0.99382856  0.87911838  1
  O  O354  1  0.00592119  0.00004461  0.11799130  1
  O  O355  1  0.00564632  0.00523390  0.62447320  1
  O  O356  1  0.00539119  0.51069004  0.12299601  1
  O  O357  1  0.00761064  0.50973473  0.62620773  1
  O  O358  1  0.50551825  0.00485164  0.12175264  1
  O  O359  1  0.49659937  0.01548782  0.62961099  1
  O  O360  1  0.49565614  0.51122145  0.11366581  1
  O  O361  1  0.50541327  0.50564336  0.61648100  1
  O  O362  1  0.24374577  0.38050050  0.24512893  1
  O  O363  1  0.24994639  0.38261221  0.74381601  1
  O  O364  1  0.24230520  0.88334711  0.24890944  1
  O  O365  1  0.24454088  0.87837155  0.74478045  1
  O  O366  1  0.74370424  0.38181172  0.24292312  1
  O  O367  1  0.74387407  0.38091776  0.74621563  1
  O  O368  1  0.74435867  0.88390552  0.24246868  1
  O  O369  1  0.74961889  0.88662705  0.73942589  1
  O  O370  1  0.25452958  0.11466327  0.25170511  1
  O  O371  1  0.25366588  0.11962774  0.75448614  1
  O  O372  1  0.25545209  0.61980929  0.25339267  1
  O  O373  1  0.25576459  0.62066985  0.75493043  1
  O  O374  1  0.74907107  0.11157171  0.25037577  1
  O  O375  1  0.75399115  0.11504001  0.75074096  1
  O  O376  1  0.75936606  0.61353419  0.23994162  1
  O  O377  1  0.75366603  0.62013828  0.75406629  1
  O  O378  1  0.37389710  0.12172881  0.36841983  1
  O  O379  1  0.36846202  0.12531026  0.86830685  1
  O  O380  1  0.36948552  0.62297766  0.36763855  1
  O  O381  1  0.37008383  0.61998566  0.86895867  1
  O  O382  1  0.87240531  0.11180106  0.37024880  1
  O  O383  1  0.87108249  0.11802380  0.86811856  1
  O  O384  1  0.87700183  0.61834322  0.36505289  1
  O  O385  1  0.86871922  0.62065408  0.86933258  1
  O  O386  1  0.13003882  0.38096385  0.13069374  1
  O  O387  1  0.13219160  0.38121212  0.62708407  1
  O  O388  1  0.12519114  0.88029566  0.13366402  1
  O  O389  1  0.13024250  0.87872558  0.62899740  1
  O  O390  1  0.63646133  0.37066485  0.13625267  1
  O  O391  1  0.62923797  0.38042853  0.63147599  1
  O  O392  1  0.62966734  0.87981808  0.12972857  1
  O  O393  1  0.64246653  0.87174794  0.62269297  1
  O  O394  1  0.11703577  0.25564760  0.25588485  1
  O  O395  1  0.11550780  0.24919773  0.75931662  1
  O  O396  1  0.13549774  0.76312170  0.25456732  1
  O  O397  1  0.11396178  0.75575217  0.75111726  1
  O  O398  1  0.62135311  0.25820366  0.25670268  1
  O  O399  1  0.62019713  0.25722291  0.75636629  1
  O  O400  1  0.61926036  0.75291975  0.25518654  1
  O  O401  1  0.61541471  0.75418622  0.75187584  1
  O  O402  1  0.38031006  0.24504225  0.24635709  1
  O  O403  1  0.38083581  0.24511010  0.74585918  1
  O  O404  1  0.38137185  0.74258449  0.24705878  1
  O  O405  1  0.37956269  0.74462922  0.74390398  1
  O  O406  1  0.88575311  0.25153649  0.25241205  1
  O  O407  1  0.88354065  0.24463199  0.75114564  1
  O  O408  1  0.86535557  0.73749672  0.24278995  1
  O  O409  1  0.88745900  0.74428223  0.75359755  1
  O  O410  1  0.38360462  0.49141348  0.49937178  1
  O  O411  1  0.38687576  0.50063681  0.99303816  1
  O  O412  1  0.38218875  0.98988842  0.49870757  1
  O  O413  1  0.37995633  0.99113354  0.99989049  1
  O  O414  1  0.87606000  0.50084916  0.48689463  1
  O  O415  1  0.87260644  0.49101923  0.99520235  1
  O  O416  1  0.87393106  0.99797488  0.48614238  1
  O  O417  1  0.87859920  0.99421214  0.99530445  1
  O  O418  1  0.11881606  0.00370496  0.00473057  1
  O  O419  1  0.12377529  0.00763488  0.50602944  1
  O  O420  1  0.12449317  0.50752813  0.00719794  1
  O  O421  1  0.12616691  0.50598049  0.50692922  1
  O  O422  1  0.61891703  0.00121247  0.00788379  1
  O  O423  1  0.61543766  0.00693525  0.48622267  1
  O  O424  1  0.61431751  0.51144755  -0.00642988  1
  O  O425  1  0.61766458  0.50382465  0.50293571  1
  O  O426  1  0.36849343  0.36864799  0.12532481  1
  O  O427  1  0.37024993  0.36963470  0.61768804  1
  O  O428  1  0.37397778  0.87249319  0.11198843  1
  O  O429  1  0.36945952  0.86823995  0.61995801  1
  O  O430  1  0.86538595  0.37371521  0.11659595  1
  O  O431  1  0.86637480  0.37385628  0.62241275  1
  O  O432  1  0.87020465  0.87021835  0.11986578  1
  O  O433  1  0.85747020  0.88047750  0.62125176  1
  O  O434  1  0.12405114  0.12824593  0.38589779  1
  O  O435  1  0.12914205  0.13263598  0.87959804  1
  O  O436  1  0.13078526  0.62913575  0.37818743  1
  O  O437  1  0.13220858  0.62651400  0.88189582  1
  O  O438  1  0.63044238  0.14014961  0.37469933  1
  O  O439  1  0.62656913  0.13496739  0.87958009  1
  O  O440  1  0.61918433  0.63362164  0.38261903  1
  O  O441  1  0.63104279  0.62807931  0.88454431  1
