# generated using pymatgen
data_V93Zn93O256
_symmetry_space_group_name_H-M   'P 1'
_cell_length_a   17.05685508
_cell_length_b   17.05152676
_cell_length_c   17.05450253
_cell_angle_alpha   90.02814030
_cell_angle_beta   89.99217283
_cell_angle_gamma   90.06320795
_symmetry_Int_Tables_number   1
_chemical_formula_structural   V93Zn93O256
_chemical_formula_sum   'V93 Zn93 O256'
_cell_volume   4960.22030395
_cell_formula_units_Z   1
loop_
 _symmetry_equiv_pos_site_id
 _symmetry_equiv_pos_as_xyz
  1  'x, y, z'
loop_
 _atom_site_type_symbol
 _atom_site_label
 _atom_site_symmetry_multiplicity
 _atom_site_fract_x
 _atom_site_fract_y
 _atom_site_fract_z
 _atom_site_occupancy
  V  V0  1  0.49913769  0.74988307  0.25019280  1
  V  V1  1  -0.00094006  0.87382011  0.87606939  1
  V  V2  1  0.62441222  0.87524917  0.75022932  1
  V  V3  1  0.63381755  0.37815996  0.25096495  1
  V  V4  1  0.63113942  0.49953946  0.12861394  1
  V  V5  1  0.25180093  0.12185670  0.87255184  1
  V  V6  1  0.62396557  0.00753877  0.62149702  1
  V  V7  1  0.25020732  0.25011800  0.00086415  1
  V  V8  1  0.49957209  0.75194123  0.75039528  1
  V  V9  1  0.37257827  0.62742131  0.75127710  1
  V  V10  1  0.37184727  0.75406695  0.62441113  1
  V  V11  1  0.74830530  0.75103085  0.49917411  1
  V  V12  1  0.62038129  0.25722837  0.87122818  1
  V  V13  1  0.75139812  0.12648834  0.87628606  1
  V  V14  1  0.37407614  0.49945154  0.37390879  1
  V  V15  1  0.12573960  0.37427708  0.25042485  1
  V  V16  1  0.37675146  0.25048626  0.12430886  1
  V  V17  1  0.37513417  0.87564457  -0.00022994  1
  V  V18  1  0.87734843  0.25086178  0.62556993  1
  V  V19  1  0.50290074  0.00891239  0.50029340  1
  V  V20  1  0.12405933  0.62450301  0.50066980  1
  V  V21  1  0.87408695  0.74855641  0.62523401  1
  V  V22  1  0.38451564  0.12846390  0.74398953  1
  V  V23  1  0.37354338  0.50045463  0.87671077  1
  V  V24  1  0.24627300  0.37358555  0.62935685  1
  V  V25  1  0.12407015  0.74924935  0.37424910  1
  V  V26  1  0.25122579  0.24883094  0.50268748  1
  V  V27  1  0.87453941  0.87626878  -0.00024066  1
  V  V28  1  0.37591212  0.37310136  0.50073129  1
  V  V29  1  0.88047777  0.12644119  0.75125484  1
  V  V30  1  0.87230744  0.49270554  0.87798175  1
  V  V31  1  0.25090265  0.37520100  0.12598089  1
  V  V32  1  0.50007552  0.49885203  -0.00100145  1
  V  V33  1  0.12238177  0.62425183  -0.00028936  1
  V  V34  1  0.12279763  0.74923854  0.87574641  1
  V  V35  1  0.87382586  0.74973414  0.12552099  1
  V  V36  1  0.87048937  0.62362858  0.25036140  1
  V  V37  1  -0.00150467  0.62361251  0.12438423  1
  V  V38  1  0.24440321  0.49776373  0.75055365  1
  V  V39  1  0.12359055  0.49752925  0.62882970  1
  V  V40  1  0.75126663  0.00002683  0.75074345  1
  V  V41  1  0.74859907  0.00661427  0.25396429  1
  V  V42  1  0.24942349  0.12613958  0.37652333  1
  V  V43  1  -0.00564307  0.49344831  0.00037636  1
  V  V44  1  0.12522511  0.87741787  0.74840724  1
  V  V45  1  0.12486041  0.12454274  0.00035167  1
  V  V46  1  0.74444315  0.49623421  0.74966714  1
  V  V47  1  0.49967336  0.87599779  0.37641109  1
  V  V48  1  0.49980999  0.87548738  0.87508504  1
  V  V49  1  0.24979747  0.74988986  0.50064507  1
  V  V50  1  0.50036929  0.62772975  0.62409278  1
  V  V51  1  0.37553692  -0.00050489  0.37548601  1
  V  V52  1  0.62571596  -0.00008546  0.12451080  1
  V  V53  1  0.87691999  0.87591252  0.49836124  1
  V  V54  1  0.87562630  0.25509002  0.12198447  1
  V  V55  1  0.86984698  0.50033375  0.37055136  1
  V  V56  1  0.50310006  0.24979244  0.25071908  1
  V  V57  1  0.24704719  0.62435203  0.87611873  1
  V  V58  1  -0.00066247  0.74942831  0.25018649  1
  V  V59  1  0.74905521  0.62354774  0.87491781  1
  V  V60  1  0.12484754  0.25425494  0.86898988  1
  V  V61  1  0.12421662  0.00069723  0.12531144  1
  V  V62  1  0.62442456  0.50067022  0.62581818  1
  V  V63  1  0.74998107  0.87560690  0.12483303  1
  V  V64  1  0.37473854  0.12509811  0.24874459  1
  V  V65  1  0.87617512  0.12588359  0.25149387  1
  V  V66  1  0.62636788  0.12664950  0.00066671  1
  V  V67  1  0.24926866  0.00054237  0.25078867  1
  V  V68  1  0.50034653  -0.00037171  -0.00024605  1
  V  V69  1  0.87405447  0.00281242  0.37521911  1
  V  V70  1  0.74863155  0.74990189  -0.00087483  1
  V  V71  1  -0.00276829  0.62426729  0.62548466  1
  V  V72  1  0.74944238  0.87547324  0.62480332  1
  V  V73  1  0.37498853  0.74839047  0.12581606  1
  V  V74  1  0.24918414  0.62324003  0.37473701  1
  V  V75  1  0.50038476  0.12509368  0.12437043  1
  V  V76  1  -0.00040649  0.00015999  0.00083244  1
  V  V77  1  0.74867878  0.23557658  0.49278450  1
  V  V78  1  0.00097625  0.37413046  0.37450122  1
  V  V79  1  0.25048435  0.49959237  0.25031050  1
  V  V80  1  0.12386119  0.87418675  0.25004281  1
  V  V81  1  0.75428330  0.25862586  0.00180502  1
  V  V82  1  0.62401071  0.62453860  0.00079132  1
  V  V83  1  0.37667656  0.37583668  -0.00023917  1
  V  V84  1  0.24982584  0.87502584  0.12455637  1
  V  V85  1  0.74856142  0.62261636  0.37144529  1
  V  V86  1  0.74873532  0.37459176  0.62397166  1
  V  V87  1  0.62421447  0.62570339  0.49998173  1
  V  V88  1  0.00277768  0.37481846  0.86934700  1
  V  V89  1  0.50431166  0.37396974  0.37282320  1
  V  V90  1  0.62587108  0.87431188  0.24992139  1
  V  V91  1  0.62414065  0.75012030  0.37510845  1
  V  V92  1  -0.00077637  0.49943527  0.50026252  1
  Zn  Zn93  1  0.00052214  0.87494483  0.37479508  1
  Zn  Zn94  1  0.57913261  0.32183587  0.70613210  1
  Zn  Zn95  1  0.41940851  0.29055113  0.67191060  1
  Zn  Zn96  1  0.87434247  0.37445194  0.49790911  1
  Zn  Zn97  1  0.12205505  0.12342867  0.50105384  1
  Zn  Zn98  1  0.24658581  0.87850438  0.62305171  1
  Zn  Zn99  1  0.87532704  0.00066641  0.87600228  1
  Zn  Zn100  1  0.12356654  0.24670708  0.37523097  1
  Zn  Zn101  1  0.63751412  0.22061797  0.37084314  1
  Zn  Zn102  1  0.00355408  0.00405519  0.50069017  1
  Zn  Zn103  1  0.24891984  0.74921754  0.00055525  1
  Zn  Zn104  1  0.50058930  0.50189853  0.49818252  1
  Zn  Zn105  1  0.62462863  0.74933125  0.87492427  1
  Zn  Zn106  1  0.49959115  0.62298899  0.12674532  1
  Zn  Zn107  1  0.37508445  0.62446001  0.25039594  1
  Zn  Zn108  1  0.00114199  0.24905428  0.24707681  1
  Zn  Zn109  1  0.25232349  -0.00072005  0.74550326  1
  Zn  Zn110  1  0.00846654  0.25488474  0.74464316  1
  Zn  Zn111  1  0.37362852  0.87726102  0.50063645  1
  Zn  Zn112  1  0.00118431  0.12738010  0.12453694  1
  Zn  Zn113  1  0.12428460  0.49943924  0.12361296  1
  Zn  Zn114  1  -0.00305870  0.74862596  0.75037848  1
  Zn  Zn115  1  0.37577406  0.00006282  0.87365760  1
  Zn  Zn116  1  0.50589810  0.13761071  0.62142919  1
  Zn  Zn117  1  0.12605619  0.00471068  0.62177735  1
  Zn  Zn118  1  0.49642410  0.37417469  0.86195511  1
  Zn  Zn119  1  0.00455085  0.12394844  0.62187930  1
  Zn  Zn120  1  0.75631713  0.38029085  0.12680077  1
  Zn  Zn121  1  0.87387838  0.62494641  0.75009616  1
  Zn  Zn122  1  0.18790941  0.18815004  0.18825922  1
  Zn  Zn123  1  0.19264974  0.18561058  0.68581856  1
  Zn  Zn124  1  0.18662999  0.68585284  0.18676813  1
  Zn  Zn125  1  0.18417325  0.68784746  0.68943674  1
  Zn  Zn126  1  0.68795291  0.18990009  0.18873553  1
  Zn  Zn127  1  0.69616066  0.18442304  0.68670415  1
  Zn  Zn128  1  0.68700583  0.68599773  0.18742133  1
  Zn  Zn129  1  0.68821627  0.68676214  0.68883740  1
  Zn  Zn130  1  0.31408667  0.31126486  0.31394086  1
  Zn  Zn131  1  0.30963875  0.31234530  0.81567649  1
  Zn  Zn132  1  0.31148337  0.81298444  0.31297037  1
  Zn  Zn133  1  0.30950089  0.81284012  0.81444612  1
  Zn  Zn134  1  0.81671439  0.31177760  0.31115289  1
  Zn  Zn135  1  0.81017078  0.31303318  0.81208958  1
  Zn  Zn136  1  0.81122841  0.81301842  0.31263129  1
  Zn  Zn137  1  0.81266251  0.81181364  0.81256659  1
  Zn  Zn138  1  0.18706156  0.43698160  0.44017256  1
  Zn  Zn139  1  0.18523626  0.43752500  0.93920957  1
  Zn  Zn140  1  0.18749145  0.93665660  0.43928782  1
  Zn  Zn141  1  0.18641857  0.93631373  0.93761924  1
  Zn  Zn142  1  0.68824721  0.43678848  0.44064619  1
  Zn  Zn143  1  0.68497283  0.43693560  0.93944395  1
  Zn  Zn144  1  0.68641454  0.94385666  0.43665972  1
  Zn  Zn145  1  0.68728076  0.93816540  0.93592289  1
  Zn  Zn146  1  0.31212088  0.06170602  0.06125140  1
  Zn  Zn147  1  0.31281247  0.06073147  0.56500288  1
  Zn  Zn148  1  0.31068837  0.56244466  0.06277457  1
  Zn  Zn149  1  0.31182115  0.56164722  0.56261974  1
  Zn  Zn150  1  0.81364815  0.06643142  0.06449276  1
  Zn  Zn151  1  0.81647404  0.06088145  0.56598709  1
  Zn  Zn152  1  0.81228865  0.56348897  0.06088180  1
  Zn  Zn153  1  0.81220807  0.56229195  0.55858044  1
  Zn  Zn154  1  0.44108881  0.43832540  0.18718837  1
  Zn  Zn155  1  0.43442618  0.45196776  0.68749311  1
  Zn  Zn156  1  0.43769540  0.93640511  0.18778713  1
  Zn  Zn157  1  0.43767451  0.94287979  0.68901071  1
  Zn  Zn158  1  0.93786542  0.43808702  0.18946277  1
  Zn  Zn159  1  0.93389683  0.43825506  0.68996652  1
  Zn  Zn160  1  0.93821895  0.93760144  0.18682966  1
  Zn  Zn161  1  0.94219326  0.93925867  0.68688060  1
  Zn  Zn162  1  0.06062776  0.06254908  0.31558735  1
  Zn  Zn163  1  0.06271941  0.06152256  0.81394472  1
  Zn  Zn164  1  0.06079868  0.56156236  0.31172767  1
  Zn  Zn165  1  0.06010277  0.56269670  0.81105967  1
  Zn  Zn166  1  0.56099778  0.06259540  0.31302098  1
  Zn  Zn167  1  0.56515050  0.06368172  0.81374595  1
  Zn  Zn168  1  0.56075260  0.56193747  0.31075848  1
  Zn  Zn169  1  0.56131089  0.56327105  0.81315972  1
  Zn  Zn170  1  0.43611220  0.18899826  0.43577969  1
  Zn  Zn171  1  0.43789141  0.18698114  0.93589331  1
  Zn  Zn172  1  0.43638388  0.68747607  0.43757860  1
  Zn  Zn173  1  0.43796210  0.68739669  0.93885688  1
  Zn  Zn174  1  0.93501444  0.18736460  0.43815243  1
  Zn  Zn175  1  0.93904393  0.18899943  0.93865533  1
  Zn  Zn176  1  0.93702226  0.68715295  0.43777469  1
  Zn  Zn177  1  0.93528339  0.68476583  0.93695902  1
  Zn  Zn178  1  0.06198057  0.31229784  0.06039283  1
  Zn  Zn179  1  0.06529880  0.31157068  0.55993036  1
  Zn  Zn180  1  0.06159862  0.81190851  0.06254728  1
  Zn  Zn181  1  0.06074621  0.81151599  0.56417571  1
  Zn  Zn182  1  0.56429504  0.31512165  0.06131317  1
  Zn  Zn183  1  0.56886652  0.31015574  0.54333078  1
  Zn  Zn184  1  0.56186724  0.81200988  0.06237388  1
  Zn  Zn185  1  0.56087187  0.81774395  0.56216472  1
  O  O186  1  0.12573638  0.11908824  0.11898819  1
  O  O187  1  0.12265616  0.12602317  0.62195724  1
  O  O188  1  0.11609137  0.62236840  0.11932745  1
  O  O189  1  0.11808678  0.61917043  0.61903810  1
  O  O190  1  0.61967378  0.12028552  0.12102924  1
  O  O191  1  0.62507110  0.11069258  0.63355341  1
  O  O192  1  0.62383371  0.61620980  0.11988141  1
  O  O193  1  0.62003487  0.62177929  0.61934081  1
  O  O194  1  0.38359826  0.37966345  0.38063921  1
  O  O195  1  0.37328832  0.38211506  0.88281997  1
  O  O196  1  0.38181449  0.88191283  0.37418920  1
  O  O197  1  0.38109699  0.87639140  0.88166723  1
  O  O198  1  0.88467084  0.38431142  0.37260767  1
  O  O199  1  0.88153375  0.38616123  0.87200406  1
  O  O200  1  0.87475676  0.88117461  0.38311203  1
  O  O201  1  0.88010638  0.87635245  0.88266002  1
  O  O202  1  0.25676433  0.00536967  0.36918844  1
  O  O203  1  0.25029119  0.01334977  0.87664685  1
  O  O204  1  0.25419299  0.50350040  0.37047557  1
  O  O205  1  0.25340236  0.50441953  0.87092430  1
  O  O206  1  0.76180165  -0.00893791  0.36226270  1
  O  O207  1  0.75141836  0.00783605  0.86889721  1
  O  O208  1  0.76249353  0.50555482  0.38256000  1
  O  O209  1  0.75413140  0.50036514  0.86947373  1
  O  O210  1  0.24819144  0.49239008  0.13153464  1
  O  O211  1  0.24469221  0.49328650  0.62983150  1
  O  O212  1  0.24458561  0.99519361  0.13111941  1
  O  O213  1  0.24593930  0.99491364  0.62838026  1
  O  O214  1  0.73638231  0.49707374  0.11676905  1
  O  O215  1  0.74603957  0.49379563  0.63040737  1
  O  O216  1  0.74533819  0.99487800  0.13275713  1
  O  O217  1  0.74331788  0.99490950  0.63000572  1
  O  O218  1  0.01008982  0.37643077  0.25811419  1
  O  O219  1  -0.00291570  0.37436446  0.76466174  1
  O  O220  1  0.00595793  0.86696886  0.24954492  1
  O  O221  1  0.00715442  0.87230516  0.75832279  1
  O  O222  1  0.50780250  0.36910030  0.25665515  1
  O  O223  1  0.48594357  0.36992027  0.74641359  1
  O  O224  1  0.50681055  0.87068477  0.25589574  1
  O  O225  1  0.50442530  0.87133523  0.75516038  1
  O  O226  1  0.49332476  0.12933866  0.24294076  1
  O  O227  1  0.48732065  0.12325571  0.75190611  1
  O  O228  1  0.49589423  0.63413377  0.24788028  1
  O  O229  1  0.49302258  0.63144154  0.74461711  1
  O  O230  1  0.98978385  0.12665842  0.24741372  1
  O  O231  1  0.98870241  0.13061467  0.75274626  1
  O  O232  1  0.99278360  0.62985680  0.24413470  1
  O  O233  1  0.99471432  0.62603111  0.74082668  1
  O  O234  1  0.37033929  0.25493175  0.00511878  1
  O  O235  1  0.36793500  0.26431214  0.49616470  1
  O  O236  1  0.37424637  0.75625376  0.01052992  1
  O  O237  1  0.36950569  0.74976201  0.51006770  1
  O  O238  1  0.86597693  0.24276135  0.01068526  1
  O  O239  1  0.86648248  0.25356238  0.51054980  1
  O  O240  1  0.86853920  0.75500925  0.00643442  1
  O  O241  1  0.86766945  0.75759525  0.50307632  1
  O  O242  1  0.14048713  0.25081590  0.49506869  1
  O  O243  1  0.13131819  0.24442107  0.99285948  1
  O  O244  1  0.12917838  0.74386816  0.49452511  1
  O  O245  1  0.12480008  0.74238030  0.99440057  1
  O  O246  1  0.64421745  0.24862687  0.48954905  1
  O  O247  1  0.63371527  0.24560064  0.99240456  1
  O  O248  1  0.62889548  0.74674654  0.49478514  1
  O  O249  1  0.63112485  0.74361748  0.99981662  1
  O  O250  1  0.49638143  0.24468518  0.12959970  1
  O  O251  1  0.51551213  0.25218252  0.62570529  1
  O  O252  1  0.49002954  0.75072317  0.13107847  1
  O  O253  1  0.49138182  0.74701106  0.62963993  1
  O  O254  1  0.99068683  0.24893434  0.12525487  1
  O  O255  1  0.98847012  0.25463941  0.62696376  1
  O  O256  1  0.99278286  0.74364364  0.12981373  1
  O  O257  1  0.99094685  0.74165098  0.62445739  1
  O  O258  1  -0.00124409  0.26425278  0.37229169  1
  O  O259  1  0.00776018  0.25941282  0.87675835  1
  O  O260  1  0.00623951  0.74959392  0.36799135  1
  O  O261  1  0.00435751  0.75542317  0.87556026  1
  O  O262  1  0.50138410  0.26081967  0.36951527  1
  O  O263  1  0.51741599  0.25018366  0.87986011  1
  O  O264  1  0.50502210  0.75574443  0.37060191  1
  O  O265  1  0.50053351  0.75646080  0.86794699  1
  O  O266  1  0.25756801  0.13696247  0.49476631  1
  O  O267  1  0.24619402  0.13067930  0.99252977  1
  O  O268  1  0.24329568  0.62905902  0.49468643  1
  O  O269  1  0.24085829  0.62436874  0.99381214  1
  O  O270  1  0.75822945  0.13768257  0.50454873  1
  O  O271  1  0.74470715  0.13334563  0.99621328  1
  O  O272  1  0.74322345  0.63189528  0.49285320  1
  O  O273  1  0.74408944  0.63050480  0.99436743  1
  O  O274  1  0.25566533  0.37015087  0.00637168  1
  O  O275  1  0.25835235  0.37000774  0.50655417  1
  O  O276  1  0.25630041  0.87358553  0.00708271  1
  O  O277  1  0.25383771  0.86400488  0.50166207  1
  O  O278  1  0.74683567  0.36191820  0.00286622  1
  O  O279  1  0.75308009  0.37049839  0.51277125  1
  O  O280  1  0.75407117  0.87076672  0.00547474  1
  O  O281  1  0.75721361  0.87086945  0.50419951  1
  O  O282  1  0.13032397  0.48940650  0.24873521  1
  O  O283  1  0.13272666  0.50532534  0.74216143  1
  O  O284  1  0.13008142  0.99460856  0.24560051  1
  O  O285  1  0.12609937  0.98711636  0.75250020  1
  O  O286  1  0.61866979  0.49123032  0.23921491  1
  O  O287  1  0.63578677  0.50310968  0.74401054  1
  O  O288  1  0.63227619  0.99250267  0.24254021  1
  O  O289  1  0.63058977  0.99443359  0.74288951  1
  O  O290  1  0.36959395  0.00558354  0.25375390  1
  O  O291  1  0.37260721  0.01286567  0.75514915  1
  O  O292  1  0.36842600  0.49974376  0.25569182  1
  O  O293  1  0.36478782  0.50994222  0.75698220  1
  O  O294  1  0.86810937  0.00515024  0.25446123  1
  O  O295  1  0.86978801  0.01006131  0.75068567  1
  O  O296  1  0.88077184  0.50758911  0.26260125  1
  O  O297  1  0.86188772  0.50164139  0.75863065  1
  O  O298  1  0.11726243  0.37645048  0.36708209  1
  O  O299  1  0.11711822  0.36482381  0.88067819  1
  O  O300  1  0.12366490  0.86693448  0.36717978  1
  O  O301  1  0.11888369  0.86867481  0.87028052  1
  O  O302  1  0.61458951  0.38241393  0.36766171  1
  O  O303  1  0.62350576  0.36099001  0.87635822  1
  O  O304  1  0.62045786  0.86987212  0.36961545  1
  O  O305  1  0.61863444  0.87312623  0.86819281  1
  O  O306  1  0.38013417  0.13079483  0.12887512  1
  O  O307  1  0.37856493  0.12472999  0.64066597  1
  O  O308  1  0.37492784  0.63711283  0.12635697  1
  O  O309  1  0.37905459  0.63358337  0.63029871  1
  O  O310  1  0.87844811  0.13391685  0.13420690  1
  O  O311  1  0.87493346  0.13533877  0.63563885  1
  O  O312  1  0.87843901  0.63023082  0.12991931  1
  O  O313  1  0.87930530  0.63070981  0.62254721  1
  O  O314  1  0.25711016  0.25511349  0.12040765  1
  O  O315  1  0.24932509  0.26175077  0.61564427  1
  O  O316  1  0.25864121  0.75596696  0.12509571  1
  O  O317  1  0.25873713  0.74790075  0.62015267  1
  O  O318  1  0.75751362  0.25069864  0.11728735  1
  O  O319  1  0.75609750  0.25656808  0.61683174  1
  O  O320  1  0.75466356  0.75591600  0.11984806  1
  O  O321  1  0.75343766  0.75564813  0.61836383  1
  O  O322  1  0.25151736  0.24485812  0.38425029  1
  O  O323  1  0.24247399  0.24314230  0.88188828  1
  O  O324  1  0.24402585  0.74325177  0.37955625  1
  O  O325  1  0.24226580  0.74150697  0.87820017  1
  O  O326  1  0.75985532  0.25354299  0.39122790  1
  O  O327  1  0.74435388  0.24681156  0.88391316  1
  O  O328  1  0.74288267  0.74494324  0.38000141  1
  O  O329  1  0.74865941  0.74261004  0.88156315  1
  O  O330  1  0.00766481  0.11812482  0.00028813  1
  O  O331  1  0.00166184  0.12442875  0.50176566  1
  O  O332  1  0.00264371  0.61508366  0.00469031  1
  O  O333  1  0.00510564  0.61904487  0.50495421  1
  O  O334  1  0.50580706  0.12021743  0.00598243  1
  O  O335  1  0.49449853  0.11327072  0.50136268  1
  O  O336  1  0.50619740  0.61745711  0.00175509  1
  O  O337  1  0.50653746  0.62493020  0.50559208  1
  O  O338  1  0.49292510  0.37733798  0.48938628  1
  O  O339  1  0.49274714  0.38140289  0.99749391  1
  O  O340  1  0.49688760  0.88571885  0.49328886  1
  O  O341  1  0.49551353  0.88026665  0.99541185  1
  O  O342  1  1.00000397  0.38056911  0.48915009  1
  O  O343  1  1.00361392  0.38698053  0.99000886  1
  O  O344  1  0.98471705  0.87340849  0.49822971  1
  O  O345  1  0.99391854  0.88005783  0.99631630  1
  O  O346  1  0.49290157  0.49021466  0.37501351  1
  O  O347  1  0.49195852  0.49753772  0.87974190  1
  O  O348  1  0.49466835  0.99520856  0.38138257  1
  O  O349  1  0.50128776  0.99386592  0.88335164  1
  O  O350  1  0.99255937  0.49334882  0.37996379  1
  O  O351  1  0.99223185  0.49388969  0.88036937  1
  O  O352  1  0.98512053  0.99453717  0.37484499  1
  O  O353  1  0.99797168  0.99242007  0.88370331  1
  O  O354  1  0.00746987  0.00101346  0.11872074  1
  O  O355  1  0.00399164  0.00431312  0.62008453  1
  O  O356  1  -0.00232521  0.50426552  0.11559756  1
  O  O357  1  0.00276479  0.50258626  0.61992496  1
  O  O358  1  0.50612692  0.00500561  0.12046090  1
  O  O359  1  0.50818848  0.00196467  0.61652534  1
  O  O360  1  0.50986934  0.50105593  0.11764054  1
  O  O361  1  0.50642403  0.51044641  0.62225506  1
  O  O362  1  0.24369426  0.37885222  0.24676916  1
  O  O363  1  0.25935338  0.38126694  0.73696366  1
  O  O364  1  0.24372573  0.88120315  0.24470993  1
  O  O365  1  0.23813607  0.87604262  0.75093319  1
  O  O366  1  0.73654560  0.37051468  0.25140873  1
  O  O367  1  0.75271819  0.38332677  0.73693860  1
  O  O368  1  0.74553551  0.88310027  0.24375082  1
  O  O369  1  0.74528922  0.88044866  0.74452153  1
  O  O370  1  0.25607578  0.12017126  0.25481676  1
  O  O371  1  0.25906731  0.12385185  0.76075833  1
  O  O372  1  0.24983191  0.61751818  0.25700971  1
  O  O373  1  0.25364110  0.61959007  0.75653772  1
  O  O374  1  0.76142345  0.11299524  0.23986414  1
  O  O375  1  0.76147973  0.11934997  0.75618227  1
  O  O376  1  0.75758099  0.63127960  0.25882689  1
  O  O377  1  0.75050879  0.61428191  0.75584039  1
  O  O378  1  0.37030301  0.11954185  0.36718143  1
  O  O379  1  0.36658414  0.12482428  0.86919859  1
  O  O380  1  0.36711491  0.61818349  0.37498634  1
  O  O381  1  0.36779331  0.62050174  0.87116426  1
  O  O382  1  0.87752376  0.11466492  0.36311443  1
  O  O383  1  0.86998403  0.12673612  0.86676168  1
  O  O384  1  0.86952908  0.61828952  0.37102674  1
  O  O385  1  0.86733025  0.61149985  0.87426383  1
  O  O386  1  0.13108603  0.37528632  0.13396630  1
  O  O387  1  0.13777930  0.38246810  0.61793855  1
  O  O388  1  0.13039467  0.87986011  0.13021629  1
  O  O389  1  0.12457577  0.87124189  0.63853529  1
  O  O390  1  0.62626726  0.38185638  0.13437027  1
  O  O391  1  0.63367934  0.38058398  0.62143414  1
  O  O392  1  0.63036527  0.87993993  0.12988717  1
  O  O393  1  0.63036756  0.88385710  0.63096936  1
  O  O394  1  0.12447438  0.26249410  0.25260535  1
  O  O395  1  0.12650201  0.24454615  0.76591223  1
  O  O396  1  0.11928847  0.75405967  0.25419933  1
  O  O397  1  0.12127686  0.75796106  0.75815171  1
  O  O398  1  0.62062518  0.25894855  0.25417211  1
  O  O399  1  0.63697261  0.24572784  0.76675387  1
  O  O400  1  0.61987980  0.75558108  0.25522934  1
  O  O401  1  0.61770458  0.75699166  0.74966443  1
  O  O402  1  0.38154122  0.24505394  0.24358343  1
  O  O403  1  0.36905921  0.23430387  0.75539959  1
  O  O404  1  0.37978236  0.75114061  0.24070351  1
  O  O405  1  0.37853153  0.74561448  0.74295447  1
  O  O406  1  0.87471712  0.23940282  0.24267515  1
  O  O407  1  0.87200254  0.24278234  0.74105992  1
  O  O408  1  0.87933781  0.74508023  0.24462139  1
  O  O409  1  0.87463744  0.74701196  0.74030756  1
  O  O410  1  0.37486254  0.48848190  0.49408311  1
  O  O411  1  0.37953044  0.49579183  0.99577859  1
  O  O412  1  0.38424799  0.99806694  0.49402592  1
  O  O413  1  0.38283653  0.99356382  1.00004944  1
  O  O414  1  0.88163306  0.49808322  0.48910437  1
  O  O415  1  0.88347177  0.50380692  0.99036488  1
  O  O416  1  0.87067065  0.99097102  0.49070538  1
  O  O417  1  0.88025694  0.99422135  1.00081314  1
  O  O418  1  0.12004841  0.00464772  0.00622428  1
  O  O419  1  0.12179783  0.00278950  0.50035842  1
  O  O420  1  0.11272758  0.50590002  0.00094873  1
  O  O421  1  0.11909817  0.50577246  0.50666635  1
  O  O422  1  0.62100545  0.00590778  0.00622996  1
  O  O423  1  0.61586033  -0.00598348  0.51068853  1
  O  O424  1  0.61909093  0.50410921  0.00712363  1
  O  O425  1  0.62391645  0.50811229  0.50771126  1
  O  O426  1  0.37084781  0.36922867  0.12040214  1
  O  O427  1  0.36772680  0.37953837  0.61546364  1
  O  O428  1  0.37003282  0.86735057  0.12096150  1
  O  O429  1  0.37457296  0.86181949  0.62714080  1
  O  O430  1  0.87193253  0.36049862  0.13714720  1
  O  O431  1  0.86667347  0.36677640  0.62486785  1
  O  O432  1  0.86923098  0.86921753  0.12001500  1
  O  O433  1  0.86864102  0.87053086  0.61652291  1
  O  O434  1  0.13514669  0.12761215  0.37552886  1
  O  O435  1  0.13283795  0.13238793  0.88083249  1
  O  O436  1  0.12925272  0.62890431  0.38055927  1
  O  O437  1  0.12737359  0.62924575  0.88020255  1
  O  O438  1  0.64231167  0.11188208  0.36268505  1
  O  O439  1  0.63182649  0.13450431  0.88131291  1
  O  O440  1  0.62850664  0.63012963  0.37940447  1
  O  O441  1  0.63140316  0.62547335  0.88250022  1
