# generated using pymatgen
data_V93Zn93O256
_symmetry_space_group_name_H-M   'P 1'
_cell_length_a   17.05294531
_cell_length_b   17.05568918
_cell_length_c   17.05531304
_cell_angle_alpha   90.00112821
_cell_angle_beta   89.98603715
_cell_angle_gamma   89.99744950
_symmetry_Int_Tables_number   1
_chemical_formula_structural   V93Zn93O256
_chemical_formula_sum   'V93 Zn93 O256'
_cell_volume   4960.53311935
_cell_formula_units_Z   1
loop_
 _symmetry_equiv_pos_site_id
 _symmetry_equiv_pos_as_xyz
  1  'x, y, z'
loop_
 _atom_site_type_symbol
 _atom_site_label
 _atom_site_symmetry_multiplicity
 _atom_site_fract_x
 _atom_site_fract_y
 _atom_site_fract_z
 _atom_site_occupancy
  V  V0  1  0.50517129  0.37179323  0.36863681  1
  V  V1  1  0.25143898  0.12368291  0.87664289  1
  V  V2  1  0.00082285  0.49838373  -0.00056570  1
  V  V3  1  0.12434155  0.50062961  0.62531607  1
  V  V4  1  0.74948926  0.87592523  0.62341448  1
  V  V5  1  0.25011629  0.24841237  0.00107867  1
  V  V6  1  0.12783100  0.24898969  0.37704809  1
  V  V7  1  0.50101522  0.12387681  0.12506898  1
  V  V8  1  0.49928887  0.74891051  0.75083966  1
  V  V9  1  -0.00099375  0.24839393  0.24957711  1
  V  V10  1  0.62532425  0.49574336  0.12767624  1
  V  V11  1  0.37597839  0.25073474  0.62518767  1
  V  V12  1  0.11774147  0.87437692  0.75397882  1
  V  V13  1  -0.00203646  0.62802013  0.62772727  1
  V  V14  1  0.49938653  0.87466672  0.87483245  1
  V  V15  1  0.49747578  0.63060113  0.12597283  1
  V  V16  1  0.37627655  0.24870315  0.12573953  1
  V  V17  1  0.37412847  0.50257675  0.37334524  1
  V  V18  1  0.74952447  0.49901296  0.74914097  1
  V  V19  1  0.25028586  0.75115734  0.49907306  1
  V  V20  1  0.87510472  0.49976215  0.37407030  1
  V  V21  1  0.61862389  0.25199060  0.87492302  1
  V  V22  1  0.12569293  0.49892748  0.12451107  1
  V  V23  1  0.62499591  -0.00396763  0.12735396  1
  V  V24  1  0.37732946  0.49567723  0.87513746  1
  V  V25  1  -0.00150048  0.37614704  0.37718160  1
  V  V26  1  0.74979399  0.62588798  0.37486079  1
  V  V27  1  0.00081859  -0.00802467  -0.00451832  1
  V  V28  1  0.74531089  0.12901370  0.37220376  1
  V  V29  1  0.87413839  0.87516845  0.50043328  1
  V  V30  1  0.74483360  0.25126218  0.49539118  1
  V  V31  1  0.25038724  0.62486319  0.87529944  1
  V  V32  1  0.12598966  -0.00140077  0.12649580  1
  V  V33  1  0.25672842  0.75400066  0.00532179  1
  V  V34  1  0.37447351  0.37667663  0.49972329  1
  V  V35  1  0.12522361  0.12259154  0.00106762  1
  V  V36  1  0.87591121  0.62495465  0.24996127  1
  V  V37  1  0.24995186  0.37553669  0.62516491  1
  V  V38  1  0.12623990  0.62459705  -0.00022071  1
  V  V39  1  0.25174702  0.50219218  0.24915182  1
  V  V40  1  0.74852379  -0.00444088  0.24979747  1
  V  V41  1  0.25102610  0.37481771  0.12432003  1
  V  V42  1  0.37480231  0.75126616  0.62625644  1
  V  V43  1  0.00032384  0.62342482  0.12546714  1
  V  V44  1  0.49934643  0.50245734  0.49859221  1
  V  V45  1  0.38357086  0.88143835  0.50096682  1
  V  V46  1  0.12651928  0.87557925  0.25136739  1
  V  V47  1  0.74810178  0.37510816  0.62407967  1
  V  V48  1  0.12391129  0.00182947  0.62560928  1
  V  V49  1  0.87285170  0.24993969  0.62493036  1
  V  V50  1  0.37283806  0.12539693  0.25216518  1
  V  V51  1  0.87464100  0.24723287  0.12330338  1
  V  V52  1  0.75052752  0.87338195  0.12461262  1
  V  V53  1  0.62609290  0.62360348  -0.00080387  1
  V  V54  1  0.62003555  0.75762049  0.36700985  1
  V  V55  1  0.74918590  0.50039727  0.24837999  1
  V  V56  1  0.12468197  0.24804352  0.87520620  1
  V  V57  1  0.61702044  0.00157518  0.62121709  1
  V  V58  1  -0.00197677  0.24897774  0.74927724  1
  V  V59  1  0.62411492  0.62592839  0.49983953  1
  V  V60  1  0.74986706  0.75114514  0.49987128  1
  V  V61  1  0.87430332  0.49931321  0.87398622  1
  V  V62  1  0.37458169  0.62445226  0.75022703  1
  V  V63  1  0.62457385  0.87528225  0.74929521  1
  V  V64  1  0.87836837  -0.00801980  0.87480525  1
  V  V65  1  0.00119769  0.74984956  0.25034837  1
  V  V66  1  0.37656732  0.37428896  -0.00294136  1
  V  V67  1  0.37677238  0.63492042  0.24725012  1
  V  V68  1  0.24998299  0.50000343  0.75102260  1
  V  V69  1  0.62034625  0.12328561  0.49894659  1
  V  V70  1  0.37713465  0.12483822  0.75013453  1
  V  V71  1  0.37605992  -0.00303067  0.87845773  1
  V  V72  1  -0.00052792  0.37369217  0.87436699  1
  V  V73  1  0.12622065  0.37557497  0.25014632  1
  V  V74  1  0.62564168  0.12376230  -0.00040860  1
  V  V75  1  0.50022561  0.49405658  -0.00440573  1
  V  V76  1  0.87412319  0.12504168  0.74956563  1
  V  V77  1  0.12538791  0.62578189  0.49950125  1
  V  V78  1  0.12438970  0.37420378  0.74996879  1
  V  V79  1  0.62608530  0.74864905  0.87473195  1
  V  V80  1  0.87506285  0.37255315  -0.00007702  1
  V  V81  1  -0.00057888  0.87528078  0.37505364  1
  V  V82  1  0.74903693  0.00044907  0.74948183  1
  V  V83  1  0.24891224  0.87590293  0.62677294  1
  V  V84  1  0.74885028  0.12454969  0.87482054  1
  V  V85  1  0.87499800  0.74957990  0.12408923  1
  V  V86  1  0.74977383  0.62362155  0.87388196  1
  V  V87  1  0.61815449  0.37417353  0.75333539  1
  V  V88  1  0.00021457  0.00079821  0.50061324  1
  V  V89  1  0.49965990  0.62515953  0.62403185  1
  V  V90  1  0.38077918  0.00369015  0.38180074  1
  V  V91  1  0.87404846  0.00057555  0.37470325  1
  V  V92  1  0.11880198  0.75311618  0.87495679  1
  Zn  Zn93  1  0.62390278  0.49939422  0.62492205  1
  Zn  Zn94  1  0.87404580  0.62618380  0.74898505  1
  Zn  Zn95  1  0.75296720  0.74963052  -0.00195979  1
  Zn  Zn96  1  0.87424887  0.75023426  0.62720112  1
  Zn  Zn97  1  -0.00318676  0.50141243  0.50079489  1
  Zn  Zn98  1  0.49963586  0.76332778  0.23847636  1
  Zn  Zn99  1  0.50614084  0.88525098  0.37048426  1
  Zn  Zn100  1  0.87264712  0.37585664  0.50004038  1
  Zn  Zn101  1  -0.00061878  0.12238962  0.12603821  1
  Zn  Zn102  1  0.50819475  0.24545944  0.25292093  1
  Zn  Zn103  1  0.25031098  0.62683335  0.37247749  1
  Zn  Zn104  1  0.38515121  0.86520445  0.01280262  1
  Zn  Zn105  1  0.49660956  0.12364736  0.61898664  1
  Zn  Zn106  1  0.25864736  0.86996864  0.13303832  1
  Zn  Zn107  1  0.24837890  -0.00143140  0.75205956  1
  Zn  Zn108  1  0.87531810  0.12399620  0.24853470  1
  Zn  Zn109  1  0.12495852  0.12672530  0.50129928  1
  Zn  Zn110  1  -0.00548784  0.75250307  0.75501821  1
  Zn  Zn111  1  0.49650954  0.25524739  0.75372043  1
  Zn  Zn112  1  0.24964200  0.12416013  0.37944961  1
  Zn  Zn113  1  0.74974021  0.25032405  -0.00075483  1
  Zn  Zn114  1  -0.00101382  0.12657580  0.62317814  1
  Zn  Zn115  1  0.88024858  0.86931060  -0.00451244  1
  Zn  Zn116  1  0.12528333  0.75090618  0.37523743  1
  Zn  Zn117  1  0.25057533  -0.00037559  0.25417331  1
  Zn  Zn118  1  0.63403351  0.36342946  0.25574308  1
  Zn  Zn119  1  0.75060765  0.37309387  0.12499674  1
  Zn  Zn120  1  0.24843872  0.24999723  0.50029021  1
  Zn  Zn121  1  0.50179674  -0.00372043  0.00132286  1
  Zn  Zn122  1  0.18709632  0.18665252  0.18851989  1
  Zn  Zn123  1  0.19018321  0.18658792  0.68937606  1
  Zn  Zn124  1  0.18821912  0.68723283  0.18700493  1
  Zn  Zn125  1  0.18608122  0.68895231  0.68829770  1
  Zn  Zn126  1  0.68796949  0.18609377  0.18679581  1
  Zn  Zn127  1  0.68703841  0.18869841  0.68646402  1
  Zn  Zn128  1  0.68707721  0.68567720  0.18629894  1
  Zn  Zn129  1  0.68746270  0.68682787  0.68648408  1
  Zn  Zn130  1  0.31586985  0.31377550  0.31123781  1
  Zn  Zn131  1  0.31190763  0.31231004  0.81354933  1
  Zn  Zn132  1  0.31540247  0.81732724  0.31709017  1
  Zn  Zn133  1  0.30839884  0.81314794  0.81482467  1
  Zn  Zn134  1  0.81271724  0.31240703  0.30974993  1
  Zn  Zn135  1  0.80784753  0.31217211  0.81223726  1
  Zn  Zn136  1  0.81138392  0.81230899  0.31179859  1
  Zn  Zn137  1  0.81059732  0.80980176  0.80869379  1
  Zn  Zn138  1  0.18875714  0.43873528  0.43764443  1
  Zn  Zn139  1  0.18911577  0.43581872  0.93683908  1
  Zn  Zn140  1  0.19162347  0.93981784  0.43797731  1
  Zn  Zn141  1  0.18844832  0.93584847  0.93670491  1
  Zn  Zn142  1  0.68655732  0.44058977  0.43773203  1
  Zn  Zn143  1  0.68860228  0.43481128  0.93769677  1
  Zn  Zn144  1  0.68806256  0.94003221  0.43868663  1
  Zn  Zn145  1  0.68972875  0.93656000  0.93932415  1
  Zn  Zn146  1  0.31400421  0.05652383  0.06613895  1
  Zn  Zn147  1  0.30637706  0.06503864  0.56170713  1
  Zn  Zn148  1  0.31449025  0.56465772  0.06291136  1
  Zn  Zn149  1  0.31231384  0.56284284  0.56294868  1
  Zn  Zn150  1  0.81328013  0.06222585  0.05961592  1
  Zn  Zn151  1  0.80964264  0.06372006  0.56174915  1
  Zn  Zn152  1  0.81223209  0.56131334  0.06092717  1
  Zn  Zn153  1  0.81221000  0.56099561  0.56137793  1
  Zn  Zn154  1  0.43603664  0.44182448  0.18555746  1
  Zn  Zn155  1  0.43773211  0.43901113  0.68590534  1
  Zn  Zn156  1  0.43733675  0.93733666  0.19259531  1
  Zn  Zn157  1  0.43635886  0.93745272  0.68986203  1
  Zn  Zn158  1  0.93707565  0.43481747  0.18794002  1
  Zn  Zn159  1  0.93597986  0.43810795  0.68614123  1
  Zn  Zn160  1  0.93710171  0.93649473  0.18624439  1
  Zn  Zn161  1  0.93707776  0.93767229  0.68664922  1
  Zn  Zn162  1  0.06051156  0.06415656  0.31305026  1
  Zn  Zn163  1  0.06037141  0.06208130  0.81204347  1
  Zn  Zn164  1  0.06379318  0.56259273  0.31370869  1
  Zn  Zn165  1  0.06256164  0.56362818  0.81250520  1
  Zn  Zn166  1  0.56214879  0.06255707  0.31086241  1
  Zn  Zn167  1  0.56061286  0.06346480  0.81098773  1
  Zn  Zn168  1  0.56190486  0.56438952  0.31213008  1
  Zn  Zn169  1  0.56339424  0.56095479  0.81197464  1
  Zn  Zn170  1  0.43650578  0.19094081  0.43794774  1
  Zn  Zn171  1  0.43894494  0.18456237  0.94065322  1
  Zn  Zn172  1  0.43652302  0.68928388  0.43611078  1
  Zn  Zn173  1  0.43947473  0.68279734  0.93711829  1
  Zn  Zn174  1  0.93510610  0.18587810  0.43904515  1
  Zn  Zn175  1  0.93849028  0.18152118  0.93806089  1
  Zn  Zn176  1  0.93735631  0.68916452  0.43827943  1
  Zn  Zn177  1  0.93625419  0.68395628  0.93860296  1
  Zn  Zn178  1  0.06140168  0.31072249  0.06291006  1
  Zn  Zn179  1  0.06035970  0.31301801  0.56218993  1
  Zn  Zn180  1  0.06589336  0.81130126  0.06402783  1
  Zn  Zn181  1  0.06131195  0.81376549  0.56452943  1
  Zn  Zn182  1  0.56269393  0.30959855  0.06324769  1
  Zn  Zn183  1  0.56198605  0.31370628  0.56101045  1
  Zn  Zn184  1  0.56828098  0.81371595  0.05905589  1
  Zn  Zn185  1  0.56403599  0.81091831  0.56117467  1
  O  O186  1  0.12336420  0.11616229  0.11997781  1
  O  O187  1  0.12368292  0.11270745  0.62832619  1
  O  O188  1  0.11961811  0.61835018  0.12010708  1
  O  O189  1  0.11884426  0.62113563  0.61811959  1
  O  O190  1  0.62227900  0.11529452  0.11864403  1
  O  O191  1  0.62441369  0.11772016  0.61769115  1
  O  O192  1  0.61923094  0.61412674  0.12018438  1
  O  O193  1  0.61676042  0.62490853  0.61793142  1
  O  O194  1  0.38220910  0.38355626  0.37983084  1
  O  O195  1  0.36817592  0.38271309  0.88368099  1
  O  O196  1  0.37507757  0.88625416  0.38647392  1
  O  O197  1  0.38024731  0.88350510  0.87399670  1
  O  O198  1  0.88497557  0.38004166  0.37296952  1
  O  O199  1  0.88055894  0.37874243  0.87938623  1
  O  O200  1  0.87950136  0.88085191  0.37993295  1
  O  O201  1  0.86721972  0.88870203  0.87475423  1
  O  O202  1  0.26220565  0.00399251  0.37398497  1
  O  O203  1  0.25856726  0.00538416  0.87417542  1
  O  O204  1  0.25583726  0.50220849  0.36700950  1
  O  O205  1  0.25500098  0.50541471  0.87000821  1
  O  O206  1  0.75400094  0.00506157  0.36672268  1
  O  O207  1  0.75636098  0.00485931  0.86885274  1
  O  O208  1  0.75471108  0.50652879  0.36867345  1
  O  O209  1  0.75490698  0.50389438  0.86959051  1
  O  O210  1  0.24482050  0.49495365  0.12837502  1
  O  O211  1  0.24494330  0.49578409  0.63200792  1
  O  O212  1  0.23307874  0.99964629  0.12747293  1
  O  O213  1  0.23906783  0.99436303  0.62782191  1
  O  O214  1  0.74065626  0.50075692  0.12952975  1
  O  O215  1  0.74721157  0.49338182  0.63019045  1
  O  O216  1  0.74627069  0.99379886  0.13111030  1
  O  O217  1  0.74074363  0.99540825  0.63051858  1
  O  O218  1  0.00620225  0.37012075  0.25869324  1
  O  O219  1  0.00521461  0.36923312  0.75521291  1
  O  O220  1  0.00778646  0.87004452  0.25469260  1
  O  O221  1  0.01374525  0.87179752  0.74408238  1
  O  O222  1  0.49730280  0.37928307  0.26302931  1
  O  O223  1  0.51348307  0.37579600  0.74567189  1
  O  O224  1  0.49627561  0.87204095  0.25843581  1
  O  O225  1  0.50535080  0.86774191  0.75483506  1
  O  O226  1  0.48955790  0.12492415  0.24424465  1
  O  O227  1  0.48614642  0.12818312  0.74681979  1
  O  O228  1  0.49289372  0.62722035  0.24154739  1
  O  O229  1  0.49411263  0.62938377  0.74511870  1
  O  O230  1  0.99567790  0.13339947  0.24849690  1
  O  O231  1  0.99223104  0.13206599  0.74855432  1
  O  O232  1  0.99630039  0.62928459  0.24478272  1
  O  O233  1  1.00039112  0.62597340  0.73851992  1
  O  O234  1  0.36910390  0.25334989  0.00494543  1
  O  O235  1  0.37236635  0.25758752  0.50993110  1
  O  O236  1  0.36048751  0.74786956  -0.00746662  1
  O  O237  1  0.36710394  0.75712440  0.50588347  1
  O  O238  1  0.87747725  0.25356037  0.00718352  1
  O  O239  1  0.86231561  0.25100669  0.50545497  1
  O  O240  1  0.87396922  0.75067574  0.00746762  1
  O  O241  1  0.86717739  0.75755582  0.50037778  1
  O  O242  1  0.12460604  0.25174127  0.48888681  1
  O  O243  1  0.13004863  0.24377691  0.99512960  1
  O  O244  1  0.13403434  0.74362521  0.50157034  1
  O  O245  1  0.13287483  0.74432386  0.99323736  1
  O  O246  1  0.63832436  0.24133436  0.50635503  1
  O  O247  1  0.62689489  0.24376427  0.99213684  1
  O  O248  1  0.63097259  0.74427834  0.49156234  1
  O  O249  1  0.62872226  0.74113082  0.99150369  1
  O  O250  1  0.49153964  0.24137235  0.12362120  1
  O  O251  1  0.48518641  0.25036402  0.62649631  1
  O  O252  1  0.51213398  0.73473239  0.12332733  1
  O  O253  1  0.49406571  0.74537595  0.63137492  1
  O  O254  1  0.99232277  0.24822725  0.13084117  1
  O  O255  1  0.99221751  0.24997721  0.63143810  1
  O  O256  1  0.99630621  0.74277703  0.13040319  1
  O  O257  1  0.99904588  0.73897716  0.62640453  1
  O  O258  1  0.00578255  0.25820112  0.37077909  1
  O  O259  1  0.00516174  0.25380691  0.86986800  1
  O  O260  1  0.00163222  0.75728656  0.36834428  1
  O  O261  1  0.01525582  0.74180007  0.87601335  1
  O  O262  1  0.49329672  0.26939665  0.37432666  1
  O  O263  1  0.51408794  0.24359410  0.87425687  1
  O  O264  1  0.51593340  0.74860280  0.37609381  1
  O  O265  1  0.50537162  0.75301923  0.86942614  1
  O  O266  1  0.24255280  0.13289355  0.49714784  1
  O  O267  1  0.24536738  0.12921580  0.99635429  1
  O  O268  1  0.24186611  0.63447809  0.50208205  1
  O  O269  1  0.24566320  0.63301842  0.99578706  1
  O  O270  1  0.74244481  0.13201492  0.49195628  1
  O  O271  1  0.74308994  0.12540459  0.99223479  1
  O  O272  1  0.74492386  0.63077442  0.49406513  1
  O  O273  1  0.74337050  0.62444196  0.99237440  1
  O  O274  1  0.25488670  0.36823498  0.00572979  1
  O  O275  1  0.25640808  0.37545616  0.50795432  1
  O  O276  1  0.24973042  0.85897959  -0.00156921  1
  O  O277  1  0.25667685  0.86682419  0.50706377  1
  O  O278  1  0.75986429  0.37178342  0.00322669  1
  O  O279  1  0.74793339  0.36649371  0.50276551  1
  O  O280  1  0.75533846  0.87288502  0.01233376  1
  O  O281  1  0.75530676  0.87121631  0.50462282  1
  O  O282  1  0.13103289  0.49556333  0.24395126  1
  O  O283  1  0.13057525  0.49390452  0.74580774  1
  O  O284  1  0.12329311  0.99187176  0.24377045  1
  O  O285  1  0.12512197  0.99239330  0.74385927  1
  O  O286  1  0.63038864  0.50138211  0.24052648  1
  O  O287  1  0.63052995  0.49065859  0.74956852  1
  O  O288  1  0.63751359  1.00650001  0.23895120  1
  O  O289  1  0.63002257  0.99537594  0.74267938  1
  O  O290  1  0.37231474  0.01226543  0.26147085  1
  O  O291  1  0.37290498  0.00779902  0.75911024  1
  O  O292  1  0.36958638  0.51033069  0.25367461  1
  O  O293  1  0.36946477  0.50467908  0.75448188  1
  O  O294  1  0.86609679  0.00126553  0.25490304  1
  O  O295  1  0.87022045  0.00406385  0.75641145  1
  O  O296  1  0.87054082  0.50630001  0.25368972  1
  O  O297  1  0.86754917  0.49989250  0.75703894  1
  O  O298  1  0.11724129  0.37041187  0.37001915  1
  O  O299  1  0.12001020  0.36824546  0.86978098  1
  O  O300  1  0.11904967  0.87636120  0.36656482  1
  O  O301  1  0.13120439  0.86514510  0.86529157  1
  O  O302  1  0.60843650  0.38336657  0.37382099  1
  O  O303  1  0.63212270  0.36377858  0.86511694  1
  O  O304  1  0.62538580  0.86119430  0.38254671  1
  O  O305  1  0.62074454  0.87012151  0.86883857  1
  O  O306  1  0.37958352  0.12715508  0.13290505  1
  O  O307  1  0.37385380  0.13229352  0.63229546  1
  O  O308  1  0.38669890  0.61936431  0.13413356  1
  O  O309  1  0.37927285  0.63139596  0.63094089  1
  O  O310  1  0.87758930  0.13455660  0.12471868  1
  O  O311  1  0.87369027  0.13108828  0.63203140  1
  O  O312  1  0.88103118  0.62858604  0.13018596  1
  O  O313  1  0.88613907  0.62506863  0.62393813  1
  O  O314  1  0.25538801  0.25497772  0.11989501  1
  O  O315  1  0.26047944  0.25752891  0.62732461  1
  O  O316  1  0.24492057  0.74999676  0.10886513  1
  O  O317  1  0.25522439  0.75465954  0.61775599  1
  O  O318  1  0.76305025  0.25078958  0.12218168  1
  O  O319  1  0.75444614  0.25526218  0.61684914  1
  O  O320  1  0.75471501  0.75798351  0.12610519  1
  O  O321  1  0.74855610  0.75800695  0.61763137  1
  O  O322  1  0.23734489  0.25488749  0.37456732  1
  O  O323  1  0.24402874  0.24390657  0.88151809  1
  O  O324  1  0.24896442  0.74963850  0.38932319  1
  O  O325  1  0.24052469  0.74337047  0.88361875  1
  O  O326  1  0.75552705  0.24006373  0.38217210  1
  O  O327  1  0.73923070  0.24148980  0.87515484  1
  O  O328  1  0.74125616  0.74592187  0.37913431  1
  O  O329  1  0.74283228  0.74263127  0.87495774  1
  O  O330  1  0.00828054  0.11178333  0.00141788  1
  O  O331  1  0.00334059  0.11697730  0.50259821  1
  O  O332  1  0.00645076  0.61707747  0.00620099  1
  O  O333  1  0.01024517  0.62586446  0.50726750  1
  O  O334  1  0.50747446  0.11931992  0.00765214  1
  O  O335  1  0.51633526  0.13559787  0.49950235  1
  O  O336  1  0.50449093  0.61535012  0.00770973  1
  O  O337  1  0.50300830  0.62199685  0.50505782  1
  O  O338  1  0.49469827  0.38191958  0.49059255  1
  O  O339  1  0.49361834  0.38755087  1.00804088  1
  O  O340  1  0.48579612  0.86842865  0.49780834  1
  O  O341  1  0.49986303  0.87635976  0.99098257  1
  O  O342  1  0.99769032  0.37748551  0.48774941  1
  O  O343  1  0.99641010  0.37942873  0.99330064  1
  O  O344  1  0.99430827  0.88041624  0.49490023  1
  O  O345  1  1.00109612  0.88749862  1.00446584  1
  O  O346  1  0.49295380  0.49463855  0.37973112  1
  O  O347  1  0.49430345  0.50699202  0.88841068  1
  O  O348  1  0.48602685  1.00373613  0.37542706  1
  O  O349  1  0.49222310  0.99317303  0.87374010  1
  O  O350  1  0.99547498  0.49110657  0.37424353  1
  O  O351  1  0.99599096  0.49365852  0.87985630  1
  O  O352  1  0.99404262  0.99450969  0.38032961  1
  O  O353  1  0.98990347  1.00387458  0.88297811  1
  O  O354  1  0.01035949  0.00014891  0.11792785  1
  O  O355  1  0.00896658  0.00062482  0.61976495  1
  O  O356  1  0.00604675  0.50345078  0.11988983  1
  O  O357  1  0.00629834  0.50823460  0.62261433  1
  O  O358  1  0.51280791  0.00501496  0.12588902  1
  O  O359  1  0.51332922  0.00197857  0.63124424  1
  O  O360  1  0.50751560  0.50851027  0.11740792  1
  O  O361  1  0.49967148  0.50802196  0.61678101  1
  O  O362  1  0.24640991  0.38162306  0.24319832  1
  O  O363  1  0.24354964  0.38067187  0.74551611  1
  O  O364  1  0.23837824  0.87555491  0.25204841  1
  O  O365  1  0.23931875  0.87540164  0.74354669  1
  O  O366  1  0.74983533  0.38492533  0.24653027  1
  O  O367  1  0.74018726  0.37932207  0.74381669  1
  O  O368  1  0.75539420  0.88573067  0.23923857  1
  O  O369  1  0.74255573  0.88076818  0.74321721  1
  O  O370  1  0.26269009  0.12562831  0.25230775  1
  O  O371  1  0.26222768  0.12407052  0.75744922  1
  O  O372  1  0.25853906  0.62078505  0.24938036  1
  O  O373  1  0.25505476  0.61956388  0.75431984  1
  O  O374  1  0.75256998  0.11548636  0.25757356  1
  O  O375  1  0.75460152  0.11913077  0.75465779  1
  O  O376  1  0.75714192  0.62016983  0.25507693  1
  O  O377  1  0.74889882  0.61671781  0.75567212  1
  O  O378  1  0.37448513  0.12230018  0.36946048  1
  O  O379  1  0.37169747  0.11866147  0.86831076  1
  O  O380  1  0.37410978  0.61983130  0.36630922  1
  O  O381  1  0.36985234  0.61728204  0.86855740  1
  O  O382  1  0.86225963  0.11799703  0.37538900  1
  O  O383  1  0.86888387  0.11536928  0.86906014  1
  O  O384  1  0.87044847  0.62080947  0.36909034  1
  O  O385  1  0.86855302  0.61622154  0.87382852  1
  O  O386  1  0.13062112  0.37941973  0.12998020  1
  O  O387  1  0.12892167  0.38026578  0.63054457  1
  O  O388  1  0.12660792  0.88149239  0.13626334  1
  O  O389  1  0.12903051  0.88285724  0.63240807  1
  O  O390  1  0.62498336  0.38821443  0.12535595  1
  O  O391  1  0.63049563  0.37567247  0.63337525  1
  O  O392  1  0.63669433  0.88558235  0.11985199  1
  O  O393  1  0.62862091  0.88254184  0.62851596  1
  O  O394  1  0.11984017  0.25689586  0.25686450  1
  O  O395  1  0.11978662  0.25447407  0.75551877  1
  O  O396  1  0.12022996  0.75855363  0.25093632  1
  O  O397  1  0.12501270  0.75688209  0.75861950  1
  O  O398  1  0.62014481  0.25292609  0.24322467  1
  O  O399  1  0.62246492  0.25650644  0.75642297  1
  O  O400  1  0.62595629  0.74526210  0.26503992  1
  O  O401  1  0.61879203  0.75531877  0.75473209  1
  O  O402  1  0.37895459  0.24165863  0.24409716  1
  O  O403  1  0.37523086  0.24367977  0.74409828  1
  O  O404  1  0.37596540  0.73780231  0.25736687  1
  O  O405  1  0.37886899  0.74456974  0.74633023  1
  O  O406  1  0.88096707  0.24943341  0.23972641  1
  O  O407  1  0.87833098  0.24510338  0.74556749  1
  O  O408  1  0.88127983  0.74401028  0.24472938  1
  O  O409  1  0.87840535  0.74522693  0.74581154  1
  O  O410  1  0.37927232  0.49672064  0.49475041  1
  O  O411  1  0.38192292  0.49555670  0.99582628  1
  O  O412  1  0.36862983  0.99159163  0.49589439  1
  O  O413  1  0.37770915  1.00330285  0.98450992  1
  O  O414  1  0.87646349  0.49655328  0.48923522  1
  O  O415  1  0.88239865  0.49364971  0.99475926  1
  O  O416  1  0.87871533  0.99484140  0.49480745  1
  O  O417  1  0.88387310  0.99871595  0.99152393  1
  O  O418  1  0.11991806  0.00181211  0.00596703  1
  O  O419  1  0.11937839  -0.00238659  0.51073645  1
  O  O420  1  0.12096511  0.50387367  0.00443822  1
  O  O421  1  0.12550178  0.51116871  0.50601111  1
  O  O422  1  0.62638649  0.00523811  0.01029742  1
  O  O423  1  0.63215871  0.01036242  0.51091282  1
  O  O424  1  0.61790194  0.50288005  0.00595881  1
  O  O425  1  0.61759475  0.50906483  0.50086727  1
  O  O426  1  0.36950279  0.37013706  0.11880576  1
  O  O427  1  0.36988506  0.36922546  0.62137895  1
  O  O428  1  0.36504934  0.90097191  0.11664352  1
  O  O429  1  0.36989078  0.87130913  0.62012096  1
  O  O430  1  0.87726950  0.36456614  0.11819730  1
  O  O431  1  0.86666121  0.36851737  0.62310862  1
  O  O432  1  0.86736951  0.86782070  0.12356939  1
  O  O433  1  0.86725145  0.87572712  0.61800459  1
  O  O434  1  0.12584989  0.13828797  0.37375840  1
  O  O435  1  0.13098783  0.12872904  0.87991660  1
  O  O436  1  0.12756700  0.62814608  0.38651898  1
  O  O437  1  0.13151741  0.63059628  0.88015927  1
  O  O438  1  0.63781702  0.11492367  0.38348743  1
  O  O439  1  0.62943606  0.13002563  0.87853045  1
  O  O440  1  0.63089122  0.63343933  0.38053501  1
  O  O441  1  0.62964089  0.62900385  0.87951380  1
