# generated using pymatgen
data_V93Zn93O256
_symmetry_space_group_name_H-M   'P 1'
_cell_length_a   17.04581274
_cell_length_b   17.04727730
_cell_length_c   17.04824940
_cell_angle_alpha   90.04181472
_cell_angle_beta   89.96557906
_cell_angle_gamma   90.03914652
_symmetry_Int_Tables_number   1
_chemical_formula_structural   V93Zn93O256
_chemical_formula_sum   'V93 Zn93 O256'
_cell_volume   4953.95701417
_cell_formula_units_Z   1
loop_
 _symmetry_equiv_pos_site_id
 _symmetry_equiv_pos_as_xyz
  1  'x, y, z'
loop_
 _atom_site_type_symbol
 _atom_site_label
 _atom_site_symmetry_multiplicity
 _atom_site_fract_x
 _atom_site_fract_y
 _atom_site_fract_z
 _atom_site_occupancy
  V  V0  1  0.62738875  0.24711506  0.87556055  1
  V  V1  1  0.62479224  -0.00169503  0.62647198  1
  V  V2  1  0.75018327  0.49979296  0.24917086  1
  V  V3  1  0.37584120  0.37609117  0.49756851  1
  V  V4  1  0.62640307  0.50119049  0.62484457  1
  V  V5  1  0.12935771  0.62809948  -0.00092942  1
  V  V6  1  0.75088175  0.50073946  0.74949973  1
  V  V7  1  0.75432111  0.25171262  0.50248383  1
  V  V8  1  0.49935689  0.12425315  0.62716071  1
  V  V9  1  0.25002491  0.37398101  0.12351171  1
  V  V10  1  0.24883116  -0.00023317  0.74955436  1
  V  V11  1  0.36769513  0.61989639  0.74754900  1
  V  V12  1  0.62630131  0.62531736  0.50020327  1
  V  V13  1  0.12672126  0.24767740  0.37417387  1
  V  V14  1  0.37105488  0.00761895  0.37555604  1
  V  V15  1  0.49869493  0.74857106  0.75003850  1
  V  V16  1  0.00099940  0.62465488  0.12470694  1
  V  V17  1  0.87565659  0.62556899  0.24982714  1
  V  V18  1  0.12461827  0.12412739  -0.00105453  1
  V  V19  1  0.62518136  0.12475186  0.50168373  1
  V  V20  1  0.49933920  0.37430459  0.87409307  1
  V  V21  1  0.37434453  0.87504157  0.49959426  1
  V  V22  1  0.74830696  0.00562971  0.75641080  1
  V  V23  1  0.74930921  0.62762967  0.87438942  1
  V  V24  1  0.25053967  0.75032948  0.49764352  1
  V  V25  1  0.12718843  0.12624541  0.49907322  1
  V  V26  1  -0.00188181  -0.00211377  -0.00059320  1
  V  V27  1  0.12364474  0.00017553  0.12540837  1
  V  V28  1  0.62769539  0.12351459  -0.00394897  1
  V  V29  1  0.37451071  0.24890726  0.12454121  1
  V  V30  1  0.12161745  0.50361977  0.62610704  1
  V  V31  1  0.62513785  0.87552606  0.25023097  1
  V  V32  1  0.62568765  0.62298413  -0.00153661  1
  V  V33  1  0.11676571  0.87099211  0.74911568  1
  V  V34  1  0.25225944  0.50136227  0.24946472  1
  V  V35  1  -0.00301273  0.12816321  0.62907939  1
  V  V36  1  0.25728395  0.87378917  0.11835606  1
  V  V37  1  0.12904864  0.38031294  0.75117084  1
  V  V38  1  0.12442701  0.00101522  0.62492528  1
  V  V39  1  0.11958465  0.75016574  0.87081360  1
  V  V40  1  0.62497014  0.37482073  0.75017144  1
  V  V41  1  0.87548982  0.24933553  0.12578711  1
  V  V42  1  0.74896840  0.87436675  0.12597235  1
  V  V43  1  0.37496829  0.74873722  0.62418782  1
  V  V44  1  0.75074462  0.62600712  0.37569687  1
  V  V45  1  0.75030847  0.37458258  0.12529096  1
  V  V46  1  0.62581981  0.49833019  0.12452903  1
  V  V47  1  0.12444329  0.24960175  0.87287519  1
  V  V48  1  0.00050362  0.75114405  0.24981588  1
  V  V49  1  0.87361308  0.87425866  -0.00010302  1
  V  V50  1  0.49875214  0.12468487  0.12779499  1
  V  V51  1  0.50095154  0.49967778  0.49857449  1
  V  V52  1  0.49989697  0.87543794  0.37477068  1
  V  V53  1  -0.00043848  0.00109943  0.49974836  1
  V  V54  1  0.86981144  0.00583649  0.87633993  1
  V  V55  1  0.49869455  0.74940619  0.24821771  1
  V  V56  1  0.12506793  0.75113025  0.37392939  1
  V  V57  1  0.25111747  0.62505355  0.37253136  1
  V  V58  1  0.49943229  0.62396657  0.12504543  1
  V  V59  1  0.88793422  0.74803760  0.62977405  1
  V  V60  1  0.75116346  0.12466308  0.37565637  1
  V  V61  1  0.87560299  0.37511860  -0.00088379  1
  V  V62  1  0.50002404  0.24842807  0.75005227  1
  V  V63  1  0.62477768  0.25254844  0.37307541  1
  V  V64  1  0.62289759  0.87328603  0.75156832  1
  V  V65  1  0.37481669  0.12464829  0.75004173  1
  V  V66  1  0.00070326  0.37656218  0.37685636  1
  V  V67  1  0.11995482  0.62451796  0.50304786  1
  V  V68  1  0.74897389  0.24639714  -0.00241583  1
  V  V69  1  0.37341885  -0.00324260  0.87694578  1
  V  V70  1  0.62565982  0.75029159  0.37652349  1
  V  V71  1  0.74987321  -0.00041599  0.25131325  1
  V  V72  1  0.75027922  0.87300443  0.62680365  1
  V  V73  1  0.49970358  0.49802222  -0.00197066  1
  V  V74  1  0.88818540  0.62978771  0.74750213  1
  V  V75  1  0.25046195  0.38070355  0.62705078  1
  V  V76  1  0.24905256  0.12355653  0.87466020  1
  V  V77  1  0.25048104  0.24692711  0.49580704  1
  V  V78  1  0.75223013  0.37545635  0.62578057  1
  V  V79  1  0.24923926  0.00585389  0.25403004  1
  V  V80  1  0.87690933  0.50079238  0.37600224  1
  V  V81  1  0.87438122  0.75022927  0.12411568  1
  V  V82  1  0.49429290  -0.00549664  0.00164726  1
  V  V83  1  0.49969982  -0.00044381  0.50091493  1
  V  V84  1  0.87480954  0.87525857  0.50251504  1
  V  V85  1  0.12404247  0.87565104  0.24989348  1
  V  V86  1  0.12597282  0.50052307  0.12331449  1
  V  V87  1  0.24946413  0.87531335  0.62456476  1
  V  V88  1  0.87462014  0.00027272  0.37671981  1
  V  V89  1  -0.00153020  0.12627893  0.12565273  1
  V  V90  1  0.36786380  0.49873921  0.86884310  1
  V  V91  1  0.87910249  0.50004761  0.87508714  1
  V  V92  1  0.49280967  0.87115016  0.87896552  1
  Zn  Zn93  1  0.00135212  0.49824409  0.00119300  1
  Zn  Zn94  1  0.37484722  0.37391021  -0.00301160  1
  Zn  Zn95  1  0.74829654  0.75000820  0.00037833  1
  Zn  Zn96  1  -0.00328315  0.25203395  0.75060132  1
  Zn  Zn97  1  -0.00213855  0.50464861  0.50366669  1
  Zn  Zn98  1  0.25028850  0.24808897  -0.00002110  1
  Zn  Zn99  1  0.87763430  0.37922499  0.50402431  1
  Zn  Zn100  1  0.86931801  0.12960907  0.75536990  1
  Zn  Zn101  1  0.24840963  0.62393885  0.87104087  1
  Zn  Zn102  1  0.25820274  0.75761145  -0.00951014  1
  Zn  Zn103  1  0.50040656  0.62533207  0.62542424  1
  Zn  Zn104  1  0.62319697  0.74921353  0.87573472  1
  Zn  Zn105  1  0.37074548  0.12867119  0.25587134  1
  Zn  Zn106  1  0.37411838  0.24996050  0.62473709  1
  Zn  Zn107  1  0.62293616  0.37496678  0.24915978  1
  Zn  Zn108  1  0.62400718  -0.00076852  0.12513885  1
  Zn  Zn109  1  0.49882590  0.25222439  0.25127088  1
  Zn  Zn110  1  0.00120838  0.37392986  0.87528156  1
  Zn  Zn111  1  0.37507681  0.62862016  0.24797400  1
  Zn  Zn112  1  0.37908418  0.75025291  0.11665786  1
  Zn  Zn113  1  0.50078486  0.37531150  0.37127799  1
  Zn  Zn114  1  0.12396356  0.37401689  0.24934684  1
  Zn  Zn115  1  0.75192550  0.74926360  0.50301085  1
  Zn  Zn116  1  -0.00516818  0.87161922  0.87033486  1
  Zn  Zn117  1  -0.00108176  0.87658493  0.37451490  1
  Zn  Zn118  1  0.87586293  0.12581995  0.25083966  1
  Zn  Zn119  1  0.87598313  0.25271964  0.63094649  1
  Zn  Zn120  1  0.37767828  0.50179552  0.37206214  1
  Zn  Zn121  1  -0.00105637  0.25005509  0.25070355  1
  Zn  Zn122  1  0.18490740  0.18797121  0.18779105  1
  Zn  Zn123  1  0.18721387  0.19100875  0.68568167  1
  Zn  Zn124  1  0.18809491  0.68901160  0.18624639  1
  Zn  Zn125  1  0.18619791  0.68927831  0.68639874  1
  Zn  Zn126  1  0.68851459  0.18568447  0.18684251  1
  Zn  Zn127  1  0.68591261  0.18784921  0.68700869  1
  Zn  Zn128  1  0.68604153  0.68728058  0.18795123  1
  Zn  Zn129  1  0.69065715  0.68812436  0.68774306  1
  Zn  Zn130  1  0.31229251  0.31398395  0.31107280  1
  Zn  Zn131  1  0.31193504  0.31103597  0.81132561  1
  Zn  Zn132  1  0.31353803  0.81560911  0.30828789  1
  Zn  Zn133  1  0.30896852  0.80897807  0.81022130  1
  Zn  Zn134  1  0.81384565  0.31369922  0.31221255  1
  Zn  Zn135  1  0.81125339  0.31138590  0.81374738  1
  Zn  Zn136  1  0.81289885  0.81293199  0.31386597  1
  Zn  Zn137  1  0.81380846  0.81392708  0.81024843  1
  Zn  Zn138  1  0.18742479  0.43807525  0.43774479  1
  Zn  Zn139  1  0.18826667  0.43754367  0.94005292  1
  Zn  Zn140  1  0.18643424  0.93837600  0.43649543  1
  Zn  Zn141  1  0.18367609  0.93721200  0.93539776  1
  Zn  Zn142  1  0.69010449  0.43744476  0.43738698  1
  Zn  Zn143  1  0.68942394  0.43562803  0.93689846  1
  Zn  Zn144  1  0.68881192  0.93652793  0.43897967  1
  Zn  Zn145  1  0.68400487  0.93592420  0.93846670  1
  Zn  Zn146  1  0.31106620  0.06156779  0.06374746  1
  Zn  Zn147  1  0.31220971  0.06334481  0.56332660  1
  Zn  Zn148  1  0.31632382  0.56330916  0.05909887  1
  Zn  Zn149  1  0.31029882  0.56310507  0.56103263  1
  Zn  Zn150  1  0.81123020  0.06126916  0.06438087  1
  Zn  Zn151  1  0.81217152  0.06223991  0.56570440  1
  Zn  Zn152  1  0.81284240  0.56195417  0.06145765  1
  Zn  Zn153  1  0.81545565  0.56531976  0.56378127  1
  Zn  Zn154  1  0.43883158  0.43570481  0.18726598  1
  Zn  Zn155  1  0.43872172  0.43707902  0.68541540  1
  Zn  Zn156  1  0.43644302  0.93853544  0.19091025  1
  Zn  Zn157  1  0.43639616  0.93594105  0.69001112  1
  Zn  Zn158  1  0.93832943  0.43644428  0.18926763  1
  Zn  Zn159  1  0.94041242  0.43780243  0.69009088  1
  Zn  Zn160  1  0.93592278  0.93842414  0.18773916  1
  Zn  Zn161  1  0.93379023  0.94105378  0.68695642  1
  Zn  Zn162  1  0.06109933  0.06494939  0.31248175  1
  Zn  Zn163  1  0.05935349  0.05932888  0.81307354  1
  Zn  Zn164  1  0.06484378  0.56283998  0.31209494  1
  Zn  Zn165  1  0.06646330  0.56148330  0.81181257  1
  Zn  Zn166  1  0.56312353  0.06324553  0.31367900  1
  Zn  Zn167  1  0.56065244  0.05967240  0.81512507  1
  Zn  Zn168  1  0.56437849  0.56364684  0.31161770  1
  Zn  Zn169  1  0.55873773  0.56217824  0.81121520  1
  Zn  Zn170  1  0.43988856  0.18880010  0.44065839  1
  Zn  Zn171  1  0.43827533  0.18489379  0.93889321  1
  Zn  Zn172  1  0.43788064  0.68548035  0.43514161  1
  Zn  Zn173  1  0.43372888  0.68445620  0.93862612  1
  Zn  Zn174  1  0.93961976  0.18713267  0.43801826  1
  Zn  Zn175  1  0.93837367  0.18741587  0.93980481  1
  Zn  Zn176  1  0.93690748  0.69161334  0.43846387  1
  Zn  Zn177  1  0.93917645  0.68690066  0.93816621  1
  Zn  Zn178  1  0.06158023  0.31261889  0.05980760  1
  Zn  Zn179  1  0.06369325  0.31455372  0.56234979  1
  Zn  Zn180  1  0.06417475  0.81266424  0.06088535  1
  Zn  Zn181  1  0.06292275  0.81405706  0.56016974  1
  Zn  Zn182  1  0.56233244  0.31242831  0.06158289  1
  Zn  Zn183  1  0.56373214  0.31249235  0.56320346  1
  Zn  Zn184  1  0.56462151  0.80940769  0.06149710  1
  Zn  Zn185  1  0.56225946  0.81174157  0.56303418  1
  O  O186  1  0.11937754  0.11973285  0.11888053  1
  O  O187  1  0.11814938  0.12025361  0.62013306  1
  O  O188  1  0.12120443  0.62195177  0.11714809  1
  O  O189  1  0.13605136  0.61532625  0.61484924  1
  O  O190  1  0.61393656  0.12419060  0.11631587  1
  O  O191  1  0.61890743  0.11763573  0.62079946  1
  O  O192  1  0.62087030  0.61754917  0.11853981  1
  O  O193  1  0.62477653  0.61834174  0.61913440  1
  O  O194  1  0.37631961  0.37741736  0.38745332  1
  O  O195  1  0.38050938  0.38115333  0.87301466  1
  O  O196  1  0.38041249  0.88433425  0.38056509  1
  O  O197  1  0.38556372  0.87974050  0.86725305  1
  O  O198  1  0.88380405  0.38189716  0.37712809  1
  O  O199  1  0.87456480  0.38586584  0.87914608  1
  O  O200  1  0.87588268  0.88163652  0.38359669  1
  O  O201  1  0.87569535  0.88349003  0.88085740  1
  O  O202  1  0.25967182  -0.00583087  0.36656469  1
  O  O203  1  0.25365205  0.00385514  0.86933777  1
  O  O204  1  0.24926809  0.50472817  0.36431060  1
  O  O205  1  0.26438372  0.49958661  0.87832629  1
  O  O206  1  0.75453646  0.00560637  0.37225257  1
  O  O207  1  0.75644807  -0.00673965  0.86702585  1
  O  O208  1  0.75613640  0.50608273  0.36942950  1
  O  O209  1  0.75986344  0.50711350  0.87015751  1
  O  O210  1  0.24726409  0.49276229  0.12991075  1
  O  O211  1  0.24079409  0.48707926  0.61723550  1
  O  O212  1  0.24438110  0.99169222  0.13227102  1
  O  O213  1  0.24389950  0.99487879  0.62920346  1
  O  O214  1  0.74597200  0.49482806  0.12933084  1
  O  O215  1  0.74557232  0.49552466  0.63046351  1
  O  O216  1  0.74738800  0.99232564  0.13296675  1
  O  O217  1  0.74391781  0.99328529  0.63405846  1
  O  O218  1  0.00346987  0.37266268  0.26236353  1
  O  O219  1  0.01492455  0.37263930  0.75410764  1
  O  O220  1  0.00614297  0.86930710  0.24995872  1
  O  O221  1  0.01394792  0.88380384  0.74876234  1
  O  O222  1  0.50464520  0.37072975  0.25392056  1
  O  O223  1  0.50636679  0.36846935  0.75308250  1
  O  O224  1  0.50568532  0.87089030  0.25578662  1
  O  O225  1  0.50347268  0.86963774  0.75856480  1
  O  O226  1  0.49868000  0.12510092  0.23743594  1
  O  O227  1  0.49502949  0.12797814  0.74630328  1
  O  O228  1  0.50036585  0.63104405  0.24360973  1
  O  O229  1  0.48976312  0.63065680  0.74715789  1
  O  O230  1  0.99733672  0.12792950  0.24037113  1
  O  O231  1  0.99975693  0.12467993  0.73840232  1
  O  O232  1  0.99566732  0.63091936  0.24442208  1
  O  O233  1  0.98655133  0.62128076  0.75552797  1
  O  O234  1  0.37204989  0.25011812  0.01139263  1
  O  O235  1  0.36825783  0.25834849  0.50082140  1
  O  O236  1  0.36902747  0.74633483  0.00396010  1
  O  O237  1  0.37033512  0.75563274  0.50337856  1
  O  O238  1  0.86893899  0.25478406  0.00417937  1
  O  O239  1  0.86171724  0.25087373  0.50142964  1
  O  O240  1  0.87312955  0.75532036  0.00643823  1
  O  O241  1  0.87303039  0.75620453  0.50957663  1
  O  O242  1  0.13312817  0.24757565  0.49347830  1
  O  O243  1  0.12709849  0.24337235  0.98958134  1
  O  O244  1  0.13157552  0.74440772  0.49557211  1
  O  O245  1  0.12940488  0.74293700  0.99201467  1
  O  O246  1  0.63422370  0.24532688  0.49426698  1
  O  O247  1  0.62802032  0.24165969  0.99563027  1
  O  O248  1  0.62582159  0.74388121  0.49402338  1
  O  O249  1  0.62829467  0.73870694  0.99532270  1
  O  O250  1  0.49150435  0.24153379  0.12438653  1
  O  O251  1  0.50011202  0.24235404  0.63164656  1
  O  O252  1  0.50261014  0.74235136  0.13143688  1
  O  O253  1  0.49184537  0.74959059  0.63095997  1
  O  O254  1  0.99396942  0.24425570  0.12479713  1
  O  O255  1  1.00056783  0.24007257  0.62522663  1
  O  O256  1  0.99499388  0.74451938  0.13033669  1
  O  O257  1  0.98703706  0.75571743  0.62252155  1
  O  O258  1  0.00834501  0.25895775  0.37634001  1
  O  O259  1  0.01378883  0.24963757  0.87431603  1
  O  O260  1  0.00680151  0.75261872  0.36711668  1
  O  O261  1  0.01449363  0.75266049  0.87930633  1
  O  O262  1  0.51272873  0.24989527  0.37597894  1
  O  O263  1  0.50522870  0.25454666  0.86971832  1
  O  O264  1  0.50537166  0.75601598  0.36962020  1
  O  O265  1  0.49885787  0.75708796  0.86921675  1
  O  O266  1  0.24437451  0.13917060  0.50810800  1
  O  O267  1  0.24211857  0.12352793  0.99298105  1
  O  O268  1  0.24262933  0.63154862  0.49262081  1
  O  O269  1  0.23620364  0.62500513  0.99973451  1
  O  O270  1  0.74421528  0.13230568  0.49766365  1
  O  O271  1  0.73456406  0.12879631  1.00824622  1
  O  O272  1  0.74347401  0.62564150  0.49287134  1
  O  O273  1  0.74514521  0.62340018  0.98926312  1
  O  O274  1  0.25278048  0.37238766  0.01286761  1
  O  O275  1  0.25794615  0.36903162  0.50610063  1
  O  O276  1  0.24299114  0.87935416  0.01580562  1
  O  O277  1  0.25435503  0.87027858  0.50486228  1
  O  O278  1  0.75594987  0.36869029  0.00615323  1
  O  O279  1  0.75107311  0.36656085  0.50682388  1
  O  O280  1  0.75445574  0.87282563  0.00695518  1
  O  O281  1  0.75667990  0.87513724  0.50915085  1
  O  O282  1  0.13711010  0.49961658  0.24228886  1
  O  O283  1  0.12525933  0.49038103  0.74240309  1
  O  O284  1  0.13115583  0.99640470  0.24673762  1
  O  O285  1  0.13086084  0.99270925  0.74499273  1
  O  O286  1  0.63307056  0.49981462  0.24259331  1
  O  O287  1  0.62971875  0.49474723  0.74492413  1
  O  O288  1  0.63111318  0.99304149  0.25041112  1
  O  O289  1  0.62933816  0.99392372  0.74685299  1
  O  O290  1  0.36711244  0.00150530  0.25997187  1
  O  O291  1  0.36843000  0.00494739  0.75589090  1
  O  O292  1  0.36248995  0.50018330  0.25019804  1
  O  O293  1  0.38251185  0.50806415  0.75681072  1
  O  O294  1  0.86746103  0.00057123  0.25839557  1
  O  O295  1  0.86472981  0.00071819  0.75932168  1
  O  O296  1  0.86979890  0.50710144  0.25508581  1
  O  O297  1  0.87060865  0.50760048  0.75677806  1
  O  O298  1  0.11781123  0.36666188  0.37551583  1
  O  O299  1  0.12901655  0.36787758  0.86790028  1
  O  O300  1  0.12334508  0.86888665  0.36839557  1
  O  O301  1  0.12318064  0.86821744  0.86531537  1
  O  O302  1  0.62614578  0.36343153  0.37521728  1
  O  O303  1  0.61938094  0.36955122  0.86880749  1
  O  O304  1  0.61935237  0.87057882  0.37112567  1
  O  O305  1  0.61150207  0.87328358  0.86968122  1
  O  O306  1  0.38218109  0.13236862  0.12550448  1
  O  O307  1  0.38156567  0.12594655  0.63183221  1
  O  O308  1  0.38540601  0.62428064  0.12762506  1
  O  O309  1  0.37615068  0.62947264  0.63015831  1
  O  O310  1  0.88118961  0.13156967  0.12399677  1
  O  O311  1  0.88573946  0.12655952  0.62759382  1
  O  O312  1  0.88027056  0.62953755  0.13007969  1
  O  O313  1  0.86904162  0.63522203  0.63623630  1
  O  O314  1  0.25667776  0.25706006  0.12569237  1
  O  O315  1  0.24935373  0.26221082  0.61352556  1
  O  O316  1  0.24838033  0.76798407  0.12697194  1
  O  O317  1  0.25565029  0.75645289  0.61741017  1
  O  O318  1  0.75491841  0.25472782  0.11799045  1
  O  O319  1  0.74833755  0.25574241  0.61678880  1
  O  O320  1  0.75694281  0.75560830  0.12562914  1
  O  O321  1  0.75767716  0.75849850  0.62443326  1
  O  O322  1  0.24080080  0.25822598  0.38615366  1
  O  O323  1  0.24079565  0.24273126  0.87570692  1
  O  O324  1  0.24515125  0.74705528  0.37806708  1
  O  O325  1  0.23635646  0.74754944  0.87487462  1
  O  O326  1  0.74396289  0.24573117  0.38385836  1
  O  O327  1  0.73986432  0.25515983  0.88479475  1
  O  O328  1  0.74359220  0.74368183  0.37690622  1
  O  O329  1  0.74921311  0.73672316  0.87476372  1
  O  O330  1  0.00567201  0.11779918  0.00602366  1
  O  O331  1  0.00637566  0.12068046  0.50953051  1
  O  O332  1  0.01158500  0.62368737  0.00634484  1
  O  O333  1  0.01690316  0.62615132  0.49321537  1
  O  O334  1  0.50639171  0.11646790  0.00910857  1
  O  O335  1  0.50559035  0.11867706  0.50739533  1
  O  O336  1  0.50724744  0.61664185  0.00377152  1
  O  O337  1  0.50626252  0.61552261  0.50101322  1
  O  O338  1  0.49220234  0.38195864  0.50082516  1
  O  O339  1  0.49843883  0.38025359  0.99220093  1
  O  O340  1  0.49414483  0.88079577  0.49500279  1
  O  O341  1  0.50583315  0.88413807  0.99174013  1
  O  O342  1  0.99931321  0.37789567  0.48850845  1
  O  O343  1  0.99188041  0.37829193  0.99547053  1
  O  O344  1  0.99366081  0.88414902  0.49878332  1
  O  O345  1  0.99204953  0.88190793  1.00069572  1
  O  O346  1  0.50126329  0.49800221  0.38745596  1
  O  O347  1  0.49243645  0.49269130  0.87850440  1
  O  O348  1  0.49283033  0.99510363  0.38121626  1
  O  O349  1  0.49334561  0.99087672  0.88247353  1
  O  O350  1  0.99631375  0.49230424  0.37431044  1
  O  O351  1  0.98743659  0.49995402  0.87610475  1
  O  O352  1  0.99335636  1.00088336  0.38265563  1
  O  O353  1  0.98961207  0.99614851  0.88176730  1
  O  O354  1  0.00414073  0.00569946  0.11966441  1
  O  O355  1  0.00487017  0.00862425  0.61947381  1
  O  O356  1  0.00758394  0.50678388  0.12574201  1
  O  O357  1  0.01690991  0.49393252  0.62178932  1
  O  O358  1  0.49852762  0.00637619  0.11803034  1
  O  O359  1  0.50460385  0.00348724  0.62086045  1
  O  O360  1  0.50622002  0.50334166  0.11842434  1
  O  O361  1  0.50762416  0.49979505  0.61338352  1
  O  O362  1  0.24847013  0.38332223  0.23977452  1
  O  O363  1  0.24126958  0.36765985  0.73779203  1
  O  O364  1  0.24350926  0.88584330  0.24104879  1
  O  O365  1  0.24152096  0.88109491  0.74296580  1
  O  O366  1  0.74921138  0.38266419  0.24311756  1
  O  O367  1  0.74389509  0.38116558  0.74572625  1
  O  O368  1  0.74436739  0.87975244  0.24647382  1
  O  O369  1  0.74259424  0.88375771  0.74616957  1
  O  O370  1  0.25019306  0.10935920  0.24321310  1
  O  O371  1  0.25395368  0.11950273  0.75385238  1
  O  O372  1  0.25024565  0.61677907  0.25273624  1
  O  O373  1  0.26427877  0.62849034  0.74883076  1
  O  O374  1  0.75078711  0.11744914  0.25760824  1
  O  O375  1  0.74751756  0.10925572  0.74507819  1
  O  O376  1  0.75606802  0.61991342  0.25533713  1
  O  O377  1  0.75600963  0.61854913  0.75949697  1
  O  O378  1  0.38130852  0.11146546  0.37616988  1
  O  O379  1  0.36934234  0.11820619  0.86954102  1
  O  O380  1  0.36653952  0.62202509  0.37077128  1
  O  O381  1  0.37342115  0.61526534  0.86456602  1
  O  O382  1  0.86838230  0.11879570  0.37594962  1
  O  O383  1  0.87809535  0.10992665  0.87663841  1
  O  O384  1  0.87103612  0.62175721  0.36903229  1
  O  O385  1  0.86815129  0.61904264  0.86979443  1
  O  O386  1  0.13457199  0.37961067  0.12492527  1
  O  O387  1  0.13233758  0.38188876  0.63093654  1
  O  O388  1  0.13145284  0.88211181  0.13123988  1
  O  O389  1  0.13022966  0.88019737  0.63026629  1
  O  O390  1  0.63273633  0.38050577  0.12445436  1
  O  O391  1  0.63145746  0.38084109  0.63115560  1
  O  O392  1  0.63061765  0.87577631  0.13248943  1
  O  O393  1  0.62875613  0.88024390  0.63104553  1
  O  O394  1  0.12495112  0.25192285  0.26227243  1
  O  O395  1  0.12493387  0.25833642  0.75888376  1
  O  O396  1  0.11973608  0.75501724  0.25456461  1
  O  O397  1  0.12971148  0.76064631  0.75604103  1
  O  O398  1  0.62642458  0.24937360  0.26264833  1
  O  O399  1  0.61990762  0.25445881  0.75551805  1
  O  O400  1  0.61922197  0.75570609  0.25715744  1
  O  O401  1  0.61742130  0.75530970  0.75174758  1
  O  O402  1  0.37523912  0.24630545  0.24010268  1
  O  O403  1  0.38181943  0.24230762  0.74818332  1
  O  O404  1  0.38425085  0.75114617  0.24337370  1
  O  O405  1  0.37912250  0.74172449  0.74342834  1
  O  O406  1  0.87614563  0.24727557  0.24136723  1
  O  O407  1  0.87796572  0.24527155  0.75024881  1
  O  O408  1  0.88052947  0.74494880  0.24458791  1
  O  O409  1  0.87111220  0.74180531  0.74246547  1
  O  O410  1  0.38338270  0.49238014  0.49971020  1
  O  O411  1  0.38256885  0.49828923  0.98797529  1
  O  O412  1  0.37837988  0.99500740  0.49420148  1
  O  O413  1  0.38707455  1.00661660  0.99356275  1
  O  O414  1  0.87927530  0.50134875  0.49226541  1
  O  O415  1  0.87579338  0.49526213  0.99031606  1
  O  O416  1  0.87934382  0.99525808  0.49672746  1
  O  O417  1  0.87689151  0.99425688  0.99398743  1
  O  O418  1  0.11799740  0.00522330  0.00471428  1
  O  O419  1  0.12108168  0.00570744  0.50540143  1
  O  O420  1  0.12332283  0.50947341  0.00438134  1
  O  O421  1  0.12552738  0.50921160  0.50633453  1
  O  O422  1  0.61317791  0.00719932  0.00121524  1
  O  O423  1  0.61921242  0.00453608  0.50613118  1
  O  O424  1  0.62073904  0.50323455  0.00429430  1
  O  O425  1  0.61912379  0.50402469  0.50436339  1
  O  O426  1  0.36702519  0.36571981  0.12380837  1
  O  O427  1  0.36788577  0.37416901  0.61574333  1
  O  O428  1  0.35922609  0.87883158  0.12852804  1
  O  O429  1  0.36901627  0.87046699  0.61937234  1
  O  O430  1  0.87013331  0.37034009  0.11903297  1
  O  O431  1  0.86851849  0.37410529  0.62423115  1
  O  O432  1  0.86851617  0.86970963  0.12021624  1
  O  O433  1  0.86951636  0.86906708  0.62273444  1
  O  O434  1  0.11765147  0.13885392  0.38379636  1
  O  O435  1  0.12932609  0.13039581  0.87776233  1
  O  O436  1  0.13251378  0.63133068  0.38139786  1
  O  O437  1  0.12702148  0.63110124  0.88061649  1
  O  O438  1  0.63061346  0.13221527  0.38266113  1
  O  O439  1  0.61457803  0.13071020  0.88838098  1
  O  O440  1  0.63123817  0.63070694  0.38019106  1
  O  O441  1  0.63490412  0.62127709  0.87859810  1
