# generated using pymatgen
data_V93Zn93O256
_symmetry_space_group_name_H-M   'P 1'
_cell_length_a   17.05262332
_cell_length_b   17.05020337
_cell_length_c   17.05049634
_cell_angle_alpha   89.96222282
_cell_angle_beta   89.95462640
_cell_angle_gamma   90.03982643
_symmetry_Int_Tables_number   1
_chemical_formula_structural   V93Zn93O256
_chemical_formula_sum   'V93 Zn93 O256'
_cell_volume   4957.43983819
_cell_formula_units_Z   1
loop_
 _symmetry_equiv_pos_site_id
 _symmetry_equiv_pos_as_xyz
  1  'x, y, z'
loop_
 _atom_site_type_symbol
 _atom_site_label
 _atom_site_symmetry_multiplicity
 _atom_site_fract_x
 _atom_site_fract_y
 _atom_site_fract_z
 _atom_site_occupancy
  V  V0  1  0.50615739  0.25635534  0.75120394  1
  V  V1  1  0.62346962  0.62349029  0.50089192  1
  V  V2  1  0.49562236  0.50166474  -0.00482994  1
  V  V3  1  0.87394490  0.50127511  0.87572205  1
  V  V4  1  -0.00004569  -0.00104792  0.49987620  1
  V  V5  1  0.62382089  0.12404210  0.50070217  1
  V  V6  1  0.12520266  0.37446391  0.25104186  1
  V  V7  1  0.37544368  0.49915172  0.37563391  1
  V  V8  1  0.74879738  0.62662199  0.87364523  1
  V  V9  1  0.62499340  0.00101572  0.12291672  1
  V  V10  1  0.49632100  -0.00074289  -0.00095130  1
  V  V11  1  0.25044297  0.62477689  0.37628498  1
  V  V12  1  0.74356216  0.49333620  0.75140286  1
  V  V13  1  0.25481735  0.87422127  0.11658230  1
  V  V14  1  -0.00639761  0.24598113  0.75068228  1
  V  V15  1  0.12588181  0.12514550  0.00019429  1
  V  V16  1  0.75623825  0.00463024  0.74909828  1
  V  V17  1  0.25026778  0.50020757  0.25002041  1
  V  V18  1  0.00177430  0.12417164  0.12475513  1
  V  V19  1  0.50611131  0.37714397  0.87209803  1
  V  V20  1  0.50060858  0.12530877  0.12471548  1
  V  V21  1  0.12453901  0.50149272  0.12516752  1
  V  V22  1  0.12568421  0.62405774  0.50124332  1
  V  V23  1  -0.00804769  0.12474713  0.62912953  1
  V  V24  1  0.50001883  0.12555855  0.62581398  1
  V  V25  1  0.25287617  0.50337956  0.76290269  1
  V  V26  1  0.62708903  0.49868154  0.12669841  1
  V  V27  1  0.49993567  0.62707936  0.12612132  1
  V  V28  1  0.24971148  0.24943310  0.50130222  1
  V  V29  1  0.12553156  -0.00064711  0.62538729  1
  V  V30  1  0.00087955  0.00058006  -0.00021462  1
  V  V31  1  0.25093679  0.37559171  0.12549307  1
  V  V32  1  0.25078433  -0.00116567  0.24993031  1
  V  V33  1  0.75007526  0.62271662  0.37507745  1
  V  V34  1  0.87346384  0.25050458  0.12358790  1
  V  V35  1  0.12591450  0.37446476  0.75085762  1
  V  V36  1  0.37095121  0.62593930  0.76922772  1
  V  V37  1  0.87590391  0.87385066  0.49891279  1
  V  V38  1  0.37582541  0.62630693  0.24997844  1
  V  V39  1  -0.00054080  0.49838142  0.50078168  1
  V  V40  1  0.75028419  0.75186445  -0.00166797  1
  V  V41  1  0.12516537  0.12519536  0.50071569  1
  V  V42  1  0.75053935  0.87613184  0.12326170  1
  V  V43  1  0.25210014  0.74856295  0.50405055  1
  V  V44  1  0.87630096  0.74991058  0.12418325  1
  V  V45  1  0.00129359  0.24873088  0.25070886  1
  V  V46  1  0.12468365  0.50025482  0.62790759  1
  V  V47  1  0.37421017  0.25152152  0.62532134  1
  V  V48  1  -0.00120209  0.62461588  0.62513500  1
  V  V49  1  0.75204485  0.12355354  0.37357238  1
  V  V50  1  0.00073021  0.87477036  0.87258115  1
  V  V51  1  0.87505669  0.74841633  0.62497682  1
  V  V52  1  0.48884865  0.62989609  0.62462108  1
  V  V53  1  0.25037580  0.00011012  0.74952164  1
  V  V54  1  0.75533403  0.12839783  0.87268721  1
  V  V55  1  0.62586585  0.87411709  0.24983862  1
  V  V56  1  -0.00018995  0.37378538  0.37638858  1
  V  V57  1  0.37359208  0.37469500  0.50025390  1
  V  V58  1  0.75196163  0.25279731  0.50086434  1
  V  V59  1  0.87344358  0.62512306  0.74860529  1
  V  V60  1  0.37660384  0.25010369  0.12502409  1
  V  V61  1  0.25325792  0.87316151  0.62525445  1
  V  V62  1  0.37578848  0.75506041  0.12036765  1
  V  V63  1  0.00073242  0.75019311  0.24911527  1
  V  V64  1  0.00127499  0.87421783  0.37483466  1
  V  V65  1  0.49899080  0.37447682  0.37459350  1
  V  V66  1  0.75139277  -0.00006812  0.24917928  1
  V  V67  1  0.50172159  0.87382423  0.37425704  1
  V  V68  1  0.62479728  0.62661435  -0.00048326  1
  V  V69  1  0.37488147  0.12686184  0.75027054  1
  V  V70  1  0.62452812  0.87425345  0.74916216  1
  V  V71  1  0.74930214  0.87477013  0.62407630  1
  V  V72  1  0.24985228  0.25012145  -0.00023862  1
  V  V73  1  0.62319743  0.49492816  0.63020894  1
  V  V74  1  0.25010834  0.12506064  0.87578544  1
  V  V75  1  0.62409194  -0.00018598  0.62444746  1
  V  V76  1  0.49626205  0.87599230  0.87720233  1
  V  V77  1  0.87556556  0.87655131  -0.00222305  1
  V  V78  1  0.25014230  0.12385387  0.37596067  1
  V  V79  1  0.37617510  0.87144051  0.50274857  1
  V  V80  1  -0.00126894  0.37542596  0.87485326  1
  V  V81  1  0.87529760  0.49864602  0.37546581  1
  V  V82  1  0.37559866  -0.00164561  0.87595928  1
  V  V83  1  0.74989353  0.74849677  0.49973644  1
  V  V84  1  0.37482585  0.37963534  -0.00618808  1
  V  V85  1  0.00004973  0.50230926  0.00105433  1
  V  V86  1  0.62366199  0.75210542  0.87315229  1
  V  V87  1  0.50019276  0.24991463  0.24963791  1
  V  V88  1  0.87544552  0.62451086  0.24990478  1
  V  V89  1  0.62387392  0.25045115  0.37399211  1
  V  V90  1  0.12688406  0.87355086  0.24949640  1
  V  V91  1  0.37470180  -0.00094706  0.37469705  1
  V  V92  1  0.13074508  0.74360915  0.87733056  1
  Zn  Zn93  1  0.87093162  0.25033920  0.62860230  1
  Zn  Zn94  1  0.75118095  0.49699465  0.24982679  1
  Zn  Zn95  1  0.62545318  0.74761339  0.37239657  1
  Zn  Zn96  1  0.49722461  0.49948253  0.50270163  1
  Zn  Zn97  1  0.49046296  0.75404424  0.74479498  1
  Zn  Zn98  1  0.12750439  -0.00151573  0.12436403  1
  Zn  Zn99  1  0.49954234  -0.00046810  0.50141280  1
  Zn  Zn100  1  0.87641473  -0.00155575  0.37289345  1
  Zn  Zn101  1  0.87893911  0.00515721  0.86953423  1
  Zn  Zn102  1  0.13553769  0.62173980  -0.00188431  1
  Zn  Zn103  1  0.50195239  0.75003199  0.24924590  1
  Zn  Zn104  1  0.00183959  0.74934328  0.74916727  1
  Zn  Zn105  1  0.25854107  0.74524096  -0.00681892  1
  Zn  Zn106  1  0.12383619  0.24886124  0.87545590  1
  Zn  Zn107  1  0.74730126  0.37188585  0.62972928  1
  Zn  Zn108  1  0.12540182  0.74777603  0.37396725  1
  Zn  Zn109  1  0.62738111  0.37537855  0.25011630  1
  Zn  Zn110  1  0.00229499  0.62669714  0.12405714  1
  Zn  Zn111  1  0.74991218  0.37373185  0.12484314  1
  Zn  Zn112  1  0.87790228  0.12286338  0.24940256  1
  Zn  Zn113  1  0.62483143  0.12829227  -0.00304542  1
  Zn  Zn114  1  0.74663501  0.25236579  0.00164218  1
  Zn  Zn115  1  0.87520715  0.37463190  0.50420823  1
  Zn  Zn116  1  0.25180476  0.37658077  0.62727899  1
  Zn  Zn117  1  0.12557710  0.87251872  0.74941378  1
  Zn  Zn118  1  0.37449600  0.12509320  0.25042125  1
  Zn  Zn119  1  0.62597030  0.25111008  0.87603769  1
  Zn  Zn120  1  0.87158904  0.37554507  0.00106822  1
  Zn  Zn121  1  0.12503404  0.24936253  0.37620541  1
  Zn  Zn122  1  0.18775765  0.18672204  0.18770323  1
  Zn  Zn123  1  0.18474464  0.18754068  0.68690858  1
  Zn  Zn124  1  0.18858912  0.68790317  0.18433296  1
  Zn  Zn125  1  0.18923869  0.68734027  0.69168859  1
  Zn  Zn126  1  0.68639389  0.18683495  0.18813757  1
  Zn  Zn127  1  0.68654353  0.18618090  0.68818679  1
  Zn  Zn128  1  0.68881583  0.68737781  0.18816480  1
  Zn  Zn129  1  0.68395372  0.68561339  0.68702478  1
  Zn  Zn130  1  0.31277585  0.31047907  0.31314874  1
  Zn  Zn131  1  0.31380210  0.31320229  0.81318582  1
  Zn  Zn132  1  0.31268124  0.81095779  0.31104160  1
  Zn  Zn133  1  0.31419028  0.81110396  0.80948460  1
  Zn  Zn134  1  0.81346312  0.31423694  0.30884300  1
  Zn  Zn135  1  0.81443429  0.31412712  0.81470644  1
  Zn  Zn136  1  0.81329889  0.81088918  0.31282991  1
  Zn  Zn137  1  0.81318146  0.81433252  0.81014061  1
  Zn  Zn138  1  0.18716000  0.43631338  0.43823327  1
  Zn  Zn139  1  0.18491521  0.43674867  0.93885658  1
  Zn  Zn140  1  0.18619750  0.93704859  0.43654362  1
  Zn  Zn141  1  0.18564446  0.93643126  0.93708737  1
  Zn  Zn142  1  0.68563048  0.43768587  0.43779913  1
  Zn  Zn143  1  0.68722437  0.43671405  0.94161767  1
  Zn  Zn144  1  0.68696607  0.93795103  0.43769742  1
  Zn  Zn145  1  0.68545569  0.94177800  0.93538194  1
  Zn  Zn146  1  0.31443286  0.06204373  0.06297804  1
  Zn  Zn147  1  0.31404934  0.06123531  0.56182518  1
  Zn  Zn148  1  0.31182654  0.56698532  0.06181972  1
  Zn  Zn149  1  0.30927272  0.55771731  0.56645069  1
  Zn  Zn150  1  0.81472306  0.06456643  0.05870787  1
  Zn  Zn151  1  0.81249201  0.06112547  0.55974221  1
  Zn  Zn152  1  0.81304729  0.56453966  0.06218029  1
  Zn  Zn153  1  0.81054293  0.55945931  0.56341705  1
  Zn  Zn154  1  0.43909861  0.43741874  0.18623682  1
  Zn  Zn155  1  0.43493223  0.44277605  0.68899657  1
  Zn  Zn156  1  0.43708614  0.93795358  0.18863318  1
  Zn  Zn157  1  0.43739232  0.93875930  0.68896879  1
  Zn  Zn158  1  0.93765228  0.43606741  0.18874736  1
  Zn  Zn159  1  0.93312214  0.43494038  0.68708876  1
  Zn  Zn160  1  0.93815358  0.93817307  0.18721462  1
  Zn  Zn161  1  0.93768282  0.93567857  0.68601621  1
  Zn  Zn162  1  0.06501690  0.06076061  0.31223229  1
  Zn  Zn163  1  0.06517635  0.06169728  0.81181218  1
  Zn  Zn164  1  0.06201076  0.56272395  0.31273699  1
  Zn  Zn165  1  0.06117185  0.56228002  0.81130807  1
  Zn  Zn166  1  0.56308135  0.06154856  0.31128163  1
  Zn  Zn167  1  0.56709060  0.06519045  0.81131402  1
  Zn  Zn168  1  0.56086120  0.56106130  0.31269143  1
  Zn  Zn169  1  0.55846221  0.56536475  0.81123239  1
  Zn  Zn170  1  0.43651780  0.18710087  0.43799371  1
  Zn  Zn171  1  0.43744568  0.18853256  0.93734117  1
  Zn  Zn172  1  0.43714524  0.68822382  0.43830467  1
  Zn  Zn173  1  0.43944040  0.69052588  0.93945385  1
  Zn  Zn174  1  0.93745428  0.18707045  0.43864393  1
  Zn  Zn175  1  0.93653865  0.18808262  0.93804575  1
  Zn  Zn176  1  0.93794377  0.68662593  0.43635826  1
  Zn  Zn177  1  0.94005756  0.68784107  0.93615536  1
  Zn  Zn178  1  0.06148529  0.31331921  0.06295403  1
  Zn  Zn179  1  0.06237821  0.31114767  0.56490659  1
  Zn  Zn180  1  0.06524840  0.81387528  0.06166497  1
  Zn  Zn181  1  0.06476093  0.81086946  0.56204811  1
  Zn  Zn182  1  0.56423324  0.31238760  0.05996516  1
  Zn  Zn183  1  0.56132345  0.31242568  0.56104010  1
  Zn  Zn184  1  0.56194972  0.81442860  0.06155676  1
  Zn  Zn185  1  0.56265313  0.80925011  0.56268937  1
  O  O186  1  0.11998360  0.12299633  0.11760507  1
  O  O187  1  0.11690344  0.11817615  0.61960965  1
  O  O188  1  0.12138785  0.61559318  0.12447552  1
  O  O189  1  0.11926758  0.62015571  0.62138423  1
  O  O190  1  0.61805050  0.11698935  0.12413528  1
  O  O191  1  0.61878338  0.11942402  0.62010251  1
  O  O192  1  0.61995298  0.62030725  0.11858615  1
  O  O193  1  0.61794943  0.61672258  0.61708547  1
  O  O194  1  0.37900246  0.37952775  0.38021454  1
  O  O195  1  0.38243275  0.37259444  0.88912429  1
  O  O196  1  0.38222133  0.87870969  0.38233289  1
  O  O197  1  0.38848288  0.88166949  0.86606221  1
  O  O198  1  0.88262183  0.38074578  0.37756722  1
  O  O199  1  0.88226712  0.38414956  0.87685954  1
  O  O200  1  0.88208479  0.87485312  0.38203264  1
  O  O201  1  0.88522011  0.87517158  0.87957821  1
  O  O202  1  0.25544982  0.00370034  0.37054054  1
  O  O203  1  0.25575945  0.00365803  0.87002621  1
  O  O204  1  0.25568827  0.50490884  0.36954382  1
  O  O205  1  0.24218980  0.49825440  0.86187587  1
  O  O206  1  0.74942681  0.00895277  0.36976191  1
  O  O207  1  0.75078004  0.00908100  0.86573095  1
  O  O208  1  0.75646127  0.50609953  0.37557384  1
  O  O209  1  0.75203114  0.50712569  0.86984661  1
  O  O210  1  0.24572164  0.49390702  0.13149961  1
  O  O211  1  0.24057531  0.49692185  0.63659516  1
  O  O212  1  0.25254020  0.99090221  0.13075473  1
  O  O213  1  0.24581638  0.99244000  0.62877548  1
  O  O214  1  0.73730508  0.50268924  0.12378273  1
  O  O215  1  0.74051574  0.50083299  0.63521100  1
  O  O216  1  0.74560333  0.99535596  0.12807787  1
  O  O217  1  0.74452389  0.99575814  0.62991107  1
  O  O218  1  0.00650901  0.36906285  0.25649497  1
  O  O219  1  0.00776133  0.36909749  0.75464023  1
  O  O220  1  0.00608832  0.87001229  0.25439414  1
  O  O221  1  0.00128327  0.87344028  0.75945007  1
  O  O222  1  0.50070749  0.36811135  0.25696879  1
  O  O223  1  0.48794369  0.36858753  0.76199772  1
  O  O224  1  0.50679894  0.87581099  0.25941518  1
  O  O225  1  0.50593761  0.87489058  0.75802363  1
  O  O226  1  0.49793083  0.13081931  0.24359187  1
  O  O227  1  0.49398506  0.13419701  0.74592269  1
  O  O228  1  0.49377982  0.62674012  0.24420998  1
  O  O229  1  0.48413101  0.62401629  0.74465838  1
  O  O230  1  1.00133758  0.12999082  0.24386433  1
  O  O231  1  1.00854705  0.13392956  0.74092449  1
  O  O232  1  0.99321694  0.63218730  0.24958580  1
  O  O233  1  0.99087139  0.62467727  0.74235007  1
  O  O234  1  0.37035816  0.25953358  0.00547334  1
  O  O235  1  0.36929100  0.25474081  0.50604070  1
  O  O236  1  0.37726593  0.74866401  0.01562123  1
  O  O237  1  0.36471751  0.76119000  0.49596899  1
  O  O238  1  0.87425133  0.25172848  0.01152888  1
  O  O239  1  0.86203030  0.24934459  0.50118404  1
  O  O240  1  0.86973532  0.75562214  0.00353448  1
  O  O241  1  0.86954171  0.75370266  0.50590647  1
  O  O242  1  0.13174346  0.24294398  0.50066013  1
  O  O243  1  0.13217769  0.24482642  0.99893245  1
  O  O244  1  0.13529043  0.74278469  0.49788731  1
  O  O245  1  0.12258328  0.74870645  0.98522681  1
  O  O246  1  0.63235377  0.24326296  0.49450400  1
  O  O247  1  0.62887202  0.24590969  0.99563018  1
  O  O248  1  0.63131419  0.73803823  0.49907155  1
  O  O249  1  0.63049615  0.74632099  0.99400298  1
  O  O250  1  0.49590054  0.24542915  0.12948293  1
  O  O251  1  0.49430485  0.24642503  0.63229585  1
  O  O252  1  0.49375277  0.74630903  0.12593626  1
  O  O253  1  0.50747934  0.73612702  0.62993250  1
  O  O254  1  0.99410965  0.24430922  0.13017302  1
  O  O255  1  0.99967132  0.24040569  0.63301063  1
  O  O256  1  0.99349494  0.75074271  0.13010449  1
  O  O257  1  0.99357412  0.74322438  0.62529399  1
  O  O258  1  0.00177431  0.25481727  0.36936832  1
  O  O259  1  0.00161167  0.25502030  0.86716239  1
  O  O260  1  0.00189581  0.75615980  0.36828206  1
  O  O261  1  0.00805551  0.75966842  0.87317675  1
  O  O262  1  0.50426652  0.25383699  0.36998727  1
  O  O263  1  0.49860799  0.25865344  0.86678982  1
  O  O264  1  0.50104589  0.76303758  0.37393380  1
  O  O265  1  0.50541993  0.76115846  0.87475850  1
  O  O266  1  0.24517260  0.12893614  0.49636501  1
  O  O267  1  0.24649162  0.13003485  0.99541269  1
  O  O268  1  0.24648407  0.63145063  0.49790104  1
  O  O269  1  0.24748797  0.63243678  1.00226089  1
  O  O270  1  0.74439554  0.13120548  0.49252804  1
  O  O271  1  0.74792348  0.12429463  0.98399613  1
  O  O272  1  0.74146943  0.62836371  0.49645778  1
  O  O273  1  0.74464553  0.63218389  0.99289690  1
  O  O274  1  0.25718022  0.37208143  0.00476632  1
  O  O275  1  0.25535657  0.36784812  0.50264216  1
  O  O276  1  0.24574723  0.87194294  0.01340953  1
  O  O277  1  0.25646782  0.86866288  0.50559213  1
  O  O278  1  0.75416076  0.37142368  0.00529721  1
  O  O279  1  0.74842908  0.36123701  0.49911256  1
  O  O280  1  0.75433275  0.87155182  0.00301056  1
  O  O281  1  0.75471631  0.86934155  0.50490940  1
  O  O282  1  0.13062028  0.49410211  0.24544241  1
  O  O283  1  0.12962567  0.49277233  0.74702977  1
  O  O284  1  0.13325389  0.99171478  0.24755350  1
  O  O285  1  0.13379406  0.99646605  0.74327736  1
  O  O286  1  0.62504762  0.50117381  0.23785580  1
  O  O287  1  0.63282411  0.50991607  0.74203328  1
  O  O288  1  0.63149779  0.99366146  0.24309695  1
  O  O289  1  0.63382934  0.99386657  0.74300234  1
  O  O290  1  0.36880108  0.00143552  0.25791175  1
  O  O291  1  0.36956185  0.00758193  0.75531896  1
  O  O292  1  0.36963121  0.50533891  0.25471367  1
  O  O293  1  0.36523246  0.51337636  0.74768978  1
  O  O294  1  0.86716767  0.00230141  0.25233514  1
  O  O295  1  0.86018531  -0.00599651  0.74900881  1
  O  O296  1  0.87567578  0.50687584  0.25704640  1
  O  O297  1  0.86480248  0.50623962  0.75560850  1
  O  O298  1  0.11843150  0.37394296  0.36838717  1
  O  O299  1  0.11797954  0.37348031  0.86467630  1
  O  O300  1  0.11920343  0.87185803  0.36833022  1
  O  O301  1  0.11398035  0.86821068  0.87387795  1
  O  O302  1  0.61653807  0.36839101  0.37503351  1
  O  O303  1  0.60974561  0.37354362  0.87988698  1
  O  O304  1  0.61680557  0.87442790  0.37062762  1
  O  O305  1  0.61647745  0.87234802  0.86871553  1
  O  O306  1  0.38242752  0.13270111  0.12571389  1
  O  O307  1  0.38024523  0.13038828  0.63021680  1
  O  O308  1  0.38142048  0.63339586  0.13184770  1
  O  O309  1  0.38715529  0.62075852  0.62160005  1
  O  O310  1  0.88313067  0.13300558  0.12558413  1
  O  O311  1  0.88897691  0.12521641  0.62039261  1
  O  O312  1  0.87715163  0.63273567  0.13088345  1
  O  O313  1  0.87903795  0.62923073  0.62852278  1
  O  O314  1  0.25591958  0.25643236  0.11952800  1
  O  O315  1  0.25673644  0.25099401  0.61998001  1
  O  O316  1  0.26010052  0.75936601  0.12693845  1
  O  O317  1  0.24379893  0.76045905  0.61435646  1
  O  O318  1  0.76235786  0.24663222  0.12588602  1
  O  O319  1  0.74860911  0.24934546  0.61578023  1
  O  O320  1  0.75558382  0.75628399  0.11748756  1
  O  O321  1  0.75411320  0.75459497  0.61916228  1
  O  O322  1  0.24903134  0.24227010  0.38270728  1
  O  O323  1  0.24975541  0.24331745  0.88201365  1
  O  O324  1  0.24945952  0.74371826  0.38632254  1
  O  O325  1  0.23359794  0.76292289  0.87640826  1
  O  O326  1  0.74486885  0.24140489  0.38065891  1
  O  O327  1  0.74911804  0.23749227  0.86909295  1
  O  O328  1  0.74894297  0.74157704  0.38261288  1
  O  O329  1  0.74440811  0.74699843  0.87946807  1
  O  O330  1  0.00617086  0.12016294  0.00395652  1
  O  O331  1  0.00542446  0.11940122  0.50789929  1
  O  O332  1  0.00356886  0.61172756  -0.00058960  1
  O  O333  1  0.00599971  0.61872007  0.50527883  1
  O  O334  1  0.50105852  0.11571818  0.00478378  1
  O  O335  1  0.50589638  0.12393885  0.50717663  1
  O  O336  1  0.50463068  0.61835159  0.00487908  1
  O  O337  1  0.50804068  0.62487529  0.50603175  1
  O  O338  1  0.49156104  0.37541715  0.49239390  1
  O  O339  1  0.49239292  0.38274587  0.99343986  1
  O  O340  1  0.49213436  0.87403070  0.49398132  1
  O  O341  1  0.50671960  0.88664120  0.98761904  1
  O  O342  1  1.00067948  0.38079387  0.49484339  1
  O  O343  1  1.00001575  0.38620372  0.99328824  1
  O  O344  1  0.99609868  0.87897372  0.49578430  1
  O  O345  1  0.99573294  0.88047589  0.99165505  1
  O  O346  1  0.49216963  0.49333925  0.37772819  1
  O  O347  1  0.50519827  0.49437516  0.88827274  1
  O  O348  1  0.49556483  0.98870914  0.37740074  1
  O  O349  1  0.49688738  0.99511233  0.87973343  1
  O  O350  1  0.99520291  0.49430798  0.38139383  1
  O  O351  1  0.99455162  0.49588880  0.88156275  1
  O  O352  1  0.99945180  0.99295440  0.38222306  1
  O  O353  1  0.99940099  0.99182923  0.87890036  1
  O  O354  1  0.00243919  0.00587389  0.11767405  1
  O  O355  1  0.00506842  0.00586660  0.62097319  1
  O  O356  1  0.00524103  0.49920737  0.11593286  1
  O  O357  1  0.00452530  0.50516011  0.62093618  1
  O  O358  1  0.50349779  0.00328536  0.11704497  1
  O  O359  1  0.50625727  0.00721855  0.62508654  1
  O  O360  1  0.50723785  0.50642270  0.11621247  1
  O  O361  1  0.50782172  0.50976950  0.62461895  1
  O  O362  1  0.24607897  0.38045607  0.24524417  1
  O  O363  1  0.24139577  0.38094793  0.75077447  1
  O  O364  1  0.24556400  0.87996653  0.24433758  1
  O  O365  1  0.25255126  0.88088736  0.73851694  1
  O  O366  1  0.74526851  0.37922886  0.24409625  1
  O  O367  1  0.75064050  0.39002953  0.75328484  1
  O  O368  1  0.74611578  0.87973728  0.24352276  1
  O  O369  1  0.74397472  0.88256781  0.74346171  1
  O  O370  1  0.25128718  0.11773667  0.25680629  1
  O  O371  1  0.25465725  0.12013103  0.75506543  1
  O  O372  1  0.25562951  0.61932548  0.25592009  1
  O  O373  1  0.26323002  0.61848885  0.74657322  1
  O  O374  1  0.74951809  0.11888872  0.26054239  1
  O  O375  1  0.74441529  0.11539791  0.75927885  1
  O  O376  1  0.75747797  0.62335188  0.25731793  1
  O  O377  1  0.75410074  0.61781694  0.75554642  1
  O  O378  1  0.36844872  0.11668535  0.37592134  1
  O  O379  1  0.36934654  0.11930966  0.86956898  1
  O  O380  1  0.36994696  0.61982423  0.37076771  1
  O  O381  1  0.37861046  0.62400198  0.86756183  1
  O  O382  1  0.86211691  0.12250842  0.37480029  1
  O  O383  1  0.86096608  0.12333028  0.87581061  1
  O  O384  1  0.86995598  0.61858473  0.37028438  1
  O  O385  1  0.86843063  0.62102448  0.86954129  1
  O  O386  1  0.13144102  0.38097475  0.13093281  1
  O  O387  1  0.12406300  0.38053859  0.63785099  1
  O  O388  1  0.13621618  0.87523876  0.13175226  1
  O  O389  1  0.13629804  0.88087455  0.62428669  1
  O  O390  1  0.62260402  0.38862591  0.12522640  1
  O  O391  1  0.62477135  0.39102823  0.61852301  1
  O  O392  1  0.63137998  0.88114686  0.12892578  1
  O  O393  1  0.63042235  0.87944465  0.62840241  1
  O  O394  1  0.11960608  0.25720348  0.25098924  1
  O  O395  1  0.11693908  0.25967805  0.75098404  1
  O  O396  1  0.11926548  0.75549070  0.25118057  1
  O  O397  1  0.12295961  0.75314532  0.76155107  1
  O  O398  1  0.61757316  0.25079842  0.25687647  1
  O  O399  1  0.60852636  0.24920507  0.74898029  1
  O  O400  1  0.62325682  0.75806050  0.25221958  1
  O  O401  1  0.62371711  0.75645242  0.75702429  1
  O  O402  1  0.38160192  0.24871990  0.24270634  1
  O  O403  1  0.38178904  0.24517961  0.74485066  1
  O  O404  1  0.37804055  0.74356650  0.24143479  1
  O  O405  1  0.37324645  0.73188755  0.75256123  1
  O  O406  1  0.88342325  0.24615033  0.24164814  1
  O  O407  1  0.89042995  0.25526110  0.74889644  1
  O  O408  1  0.88054790  0.74540347  0.24342665  1
  O  O409  1  0.87462670  0.74299658  0.74203548  1
  O  O410  1  0.37352612  0.49274144  0.49307722  1
  O  O411  1  0.38635340  0.49115688  1.01010234  1
  O  O412  1  0.37587610  0.98733385  0.49380127  1
  O  O413  1  0.38821535  1.00435086  0.99229928  1
  O  O414  1  0.88194907  0.49932338  0.49398961  1
  O  O415  1  0.88392568  0.50090829  0.99427226  1
  O  O416  1  0.88183260  0.99127276  0.49832548  1
  O  O417  1  0.88296854  0.99297325  0.99614629  1
  O  O418  1  0.11885287  0.00703262  0.00155514  1
  O  O419  1  0.11957314  0.00457039  0.50626220  1
  O  O420  1  0.11611678  0.49947975  0.00603171  1
  O  O421  1  0.12045602  0.50478773  0.50744952  1
  O  O422  1  0.61386414  0.00254829  0.00535283  1
  O  O423  1  0.62379877  0.00622771  0.50717821  1
  O  O424  1  0.61562249  0.50721846  0.00744451  1
  O  O425  1  0.62401561  0.51093825  0.50863106  1
  O  O426  1  0.37082932  0.37020771  0.11572084  1
  O  O427  1  0.37465691  0.36945886  0.61887534  1
  O  O428  1  0.36718081  0.86607538  0.13247263  1
  O  O429  1  0.36480777  0.88171186  0.61512829  1
  O  O430  1  0.87632206  0.36227359  0.12465548  1
  O  O431  1  0.86696152  0.37027194  0.62161985  1
  O  O432  1  0.86946691  0.86979289  0.11793147  1
  O  O433  1  0.86916941  0.86832600  0.61834912  1
  O  O434  1  0.13213602  0.12499712  0.38364773  1
  O  O435  1  0.13313238  0.12600601  0.88174505  1
  O  O436  1  0.13304994  0.62386442  0.38305109  1
  O  O437  1  0.11889143  0.64115978  0.87316960  1
  O  O438  1  0.63326442  0.12907280  0.38001895  1
  O  O439  1  0.63780058  0.12753514  0.87518921  1
  O  O440  1  0.62873267  0.62349292  0.38574597  1
  O  O441  1  0.62831464  0.63189787  0.88024725  1
