# generated using pymatgen
data_V93Zn93O256
_symmetry_space_group_name_H-M   'P 1'
_cell_length_a   17.04574492
_cell_length_b   17.04778803
_cell_length_c   17.05001166
_cell_angle_alpha   90.01571072
_cell_angle_beta   89.95125059
_cell_angle_gamma   89.99803138
_symmetry_Int_Tables_number   1
_chemical_formula_structural   V93Zn93O256
_chemical_formula_sum   'V93 Zn93 O256'
_cell_volume   4954.59920558
_cell_formula_units_Z   1
loop_
 _symmetry_equiv_pos_site_id
 _symmetry_equiv_pos_as_xyz
  1  'x, y, z'
loop_
 _atom_site_type_symbol
 _atom_site_label
 _atom_site_symmetry_multiplicity
 _atom_site_fract_x
 _atom_site_fract_y
 _atom_site_fract_z
 _atom_site_occupancy
  V  V0  1  0.50204384  0.12540306  0.62119862  1
  V  V1  1  0.62434811  0.74909790  0.87473003  1
  V  V2  1  -0.00159365  0.50245221  0.00732548  1
  V  V3  1  0.00002690  -0.00043806  -0.00005136  1
  V  V4  1  0.49806467  0.74839087  0.74871698  1
  V  V5  1  0.75121346  0.62444375  0.37484963  1
  V  V6  1  0.87483738  0.49972186  0.37548001  1
  V  V7  1  -0.00232286  0.50058913  0.50096888  1
  V  V8  1  0.37451144  0.12526601  0.74968404  1
  V  V9  1  0.87350391  0.49864457  0.87603819  1
  V  V10  1  0.49956559  0.37485565  0.87562724  1
  V  V11  1  0.49929101  0.12521405  0.12431811  1
  V  V12  1  0.87508403  0.87381590  -0.00062169  1
  V  V13  1  0.87661322  0.12332045  0.24987138  1
  V  V14  1  0.37334946  0.50068386  0.87509340  1
  V  V15  1  0.50041172  0.87695516  0.37433247  1
  V  V16  1  0.49519517  0.62468414  0.62436479  1
  V  V17  1  0.25317213  0.00366037  0.25276589  1
  V  V18  1  0.24651989  0.37750506  0.12640466  1
  V  V19  1  0.50767705  0.37563464  0.36906798  1
  V  V20  1  0.87236194  0.01098282  0.87138164  1
  V  V21  1  0.63164122  0.24611247  0.87519136  1
  V  V22  1  0.75100831  0.74982241  0.50002639  1
  V  V23  1  -0.00049343  0.75348450  0.24947747  1
  V  V24  1  0.37391220  0.62657213  0.25104165  1
  V  V25  1  0.37496383  0.87548034  0.50074553  1
  V  V26  1  0.49925091  0.49726908  0.49805977  1
  V  V27  1  0.87444265  0.74943042  0.62490974  1
  V  V28  1  0.25003082  0.87659332  0.12655686  1
  V  V29  1  0.50041986  0.75108358  0.24912988  1
  V  V30  1  0.74627320  0.37231043  0.13051154  1
  V  V31  1  0.12809519  0.13264859  0.50108422  1
  V  V32  1  0.75031485  0.74925631  -0.00028395  1
  V  V33  1  -0.00352241  0.24303115  0.75100777  1
  V  V34  1  0.62440923  0.62542468  0.50009504  1
  V  V35  1  0.12678561  0.12581163  0.00134754  1
  V  V36  1  0.00080137  0.12469839  0.12614401  1
  V  V37  1  0.87456006  0.37428552  0.00052499  1
  V  V38  1  0.24843461  0.62487943  0.87625205  1
  V  V39  1  0.50779888  0.25492062  0.24676361  1
  V  V40  1  0.00313676  -0.00271086  0.49874765  1
  V  V41  1  0.12518808  0.62559442  0.50021674  1
  V  V42  1  0.12210589  0.87672087  0.25478962  1
  V  V43  1  0.11895262  0.62492240  0.00781116  1
  V  V44  1  0.87335829  0.62338629  0.75077463  1
  V  V45  1  0.62621374  0.00066992  0.62500750  1
  V  V46  1  0.00377813  0.25172795  0.25500844  1
  V  V47  1  0.87970417  0.62312881  0.24624993  1
  V  V48  1  0.24938551  0.50309872  0.25100232  1
  V  V49  1  0.88214706  -0.00609708  0.37445531  1
  V  V50  1  0.12345609  0.75019383  0.87625646  1
  V  V51  1  0.87905501  0.87441030  0.49809335  1
  V  V52  1  0.37526775  0.00059625  0.87362586  1
  V  V53  1  0.74831146  0.37518401  0.62540837  1
  V  V54  1  0.87497094  0.24098390  0.62954890  1
  V  V55  1  0.12507141  0.87571909  0.74979708  1
  V  V56  1  0.62469946  0.37449237  0.75036375  1
  V  V57  1  0.49855745  0.49947436  0.00007757  1
  V  V58  1  0.75070648  0.87367418  0.12470910  1
  V  V59  1  0.62632458  0.75047624  0.37408140  1
  V  V60  1  0.24883136  -0.00066780  0.74805753  1
  V  V61  1  0.24906947  0.25036562  -0.00110652  1
  V  V62  1  0.63126219  0.12370664  -0.00594198  1
  V  V63  1  0.75110427  0.12442310  0.37436635  1
  V  V64  1  0.62683251  0.87499198  0.24844199  1
  V  V65  1  0.37286370  0.37523130  -0.00044015  1
  V  V66  1  0.50006482  0.62471057  0.12455581  1
  V  V67  1  0.24813500  0.75062321  0.00088733  1
  V  V68  1  0.12082265  0.75596518  0.37765379  1
  V  V69  1  0.62440511  0.49403213  0.13105949  1
  V  V70  1  0.50124622  -0.00011487  -0.00149381  1
  V  V71  1  -0.00098437  0.74985970  0.75104655  1
  V  V72  1  0.12290157  0.37372401  0.75176479  1
  V  V73  1  0.74821351  0.24694485  0.49831782  1
  V  V74  1  0.49870335  0.25071687  0.75016747  1
  V  V75  1  0.24664312  0.49912821  0.74965619  1
  V  V76  1  0.25189154  0.13443633  0.37844247  1
  V  V77  1  0.37510041  0.75116108  0.12558953  1
  V  V78  1  0.62455964  0.62352652  -0.00036443  1
  V  V79  1  0.49986724  0.87408162  0.87378247  1
  V  V80  1  0.12513918  0.00022296  0.12609764  1
  V  V81  1  0.37503017  0.87510238  -0.00043418  1
  V  V82  1  0.87444039  0.24904154  0.12479177  1
  V  V83  1  0.36895716  0.25497931  0.61763637  1
  V  V84  1  -0.00120658  0.62432269  0.62626362  1
  V  V85  1  0.87788318  0.74554012  0.12497871  1
  V  V86  1  0.75442895  0.01202016  0.75293427  1
  V  V87  1  -0.00130303  0.87488203  0.87529300  1
  V  V88  1  0.75018270  0.87448651  0.62549509  1
  V  V89  1  0.62574804  0.87472551  0.74952917  1
  V  V90  1  0.74926667  0.62366652  0.87407527  1
  V  V91  1  0.75211391  -0.00185375  0.24934594  1
  V  V92  1  0.87543225  0.37464361  0.49965228  1
  Zn  Zn93  1  0.62340282  0.49939643  0.62702857  1
  Zn  Zn94  1  0.36769495  0.37104274  0.49069180  1
  Zn  Zn95  1  0.50340336  0.00020532  0.49662087  1
  Zn  Zn96  1  -0.00138853  0.37358333  0.87653634  1
  Zn  Zn97  1  0.00235340  0.37518110  0.37671549  1
  Zn  Zn98  1  0.11741295  0.50528436  0.13085797  1
  Zn  Zn99  1  0.74702172  0.49604531  0.25291608  1
  Zn  Zn100  1  0.62493603  0.12244167  0.49485940  1
  Zn  Zn101  1  0.00100016  0.12257740  0.62768204  1
  Zn  Zn102  1  0.74835226  0.49894405  0.75085332  1
  Zn  Zn103  1  0.25167469  0.62637345  0.37711617  1
  Zn  Zn104  1  0.62921816  0.25156176  0.36790136  1
  Zn  Zn105  1  0.12167788  0.24821271  0.87521331  1
  Zn  Zn106  1  0.62739218  -0.00046681  0.12249043  1
  Zn  Zn107  1  0.37108126  0.62599131  0.74885621  1
  Zn  Zn108  1  0.24985565  0.12675787  0.87497409  1
  Zn  Zn109  1  0.12267474  0.49951373  0.62559096  1
  Zn  Zn110  1  0.25070002  0.75016313  0.50141971  1
  Zn  Zn111  1  0.13215238  0.25663611  0.38078309  1
  Zn  Zn112  1  0.37566623  0.25072565  0.12559826  1
  Zn  Zn113  1  0.75358395  0.24530322  -0.00339740  1
  Zn  Zn114  1  0.24928809  0.87218807  0.62349335  1
  Zn  Zn115  1  0.12398146  0.00001432  0.62432660  1
  Zn  Zn116  1  0.37598810  0.50041540  0.37298567  1
  Zn  Zn117  1  0.37876835  0.00290313  0.37671548  1
  Zn  Zn118  1  0.37113013  0.75080668  0.62543370  1
  Zn  Zn119  1  0.12408686  0.37937963  0.25511324  1
  Zn  Zn120  1  0.24314753  0.37073395  0.61747876  1
  Zn  Zn121  1  0.37811725  0.12788925  0.25343099  1
  Zn  Zn122  1  0.18782311  0.18914692  0.18852709  1
  Zn  Zn123  1  0.18577037  0.18546117  0.68694729  1
  Zn  Zn124  1  0.18664629  0.68991676  0.18945169  1
  Zn  Zn125  1  0.18782907  0.68844432  0.68589048  1
  Zn  Zn126  1  0.68739426  0.18464415  0.18403215  1
  Zn  Zn127  1  0.68548818  0.18924056  0.68680172  1
  Zn  Zn128  1  0.68983452  0.68430794  0.18734942  1
  Zn  Zn129  1  0.68512235  0.68617734  0.68698705  1
  Zn  Zn130  1  0.32206324  0.31462016  0.30850637  1
  Zn  Zn131  1  0.31143684  0.31342506  0.81049226  1
  Zn  Zn132  1  0.30972994  0.81311031  0.31724522  1
  Zn  Zn133  1  0.31230420  0.81172429  0.81163157  1
  Zn  Zn134  1  0.81591854  0.31220737  0.31216582  1
  Zn  Zn135  1  0.81366383  0.31216904  0.81163146  1
  Zn  Zn136  1  0.81342128  0.81165413  0.31287380  1
  Zn  Zn137  1  0.81226909  0.81564882  0.81257792  1
  Zn  Zn138  1  0.18678301  0.43713551  0.43733777  1
  Zn  Zn139  1  0.18328899  0.43772357  0.93693128  1
  Zn  Zn140  1  0.18986033  0.94043452  0.43730182  1
  Zn  Zn141  1  0.18769060  0.93846352  0.93597801  1
  Zn  Zn142  1  0.68646424  0.43737345  0.43778080  1
  Zn  Zn143  1  0.68824942  0.43467073  0.94117408  1
  Zn  Zn144  1  0.68943119  0.93792687  0.43751230  1
  Zn  Zn145  1  0.68941334  0.93815908  0.93449125  1
  Zn  Zn146  1  0.31412660  0.06284639  0.06244431  1
  Zn  Zn147  1  0.31427483  0.06201568  0.56042676  1
  Zn  Zn148  1  0.30996114  0.56357354  0.06388527  1
  Zn  Zn149  1  0.30837530  0.55187526  0.55807792  1
  Zn  Zn150  1  0.81441811  0.06041748  0.06176548  1
  Zn  Zn151  1  0.81248236  0.05987543  0.56216283  1
  Zn  Zn152  1  0.81016600  0.56007438  0.06369785  1
  Zn  Zn153  1  0.81225523  0.56183227  0.56251286  1
  Zn  Zn154  1  0.43467075  0.43679423  0.18758575  1
  Zn  Zn155  1  0.43684322  0.43959589  0.68881267  1
  Zn  Zn156  1  0.43878611  0.93928879  0.18671030  1
  Zn  Zn157  1  0.43752033  0.93812984  0.68525454  1
  Zn  Zn158  1  0.93379573  0.43512523  0.18861639  1
  Zn  Zn159  1  0.93634917  0.43429369  0.68795197  1
  Zn  Zn160  1  0.93849087  0.93399891  0.18682365  1
  Zn  Zn161  1  0.93673945  0.93899863  0.68663798  1
  Zn  Zn162  1  0.06640258  0.06631241  0.31577589  1
  Zn  Zn163  1  0.06396004  0.06315768  0.81657879  1
  Zn  Zn164  1  0.06134362  0.56474320  0.31527932  1
  Zn  Zn165  1  0.06013200  0.56157228  0.81818380  1
  Zn  Zn166  1  0.56587123  0.06367224  0.31008326  1
  Zn  Zn167  1  0.56308445  0.06212162  0.80951935  1
  Zn  Zn168  1  0.56197964  0.56418035  0.31268290  1
  Zn  Zn169  1  0.56220355  0.56070985  0.81021975  1
  Zn  Zn170  1  0.43817925  0.18950792  0.43380495  1
  Zn  Zn171  1  0.43839855  0.18786365  0.93751264  1
  Zn  Zn172  1  0.43668874  0.68900757  0.43699515  1
  Zn  Zn173  1  0.43575524  0.68667381  0.93708689  1
  Zn  Zn174  1  0.93835536  0.18386862  0.43964368  1
  Zn  Zn175  1  0.94014429  0.18914872  0.93846595  1
  Zn  Zn176  1  0.93962815  0.68715781  0.43473189  1
  Zn  Zn177  1  0.93665253  0.68516498  0.93728206  1
  Zn  Zn178  1  0.06203106  0.31445705  0.06539995  1
  Zn  Zn179  1  0.05995794  0.31366408  0.56653300  1
  Zn  Zn180  1  0.06134342  0.81284197  0.06657146  1
  Zn  Zn181  1  0.06268201  0.81480560  0.56531967  1
  Zn  Zn182  1  0.56357066  0.31080996  0.05992259  1
  Zn  Zn183  1  0.56077954  0.31237110  0.55953669  1
  Zn  Zn184  1  0.56381348  0.81277803  0.06211921  1
  Zn  Zn185  1  0.56084678  0.81217577  0.56204700  1
  O  O186  1  0.12031731  0.11870977  0.12117178  1
  O  O187  1  0.12546739  0.12011664  0.61404430  1
  O  O188  1  0.12892298  0.62639763  0.11098697  1
  O  O189  1  0.11623305  0.62554424  0.61622453  1
  O  O190  1  0.61463171  0.12250565  0.11379355  1
  O  O191  1  0.61545998  0.12097685  0.62415614  1
  O  O192  1  0.62015906  0.61732806  0.11831829  1
  O  O193  1  0.61437023  0.62333331  0.61864269  1
  O  O194  1  0.39002270  0.37957377  0.37561877  1
  O  O195  1  0.37943524  0.38084594  0.87987545  1
  O  O196  1  0.38198259  0.87688548  0.38213472  1
  O  O197  1  0.38081361  0.87954145  0.88074757  1
  O  O198  1  0.87622404  0.38187956  0.38260146  1
  O  O199  1  0.87274370  0.38099166  0.88342216  1
  O  O200  1  0.86993027  0.88673695  0.38086554  1
  O  O201  1  0.88144841  0.87922103  0.88213546  1
  O  O202  1  0.25019114  0.00979042  0.36357552  1
  O  O203  1  0.25696588  0.00105394  0.86570442  1
  O  O204  1  0.25195337  0.50337141  0.36019396  1
  O  O205  1  0.25294787  0.50382643  0.86827584  1
  O  O206  1  0.76067213  0.00433658  0.36949086  1
  O  O207  1  0.76043945  -0.00774102  0.86457077  1
  O  O208  1  0.75546347  0.50552640  0.37397963  1
  O  O209  1  0.75489439  0.50626798  0.87629297  1
  O  O210  1  0.24753553  0.49343322  0.13309317  1
  O  O211  1  0.24597580  0.50481699  0.64356793  1
  O  O212  1  0.24527795  0.99671637  0.13257136  1
  O  O213  1  0.25131349  0.99902431  0.63963565  1
  O  O214  1  0.74051792  0.49068634  0.12518396  1
  O  O215  1  0.74779949  0.48542638  0.62355622  1
  O  O216  1  0.75192582  0.99139953  0.13163204  1
  O  O217  1  0.74766720  0.99318500  0.63238408  1
  O  O218  1  -0.00028684  0.36390670  0.25079224  1
  O  O219  1  0.00760885  0.36649391  0.75125027  1
  O  O220  1  0.00720539  0.86496695  0.24792067  1
  O  O221  1  0.00430375  0.86925902  0.75543898  1
  O  O222  1  0.49656085  0.36735743  0.25576472  1
  O  O223  1  0.50474429  0.37062294  0.75637773  1
  O  O224  1  0.50627659  0.86970825  0.25278545  1
  O  O225  1  0.50603978  0.86998453  0.75468419  1
  O  O226  1  0.50121638  0.13084168  0.23888622  1
  O  O227  1  0.49505376  0.12999022  0.74016116  1
  O  O228  1  0.49471306  0.63195965  0.24337349  1
  O  O229  1  0.49840767  0.62832160  0.74040505  1
  O  O230  1  0.99627352  0.13077047  0.24518770  1
  O  O231  1  1.00990224  0.13909495  0.74762442  1
  O  O232  1  0.98691904  0.63458027  0.25471926  1
  O  O233  1  0.99381883  0.63031041  0.74729379  1
  O  O234  1  0.36568154  0.25661514  0.00097935  1
  O  O235  1  0.38027891  0.25162572  0.51498648  1
  O  O236  1  0.36873944  0.75552425  0.00556958  1
  O  O237  1  0.37368394  0.76150066  0.50000615  1
  O  O238  1  0.87425592  0.25432361  0.00705829  1
  O  O239  1  0.86652253  0.25407077  0.50730543  1
  O  O240  1  0.87012865  0.75338255  0.00444054  1
  O  O241  1  0.87121248  0.75373708  0.50431182  1
  O  O242  1  0.11769245  0.23724855  0.50065298  1
  O  O243  1  0.13371771  0.24555971  1.00231571  1
  O  O244  1  0.12050297  0.74320388  0.49324303  1
  O  O245  1  0.12773034  0.74489172  0.99663432  1
  O  O246  1  0.64002387  0.24768969  0.49963092  1
  O  O247  1  0.62517870  0.24104264  0.99029769  1
  O  O248  1  0.63130341  0.74564792  0.49376950  1
  O  O249  1  0.62986865  0.74365769  0.99430970  1
  O  O250  1  0.50033257  0.24285327  0.12857032  1
  O  O251  1  0.49397676  0.24273566  0.63027619  1
  O  O252  1  0.49510212  0.74504811  0.12908289  1
  O  O253  1  0.49969727  0.73963876  0.63013523  1
  O  O254  1  0.99475079  0.24414378  0.13323992  1
  O  O255  1  0.98960625  0.24868353  0.63308452  1
  O  O256  1  0.99312874  0.75276314  0.13817223  1
  O  O257  1  0.99321594  0.74468462  0.63176363  1
  O  O258  1  -0.00209969  0.24911678  0.36387576  1
  O  O259  1  0.00037046  0.25323996  0.86542186  1
  O  O260  1  0.00976713  0.74736453  0.36374308  1
  O  O261  1  0.00364103  0.75499557  0.87044371  1
  O  O262  1  0.50295332  0.25739256  0.36546307  1
  O  O263  1  0.50683054  0.25637818  0.86978645  1
  O  O264  1  0.50745284  0.75565667  0.36760128  1
  O  O265  1  0.50491724  0.75409864  0.87031069  1
  O  O266  1  0.24061883  0.11640015  0.48919394  1
  O  O267  1  0.24615373  0.13484463  1.00225588  1
  O  O268  1  0.23615500  0.62315369  0.49989124  1
  O  O269  1  0.24117163  0.63094041  0.99567498  1
  O  O270  1  0.75205472  0.13324710  0.49425138  1
  O  O271  1  0.73510337  0.12484784  1.00702394  1
  O  O272  1  0.74505407  0.63042909  0.49556184  1
  O  O273  1  0.74437398  0.63022998  0.99429567  1
  O  O274  1  0.25182973  0.36994137  0.00677689  1
  O  O275  1  0.26280845  0.40772644  0.51284533  1
  O  O276  1  0.25457977  0.87085128  0.00605210  1
  O  O277  1  0.26159129  0.87668703  0.50076121  1
  O  O278  1  0.75665192  0.37102196  0.01122678  1
  O  O279  1  0.75407308  0.36590882  0.50685724  1
  O  O280  1  0.75500474  0.86821423  0.00419060  1
  O  O281  1  0.75730478  0.86894496  0.50602034  1
  O  O282  1  0.13323230  0.50283019  0.24776507  1
  O  O283  1  0.12996549  0.49219467  0.75337354  1
  O  O284  1  0.13295357  0.99731519  0.24606598  1
  O  O285  1  0.13376511  0.99507582  0.75237984  1
  O  O286  1  0.62567898  0.50662225  0.23448865  1
  O  O287  1  0.62780406  0.49031964  0.74746316  1
  O  O288  1  0.63490295  0.99235156  0.24694511  1
  O  O289  1  0.63325306  0.99337046  0.74582548  1
  O  O290  1  0.36286491  0.00182304  0.24923135  1
  O  O291  1  0.36830663  0.00431198  0.75445604  1
  O  O292  1  0.36612243  0.50869771  0.24779483  1
  O  O293  1  0.36438501  0.50101779  0.75724890  1
  O  O294  1  0.87331479  0.00250339  0.25679167  1
  O  O295  1  0.86640816  -0.00743119  0.75934471  1
  O  O296  1  0.87409458  0.50879804  0.25564641  1
  O  O297  1  0.87232056  0.50523396  0.75678746  1
  O  O298  1  0.12045401  0.37150982  0.37288897  1
  O  O299  1  0.12235936  0.37130350  0.86378086  1
  O  O300  1  0.13050093  0.86493485  0.36977502  1
  O  O301  1  0.11791586  0.86950772  0.87138333  1
  O  O302  1  0.61319843  0.37161391  0.37827277  1
  O  O303  1  0.61875885  0.36658860  0.87207040  1
  O  O304  1  0.62244931  0.86917434  0.36845452  1
  O  O305  1  0.61912766  0.86822098  0.87008711  1
  O  O306  1  0.38976635  0.12635964  0.12300106  1
  O  O307  1  0.38291286  0.13469129  0.62865564  1
  O  O308  1  0.38057858  0.63202475  0.12900032  1
  O  O309  1  0.38741648  0.62357838  0.62334928  1
  O  O310  1  0.88145253  0.12816856  0.13008623  1
  O  O311  1  0.87560727  0.13847391  0.61967480  1
  O  O312  1  0.86579327  0.63070669  0.13726222  1
  O  O313  1  0.87829737  0.63065640  0.63065907  1
  O  O314  1  0.25144837  0.25915307  0.11701487  1
  O  O315  1  0.26623210  0.25028179  0.63010284  1
  O  O316  1  0.25522274  0.75738284  0.12080247  1
  O  O317  1  0.25343961  0.75352056  0.62057961  1
  O  O318  1  0.75586641  0.25598139  0.12335364  1
  O  O319  1  0.75572542  0.25601416  0.61885270  1
  O  O320  1  0.75585329  0.75427025  0.11869554  1
  O  O321  1  0.75490356  0.75393600  0.61929669  1
  O  O322  1  0.25279145  0.23828713  0.36645803  1
  O  O323  1  0.24854235  0.25072117  0.88830530  1
  O  O324  1  0.23583635  0.74568289  0.37749127  1
  O  O325  1  0.24313122  0.74639633  0.88209205  1
  O  O326  1  0.75311838  0.24449031  0.38287179  1
  O  O327  1  0.73529848  0.25362167  0.87460572  1
  O  O328  1  0.74587163  0.74506108  0.38119591  1
  O  O329  1  0.74411933  0.74462095  0.88015677  1
  O  O330  1  0.00644821  0.11912465  0.00762878  1
  O  O331  1  0.00905989  0.11489707  0.50113405  1
  O  O332  1  0.00817689  0.61596280  -0.00555231  1
  O  O333  1  0.00512227  0.62153823  0.50638564  1
  O  O334  1  0.50785547  0.12000366  0.00553389  1
  O  O335  1  0.50221130  0.12561670  0.51061163  1
  O  O336  1  0.50413370  0.61956721  0.00534476  1
  O  O337  1  0.50582812  0.61949521  0.50536539  1
  O  O338  1  0.49854889  0.38313711  0.49181158  1
  O  O339  1  0.49321593  0.38008871  0.99509081  1
  O  O340  1  0.49378045  0.87531853  0.49225297  1
  O  O341  1  0.49499254  0.87906897  0.99425011  1
  O  O342  1  0.99195136  0.38215942  0.50181389  1
  O  O343  1  0.99333549  0.38260364  0.99941431  1
  O  O344  1  0.99409190  0.88747164  0.50482647  1
  O  O345  1  0.99545128  0.88027506  0.99606259  1
  O  O346  1  0.50246732  0.49333781  0.38052149  1
  O  O347  1  0.49437249  0.49483517  0.88071822  1
  O  O348  1  0.50052215  0.99268574  0.37416366  1
  O  O349  1  0.49483553  0.99324519  0.87789167  1
  O  O350  1  0.99148521  0.50023694  0.38328098  1
  O  O351  1  0.99121158  0.49685761  0.88679789  1
  O  O352  1  0.99029734  1.00624365  0.38298864  1
  O  O353  1  0.99312670  0.99362868  0.88021566  1
  O  O354  1  0.00493712  0.00432923  0.12004984  1
  O  O355  1  -0.00071905  0.00419166  0.61431510  1
  O  O356  1  -0.00137359  0.49541957  0.11176973  1
  O  O357  1  -0.00187086  0.50732970  0.61975582  1
  O  O358  1  0.50301283  0.00757021  0.11746725  1
  O  O359  1  0.50676547  0.01136397  0.62640284  1
  O  O360  1  0.50556876  0.50398524  0.11956644  1
  O  O361  1  0.50127171  0.50642557  0.61687302  1
  O  O362  1  0.25227346  0.38447304  0.24150856  1
  O  O363  1  0.24103372  0.38316585  0.74839189  1
  O  O364  1  0.24416862  0.88422192  0.24598327  1
  O  O365  1  0.24406128  0.88419899  0.75219686  1
  O  O366  1  0.75607376  0.37580270  0.23540632  1
  O  O367  1  0.74418473  0.37326928  0.73921159  1
  O  O368  1  0.74649816  0.87790749  0.24432940  1
  O  O369  1  0.74327566  0.87847852  0.74290270  1
  O  O370  1  0.25120391  0.11771105  0.25593839  1
  O  O371  1  0.25537277  0.11642294  0.75258361  1
  O  O372  1  0.25539629  0.61801714  0.24749050  1
  O  O373  1  0.24689111  0.61688611  0.75912857  1
  O  O374  1  0.75765351  0.11851738  0.25287723  1
  O  O375  1  0.74523826  0.11054190  0.74473426  1
  O  O376  1  0.76059938  0.62450140  0.25787436  1
  O  O377  1  0.75479539  0.62306075  0.75554668  1
  O  O378  1  0.36671885  0.12178441  0.37436316  1
  O  O379  1  0.37554232  0.11860551  0.86810924  1
  O  O380  1  0.37304810  0.62373469  0.36593243  1
  O  O381  1  0.36651435  0.61803423  0.87551713  1
  O  O382  1  0.87031730  0.11418758  0.36943718  1
  O  O383  1  0.87988385  0.10944846  0.88162970  1
  O  O384  1  0.86955111  0.62027819  0.36793730  1
  O  O385  1  0.86799582  0.61976933  0.86975778  1
  O  O386  1  0.13712387  0.37901517  0.12870005  1
  O  O387  1  0.12560755  0.37878782  0.63726410  1
  O  O388  1  0.13116710  0.88125539  0.13250331  1
  O  O389  1  0.12728720  0.87954960  0.63485103  1
  O  O390  1  0.63312960  0.38391075  0.11641033  1
  O  O391  1  0.63374211  0.37137519  0.63034008  1
  O  O392  1  0.63269885  0.87548909  0.13011399  1
  O  O393  1  0.62996691  0.87971424  0.63004014  1
  O  O394  1  0.11309750  0.25117082  0.25125255  1
  O  O395  1  0.11828471  0.25852007  0.74960793  1
  O  O396  1  0.11775853  0.75448097  0.25669101  1
  O  O397  1  0.11827664  0.75454988  0.75738696  1
  O  O398  1  0.61279940  0.24554169  0.24804962  1
  O  O399  1  0.61866057  0.25409763  0.75718789  1
  O  O400  1  0.62081759  0.75433461  0.25389217  1
  O  O401  1  0.61898303  0.75480154  0.75574367  1
  O  O402  1  0.39037518  0.24631482  0.24381287  1
  O  O403  1  0.38045628  0.24500063  0.74274196  1
  O  O404  1  0.37981371  0.74759499  0.24421961  1
  O  O405  1  0.38252906  0.74605413  0.74843864  1
  O  O406  1  0.88347175  0.24240115  0.24464903  1
  O  O407  1  0.88422364  0.25626328  0.74075315  1
  O  O408  1  0.88171244  0.74428707  0.24705803  1
  O  O409  1  0.87934419  0.74430864  0.74547753  1
  O  O410  1  0.39291967  0.50434755  0.49565153  1
  O  O411  1  0.37859045  0.49552923  0.99513954  1
  O  O412  1  0.38124931  0.98995781  0.49836567  1
  O  O413  1  0.38044109  0.99395975  0.99418571  1
  O  O414  1  0.87841587  0.49522369  0.49540197  1
  O  O415  1  0.88087077  0.49628935  0.99665343  1
  O  O416  1  0.88226595  0.99555328  0.49243709  1
  O  O417  1  0.88050379  0.99294246  0.99313131  1
  O  O418  1  0.12017567  0.00402613  0.00629975  1
  O  O419  1  0.11601635  0.00664615  0.49832376  1
  O  O420  1  0.11611024  0.50836191  0.00092607  1
  O  O421  1  0.11573353  0.51177951  0.50149000  1
  O  O422  1  0.61940535  0.00689114  -0.00272628  1
  O  O423  1  0.62537180  0.00201899  0.50908495  1
  O  O424  1  0.61787065  0.50481337  0.00764394  1
  O  O425  1  0.61499671  0.50612727  0.50196184  1
  O  O426  1  0.36277836  0.37591669  0.11731712  1
  O  O427  1  0.37859604  0.35964034  0.62761103  1
  O  O428  1  0.37020718  0.87065448  0.11921311  1
  O  O429  1  0.37600085  0.87349049  0.61381426  1
  O  O430  1  0.86639920  0.36882188  0.11927933  1
  O  O431  1  0.86521666  0.36575207  0.62008632  1
  O  O432  1  0.87006172  0.86730693  0.11853310  1
  O  O433  1  0.86987834  0.86777087  0.61886216  1
  O  O434  1  0.13476181  0.12995531  0.38324440  1
  O  O435  1  0.12928649  0.12782498  0.88665906  1
  O  O436  1  0.12351711  0.63490436  0.38626613  1
  O  O437  1  0.12886876  0.63147879  0.88562449  1
  O  O438  1  0.63604775  0.12847782  0.37603144  1
  O  O439  1  0.61568014  0.13461289  0.88291312  1
  O  O440  1  0.63062473  0.63155840  0.37953405  1
  O  O441  1  0.62851935  0.62940067  0.88012870  1
