# generated using pymatgen
data_V93Zn93O256
_symmetry_space_group_name_H-M   'P 1'
_cell_length_a   17.06512429
_cell_length_b   17.06599015
_cell_length_c   17.06836391
_cell_angle_alpha   90.00797611
_cell_angle_beta   90.09467382
_cell_angle_gamma   90.02867033
_symmetry_Int_Tables_number   1
_chemical_formula_structural   V93Zn93O256
_chemical_formula_sum   'V93 Zn93 O256'
_cell_volume   4970.86751843
_cell_formula_units_Z   1
loop_
 _symmetry_equiv_pos_site_id
 _symmetry_equiv_pos_as_xyz
  1  'x, y, z'
loop_
 _atom_site_type_symbol
 _atom_site_label
 _atom_site_symmetry_multiplicity
 _atom_site_fract_x
 _atom_site_fract_y
 _atom_site_fract_z
 _atom_site_occupancy
  V  V0  1  0.62593620  0.37400744  0.75058992  1
  V  V1  1  0.87558282  0.62492442  0.75073988  1
  V  V2  1  0.75000163  0.74889731  0.00131173  1
  V  V3  1  0.25516109  0.75356713  0.49926395  1
  V  V4  1  0.12556586  0.37413679  0.75001939  1
  V  V5  1  0.61775554  0.75066002  0.37143765  1
  V  V6  1  0.62086627  0.62312632  0.00133537  1
  V  V7  1  0.49971199  0.62422109  0.62467733  1
  V  V8  1  0.74969570  0.25126094  0.49977334  1
  V  V9  1  0.74963311  0.00028269  0.75221222  1
  V  V10  1  0.49630464  0.88264489  0.38905352  1
  V  V11  1  -0.00146273  0.11815602  0.62129613  1
  V  V12  1  0.75109098  0.12448174  0.87573247  1
  V  V13  1  0.25242934  0.87496529  0.62376721  1
  V  V14  1  0.75075474  0.62623559  0.37443997  1
  V  V15  1  0.37518061  0.62365301  0.75065039  1
  V  V16  1  0.62395060  0.25016585  0.37560227  1
  V  V17  1  0.25316064  0.62543945  0.37055778  1
  V  V18  1  0.12635535  0.00095783  0.12579944  1
  V  V19  1  0.87419767  0.12501514  0.75079883  1
  V  V20  1  0.50109378  0.74864978  0.75072626  1
  V  V21  1  0.87438718  0.62562710  0.25078092  1
  V  V22  1  0.61657825  0.87307614  0.24994957  1
  V  V23  1  0.87508082  0.25103875  0.62566491  1
  V  V24  1  0.62500279  0.25006553  0.87500580  1
  V  V25  1  0.50113086  0.24626796  0.74478410  1
  V  V26  1  0.00088000  0.24980473  0.75014355  1
  V  V27  1  0.12502447  0.74909195  0.87603649  1
  V  V28  1  0.37727235  0.12247231  0.74919332  1
  V  V29  1  0.37560389  0.75137856  0.62343197  1
  V  V30  1  0.87645232  0.49949311  0.87632789  1
  V  V31  1  -0.00060400  0.74886253  0.75083437  1
  V  V32  1  0.62531982  -0.00054349  0.12593467  1
  V  V33  1  0.87538749  0.37595494  0.49897668  1
  V  V34  1  -0.00459544  0.13007481  0.12387307  1
  V  V35  1  0.12615892  0.62388007  0.50002000  1
  V  V36  1  0.74940379  0.12119466  0.37408982  1
  V  V37  1  0.25101601  0.24947315  0.00015827  1
  V  V38  1  0.37747175  0.74717410  0.13604993  1
  V  V39  1  0.25247541  0.50326849  0.25006745  1
  V  V40  1  0.75264902  0.75329879  0.49971451  1
  V  V41  1  0.12607063  0.50046946  0.62484565  1
  V  V42  1  0.12623831  0.50063902  0.12541018  1
  V  V43  1  0.49848421  -0.00177672  -0.00150023  1
  V  V44  1  0.87474018  0.50085551  0.37491094  1
  V  V45  1  0.37818787  0.37597147  -0.00243518  1
  V  V46  1  0.12520208  0.87588518  0.75114739  1
  V  V47  1  0.00012483  0.75202486  0.25142580  1
  V  V48  1  0.37564267  0.50445715  0.36998509  1
  V  V49  1  0.49676379  0.62845187  0.13859810  1
  V  V50  1  0.12575464  0.25009623  0.87385242  1
  V  V51  1  0.25211596  0.62327555  0.87480209  1
  V  V52  1  0.75222964  0.24957911  0.00220285  1
  V  V53  1  0.75122023  0.37189237  0.12621060  1
  V  V54  1  0.25201218  0.87333963  0.12291603  1
  V  V55  1  -0.00192644  0.25059650  0.24698322  1
  V  V56  1  0.00006084  0.62488109  0.12532616  1
  V  V57  1  0.12615439  0.62508648  -0.00008192  1
  V  V58  1  0.12528060  0.12545623  0.00015990  1
  V  V59  1  0.75004519  0.62415992  0.87638542  1
  V  V60  1  0.87624649  0.37005839  0.00515867  1
  V  V61  1  0.62420436  0.62507907  0.50048450  1
  V  V62  1  0.37558944  0.24967445  0.12651893  1
  V  V63  1  0.49904110  0.24986518  0.24988365  1
  V  V64  1  0.62431627  0.74987910  0.87472029  1
  V  V65  1  0.87674035  0.87653586  -0.00011553  1
  V  V66  1  0.37642861  0.24740610  0.62384618  1
  V  V67  1  -0.00120227  0.37584497  0.37446651  1
  V  V68  1  0.12524320  0.74998726  0.37346262  1
  V  V69  1  0.12488890  0.37531827  0.24977121  1
  V  V70  1  0.50024351  0.37653905  0.37511586  1
  V  V71  1  0.87501789  0.75000184  0.12655824  1
  V  V72  1  0.25077624  0.37558674  0.12532669  1
  V  V73  1  0.62562381  0.12465359  0.00151524  1
  V  V74  1  0.74899079  0.87438364  0.12792948  1
  V  V75  1  0.37371395  0.11980343  0.25331989  1
  V  V76  1  0.61987406  0.12325167  0.50338906  1
  V  V77  1  0.75066176  0.37589246  0.62595030  1
  V  V78  1  0.24846412  0.25086337  0.49810273  1
  V  V79  1  0.87444409  0.74911740  0.62593345  1
  V  V80  1  0.62008501  0.00355437  0.62356166  1
  V  V81  1  0.75029732  0.49901702  0.75008487  1
  V  V82  1  0.12484671  0.25079604  0.37459592  1
  V  V83  1  0.11679483  0.11981308  0.49881063  1
  V  V84  1  0.12330278  0.87403126  0.24908103  1
  V  V85  1  0.74962498  0.87455771  0.62554030  1
  V  V86  1  0.62466939  0.87447498  0.75142212  1
  V  V87  1  0.25009536  0.37334569  0.62543575  1
  V  V88  1  0.62627026  0.37491919  0.24926348  1
  V  V89  1  0.25115423  0.12405551  0.87374128  1
  V  V90  1  0.87323083  0.12758897  0.24780728  1
  V  V91  1  0.49957170  0.50019346  0.50004963  1
  V  V92  1  0.00026900  0.49920692  0.00037324  1
  Zn  Zn93  1  0.50080790  0.37662409  0.87445756  1
  Zn  Zn94  1  0.37281588  -0.00421645  0.87580590  1
  Zn  Zn95  1  0.62418154  0.49972351  0.62580866  1
  Zn  Zn96  1  0.74937987  0.50015022  0.24886717  1
  Zn  Zn97  1  0.25255922  0.49806385  0.74994488  1
  Zn  Zn98  1  0.24831640  0.11749457  0.37565279  1
  Zn  Zn99  1  -0.00077781  0.00084097  -0.00111552  1
  Zn  Zn100  1  0.50009670  0.49992186  -0.00079509  1
  Zn  Zn101  1  0.37658353  0.87121339  -0.00173833  1
  Zn  Zn102  1  0.75124673  -0.00240430  0.25130070  1
  Zn  Zn103  1  0.45563455  0.06611818  0.56568109  1
  Zn  Zn104  1  0.49992801  0.12404336  0.12611747  1
  Zn  Zn105  1  0.25412922  0.74853067  0.00041257  1
  Zn  Zn106  1  0.25354221  -0.00216397  0.25464207  1
  Zn  Zn107  1  0.24830801  0.00004023  0.75096136  1
  Zn  Zn108  1  0.00076080  0.87743198  0.87612328  1
  Zn  Zn109  1  0.00087163  0.37438708  0.87587767  1
  Zn  Zn110  1  0.89015826  0.88970801  0.50475863  1
  Zn  Zn111  1  -0.00035175  0.50173903  0.49968167  1
  Zn  Zn112  1  0.87719834  -0.00038919  0.87536793  1
  Zn  Zn113  1  -0.00024953  0.62387959  0.62446393  1
  Zn  Zn114  1  0.11778487  -0.00709262  0.62025260  1
  Zn  Zn115  1  0.37616749  0.37491727  0.50041994  1
  Zn  Zn116  1  0.00262936  0.88326591  0.38536352  1
  Zn  Zn117  1  0.62303331  0.50022926  0.12669168  1
  Zn  Zn118  1  0.88826653  0.00267209  0.38426076  1
  Zn  Zn119  1  0.37834475  0.49886970  0.87316772  1
  Zn  Zn120  1  0.49639101  0.87327390  0.87584574  1
  Zn  Zn121  1  0.37218323  0.99363555  0.39870962  1
  Zn  Zn122  1  0.18905533  0.18702967  0.18895890  1
  Zn  Zn123  1  0.18681279  0.18637497  0.68562148  1
  Zn  Zn124  1  0.18958515  0.68848784  0.18755951  1
  Zn  Zn125  1  0.18842255  0.68825691  0.68879974  1
  Zn  Zn126  1  0.68679036  0.18918349  0.18678553  1
  Zn  Zn127  1  0.68819071  0.18715380  0.68706315  1
  Zn  Zn128  1  0.68626569  0.68887084  0.18879063  1
  Zn  Zn129  1  0.68735383  0.68586760  0.68756367  1
  Zn  Zn130  1  0.31380737  0.31440351  0.31311228  1
  Zn  Zn131  1  0.31259296  0.30991993  0.81153706  1
  Zn  Zn132  1  0.31380889  0.81452347  0.31171351  1
  Zn  Zn133  1  0.31334933  0.81062054  0.81250247  1
  Zn  Zn134  1  0.81278935  0.30930954  0.31187557  1
  Zn  Zn135  1  0.81354666  0.31240383  0.81551854  1
  Zn  Zn136  1  0.81393373  0.81769408  0.31599356  1
  Zn  Zn137  1  0.81132272  0.81208843  0.81372168  1
  Zn  Zn138  1  0.18808347  0.43743372  0.43730339  1
  Zn  Zn139  1  0.18955263  0.43761991  0.93723830  1
  Zn  Zn140  1  0.18536449  0.93717265  0.43553535  1
  Zn  Zn141  1  0.18832742  0.93908420  0.93773438  1
  Zn  Zn142  1  0.68780769  0.43929531  0.43729531  1
  Zn  Zn143  1  0.68861117  0.43749414  0.93779880  1
  Zn  Zn144  1  0.68652481  0.93840085  0.43957862  1
  Zn  Zn145  1  0.68728144  0.93702991  0.93829471  1
  Zn  Zn146  1  0.31400517  0.06249011  0.06429078  1
  Zn  Zn147  1  0.29333853  0.06287899  0.56543038  1
  Zn  Zn148  1  0.31542200  0.56278530  0.06260872  1
  Zn  Zn149  1  0.31339760  0.56290192  0.55984286  1
  Zn  Zn150  1  0.81146750  0.06072632  0.06428018  1
  Zn  Zn151  1  0.80785663  0.06355942  0.56474425  1
  Zn  Zn152  1  0.81134119  0.55860593  0.06392562  1
  Zn  Zn153  1  0.81195433  0.56311168  0.56230613  1
  Zn  Zn154  1  0.44000551  0.44021106  0.18562471  1
  Zn  Zn155  1  0.43723845  0.43570621  0.68758637  1
  Zn  Zn156  1  0.43846994  0.93627033  0.18646359  1
  Zn  Zn157  1  0.43644383  0.93342304  0.69088219  1
  Zn  Zn158  1  0.93637877  0.43911815  0.18800861  1
  Zn  Zn159  1  0.93975369  0.43761550  0.68798605  1
  Zn  Zn160  1  0.93836073  0.94265361  0.19201272  1
  Zn  Zn161  1  0.93548923  0.93540915  0.68838205  1
  Zn  Zn162  1  0.06333199  0.06334453  0.31074774  1
  Zn  Zn163  1  0.05965714  0.06070162  0.81339607  1
  Zn  Zn164  1  0.06290751  0.56330040  0.31295172  1
  Zn  Zn165  1  0.06327888  0.56142144  0.81221217  1
  Zn  Zn166  1  0.56099075  0.06015575  0.31304371  1
  Zn  Zn167  1  0.56268546  0.06205498  0.81410799  1
  Zn  Zn168  1  0.56601549  0.55998669  0.31365722  1
  Zn  Zn169  1  0.56103538  0.55938233  0.81437610  1
  Zn  Zn170  1  0.43406353  0.18891404  0.43242369  1
  Zn  Zn171  1  0.43969436  0.18715643  0.93528254  1
  Zn  Zn172  1  0.43775262  0.68778155  0.43588964  1
  Zn  Zn173  1  0.43586707  0.69067420  0.94190716  1
  Zn  Zn174  1  0.93593379  0.18838297  0.43496142  1
  Zn  Zn175  1  0.93830936  0.18828531  0.93657756  1
  Zn  Zn176  1  0.94019159  0.69045153  0.43841442  1
  Zn  Zn177  1  0.93901020  0.68883040  0.93749567  1
  Zn  Zn178  1  0.06392362  0.31196943  0.06218747  1
  Zn  Zn179  1  0.06087480  0.31117706  0.56243317  1
  Zn  Zn180  1  0.06277919  0.81107346  0.06291537  1
  Zn  Zn181  1  0.06427675  0.80716295  0.56460135  1
  Zn  Zn182  1  0.56347063  0.31079627  0.06426664  1
  Zn  Zn183  1  0.56321954  0.31283502  0.56308133  1
  Zn  Zn184  1  0.56029475  0.81021376  0.06400687  1
  Zn  Zn185  1  0.56488518  0.81215884  0.56369826  1
  O  O186  1  0.11960017  0.11832875  0.12096159  1
  O  O187  1  0.11397678  0.12592301  0.61705643  1
  O  O188  1  0.12015972  0.61945536  0.11997765  1
  O  O189  1  0.12802396  0.61572099  0.61948930  1
  O  O190  1  0.62468766  0.11845717  0.11898410  1
  O  O191  1  0.63211840  0.11638292  0.61565536  1
  O  O192  1  0.61505780  0.62783374  0.11803836  1
  O  O193  1  0.61775459  0.62376156  0.61871010  1
  O  O194  1  0.38167465  0.38477090  0.37810301  1
  O  O195  1  0.37353306  0.37308059  0.88687608  1
  O  O196  1  0.39353876  0.87321210  0.36972720  1
  O  O197  1  0.37718840  0.87733867  0.87880758  1
  O  O198  1  0.87885724  0.37963067  0.37919566  1
  O  O199  1  0.87607787  0.38176492  0.88650405  1
  O  O200  1  0.87958409  0.88005507  0.38066527  1
  O  O201  1  0.87438949  0.87411451  0.88821942  1
  O  O202  1  0.25708317  -0.00137034  0.37196039  1
  O  O203  1  0.25161529  0.00914626  0.87158953  1
  O  O204  1  0.25752967  0.50402722  0.37078793  1
  O  O205  1  0.25149578  0.51227176  0.87259695  1
  O  O206  1  0.74089299  0.01632320  0.37141353  1
  O  O207  1  0.75067064  0.00707098  0.86948170  1
  O  O208  1  0.75687938  0.50828020  0.37414483  1
  O  O209  1  0.75675989  0.50542019  0.87005624  1
  O  O210  1  0.24561504  0.49566698  0.13020844  1
  O  O211  1  0.24070729  0.49340879  0.62367787  1
  O  O212  1  0.24133780  0.99213630  0.12541835  1
  O  O213  1  0.24014067  0.98726172  0.63162502  1
  O  O214  1  0.74659233  0.48640851  0.12709429  1
  O  O215  1  0.74913144  0.49356019  0.63210760  1
  O  O216  1  0.74163841  0.99205906  0.12635569  1
  O  O217  1  0.73939283  0.99439271  0.63398848  1
  O  O218  1  0.00486489  0.37050388  0.25337276  1
  O  O219  1  0.00709720  0.36750108  0.75183250  1
  O  O220  1  0.00817284  0.86622108  0.24412433  1
  O  O221  1  0.00912529  0.86758534  0.75040313  1
  O  O222  1  0.50587705  0.37017473  0.25514027  1
  O  O223  1  0.50644414  0.36402789  0.75116775  1
  O  O224  1  0.51352681  0.87699114  0.25558921  1
  O  O225  1  0.50778104  0.86571760  0.75180090  1
  O  O226  1  0.49206167  0.13193215  0.25011565  1
  O  O227  1  0.49105718  0.13592872  0.75651157  1
  O  O228  1  0.50629052  0.62251284  0.23654185  1
  O  O229  1  0.49582411  0.62969467  0.74427097  1
  O  O230  1  0.99347986  0.13131343  0.24160368  1
  O  O231  1  0.99469404  0.13093857  0.74161305  1
  O  O232  1  0.99477740  0.63062571  0.24398845  1
  O  O233  1  0.99291916  0.63046164  0.75016260  1
  O  O234  1  0.37033385  0.25593474  0.00546093  1
  O  O235  1  0.36431527  0.24872593  0.50438906  1
  O  O236  1  0.37239967  0.75285293  0.01391308  1
  O  O237  1  0.36144680  0.74359993  0.50552717  1
  O  O238  1  0.86934806  0.26266066  -0.00606617  1
  O  O239  1  0.86863012  0.25619272  0.50507336  1
  O  O240  1  0.86999648  0.75616314  0.00674271  1
  O  O241  1  0.86152134  0.74513587  0.50667289  1
  O  O242  1  0.13044439  0.24511002  0.49479656  1
  O  O243  1  0.13184961  0.24518675  0.99457985  1
  O  O244  1  0.13754189  0.74161634  0.49475752  1
  O  O245  1  0.12643318  0.74195790  0.99422447  1
  O  O246  1  0.63110283  0.24419175  0.49585200  1
  O  O247  1  0.63121529  0.24433900  0.99488861  1
  O  O248  1  0.63339075  0.74409455  0.49288855  1
  O  O249  1  0.63066210  0.74181985  0.99561661  1
  O  O250  1  0.49359456  0.24837965  0.13298007  1
  O  O251  1  0.49455556  0.25359405  0.63660003  1
  O  O252  1  0.49402812  0.73645187  0.12285501  1
  O  O253  1  0.49541691  0.74460010  0.62962613  1
  O  O254  1  1.00857550  0.23756239  0.13091326  1
  O  O255  1  0.99347165  0.24274114  0.63127293  1
  O  O256  1  0.99463132  0.74266266  0.13044767  1
  O  O257  1  0.99267503  0.74501960  0.63439427  1
  O  O258  1  0.00510329  0.25669561  0.36743914  1
  O  O259  1  0.00829751  0.25074556  0.86799015  1
  O  O260  1  0.00948813  0.74792678  0.36592591  1
  O  O261  1  0.00728604  0.75200090  0.86867381  1
  O  O262  1  0.50478827  0.25764611  0.36944576  1
  O  O263  1  0.50742718  0.25260249  0.86444240  1
  O  O264  1  0.51259065  0.75828177  0.38121373  1
  O  O265  1  0.50736059  0.74879869  0.86831577  1
  O  O266  1  0.23532811  0.13910590  0.50009193  1
  O  O267  1  0.24522316  0.13066014  0.99540978  1
  O  O268  1  0.24484604  0.63275164  0.49246509  1
  O  O269  1  0.24422260  0.62371252  0.99146308  1
  O  O270  1  0.74019974  0.13329602  0.49198717  1
  O  O271  1  0.74627213  0.13010607  0.99637472  1
  O  O272  1  0.74405923  0.63358394  0.49505163  1
  O  O273  1  0.74266764  0.62949284  0.99720280  1
  O  O274  1  0.25725403  0.36911834  0.00599865  1
  O  O275  1  0.24868937  0.36374584  0.50582799  1
  O  O276  1  0.24893048  0.87368560  0.01375441  1
  O  O277  1  0.24033510  0.86327450  0.51186780  1
  O  O278  1  0.75730527  0.37058236  0.00683337  1
  O  O279  1  0.75513435  0.37029593  0.50507456  1
  O  O280  1  0.75660122  0.86816509  0.00686112  1
  O  O281  1  0.74260230  0.86151216  0.50695388  1
  O  O282  1  0.13033051  0.49394110  0.24436901  1
  O  O283  1  0.12780983  0.49410657  0.74045312  1
  O  O284  1  0.12780998  0.99504100  0.23686180  1
  O  O285  1  0.12378841  0.98576071  0.74896010  1
  O  O286  1  0.62944901  0.49005029  0.24876517  1
  O  O287  1  0.63289553  0.49293449  0.74965633  1
  O  O288  1  0.62643736  0.99146583  0.24308356  1
  O  O289  1  0.63045577  0.99611805  0.74437546  1
  O  O290  1  0.37566912  0.01308018  0.24530696  1
  O  O291  1  0.37545186  0.01237641  0.75106709  1
  O  O292  1  0.36868906  0.49270735  0.26194967  1
  O  O293  1  0.37214409  0.50768724  0.75136044  1
  O  O294  1  0.87057291  0.01649346  0.25187678  1
  O  O295  1  0.86671045  0.00674111  0.75067817  1
  O  O296  1  0.87332092  0.50772211  0.25696014  1
  O  O297  1  0.87066312  0.50425038  0.75620268  1
  O  O298  1  0.11906556  0.37129231  0.36872184  1
  O  O299  1  0.12545670  0.36817875  0.86901513  1
  O  O300  1  0.12700945  0.86589800  0.36513433  1
  O  O301  1  0.12700979  0.86777113  0.86684875  1
  O  O302  1  0.62088759  0.36933643  0.37007309  1
  O  O303  1  0.62754846  0.36680978  0.86842804  1
  O  O304  1  0.61689509  0.86990102  0.36975499  1
  O  O305  1  0.62566497  0.86677660  0.86848229  1
  O  O306  1  0.37588208  0.13313695  0.13442337  1
  O  O307  1  0.37399011  0.13020377  0.63536052  1
  O  O308  1  0.38984237  0.63014363  0.12063235  1
  O  O309  1  0.37989642  0.63092667  0.62987962  1
  O  O310  1  0.88611291  0.12040805  0.13196957  1
  O  O311  1  0.87967591  0.13221352  0.63039141  1
  O  O312  1  0.87984568  0.62956003  0.12956135  1
  O  O313  1  0.87493663  0.63049261  0.63337525  1
  O  O314  1  0.25456050  0.25656831  0.11972779  1
  O  O315  1  0.25445483  0.25376047  0.61623655  1
  O  O316  1  0.25642696  0.75701964  0.12315726  1
  O  O317  1  0.25448840  0.75493797  0.61745809  1
  O  O318  1  0.74542734  0.26309817  0.11780074  1
  O  O319  1  0.75629742  0.25597237  0.62031456  1
  O  O320  1  0.75566858  0.75458106  0.12028860  1
  O  O321  1  0.75312531  0.75385616  0.61836810  1
  O  O322  1  0.24372104  0.25270342  0.38493525  1
  O  O323  1  0.24444754  0.24330760  0.88062654  1
  O  O324  1  0.24714308  0.74653442  0.38148322  1
  O  O325  1  0.24398371  0.73817616  0.87670572  1
  O  O326  1  0.74351873  0.24181662  0.38005593  1
  O  O327  1  0.74456531  0.24371105  0.88130157  1
  O  O328  1  0.74167460  0.74619159  0.38378964  1
  O  O329  1  0.74442904  0.74256946  0.88132630  1
  O  O330  1  0.00578151  0.12641470  0.00898091  1
  O  O331  1  0.00687938  0.13603221  0.51004711  1
  O  O332  1  0.00534665  0.61909579  0.00594734  1
  O  O333  1  0.01142766  0.62376714  0.50285343  1
  O  O334  1  0.50741425  0.11690614  0.00129772  1
  O  O335  1  0.51573702  0.13495442  0.49680699  1
  O  O336  1  0.51198780  0.62515990  0.00456935  1
  O  O337  1  0.50490396  0.62050559  0.50502127  1
  O  O338  1  0.50032496  0.38126276  0.49290513  1
  O  O339  1  0.48913759  0.37351529  1.00042193  1
  O  O340  1  0.50592758  0.87378252  0.48801416  1
  O  O341  1  0.50178965  0.88583270  0.99915122  1
  O  O342  1  0.99268524  0.37504735  0.49249193  1
  O  O343  1  0.99226867  0.37987795  1.00129611  1
  O  O344  1  1.00058539  0.86639931  0.49900897  1
  O  O345  1  0.98788508  0.87461903  1.00171775  1
  O  O346  1  0.49308177  0.49683556  0.37919639  1
  O  O347  1  0.49599887  0.49426487  0.88080751  1
  O  O348  1  0.49981741  0.98576780  0.37621998  1
  O  O349  1  0.50002477  0.99792222  0.88673119  1
  O  O350  1  0.99363562  0.49333329  0.37584300  1
  O  O351  1  0.99500257  0.49795227  0.88280620  1
  O  O352  1  1.00078888  0.99635028  0.36912549  1
  O  O353  1  0.99536520  0.99571707  0.88118590  1
  O  O354  1  0.01033712  0.01118859  0.12426270  1
  O  O355  1  -0.00120340  0.01468290  0.62964060  1
  O  O356  1  0.00638151  0.50574155  0.12052514  1
  O  O357  1  0.01367359  0.50103109  0.62277707  1
  O  O358  1  0.50790294  0.00105964  0.11560000  1
  O  O359  1  0.51548571  -0.00306449  0.63321737  1
  O  O360  1  0.50172534  0.51446360  0.12014825  1
  O  O361  1  0.50064336  0.50619963  0.61813891  1
  O  O362  1  0.24407320  0.38113970  0.24444271  1
  O  O363  1  0.24363643  0.37411813  0.74269412  1
  O  O364  1  0.24286830  0.87527002  0.23747530  1
  O  O365  1  0.23992841  0.87120476  0.74202178  1
  O  O366  1  0.74596641  0.37216341  0.24137184  1
  O  O367  1  0.74670144  0.37909449  0.74539461  1
  O  O368  1  0.73953874  0.87650661  0.24517925  1
  O  O369  1  0.74395943  0.87930132  0.74531497  1
  O  O370  1  0.25910339  0.12327254  0.25311861  1
  O  O371  1  0.25990954  0.12644779  0.75447026  1
  O  O372  1  0.24312682  0.61568796  0.25829661  1
  O  O373  1  0.25614241  0.62518480  0.75932516  1
  O  O374  1  0.75665907  0.12887012  0.25740220  1
  O  O375  1  0.75518114  0.12099414  0.75576381  1
  O  O376  1  0.75666106  0.62528330  0.25643521  1
  O  O377  1  0.75529612  0.61943687  0.75674504  1
  O  O378  1  0.37209676  0.12266166  0.36366963  1
  O  O379  1  0.36822237  0.12606919  0.86540595  1
  O  O380  1  0.36966926  0.61281039  0.37916724  1
  O  O381  1  0.36616164  0.62634476  0.87065190  1
  O  O382  1  0.86388053  0.12644186  0.36778362  1
  O  O383  1  0.86835640  0.12482766  0.86870923  1
  O  O384  1  0.87044534  0.62163291  0.37027625  1
  O  O385  1  0.86925116  0.61983861  0.87163376  1
  O  O386  1  0.13111485  0.38108244  0.12967405  1
  O  O387  1  0.12961725  0.38120698  0.62926608  1
  O  O388  1  0.13151113  0.88150347  0.12822155  1
  O  O389  1  0.13348776  0.87085617  0.63572370  1
  O  O390  1  0.63335821  0.37647583  0.13030102  1
  O  O391  1  0.63350937  0.37604399  0.63215714  1
  O  O392  1  0.62909717  0.87654129  0.13273947  1
  O  O393  1  0.63039520  0.88215700  0.63160260  1
  O  O394  1  0.11993037  0.25655894  0.25471283  1
  O  O395  1  0.12065311  0.25431656  0.75418621  1
  O  O396  1  0.12002434  0.75435482  0.25357701  1
  O  O397  1  0.11987995  0.75647616  0.75550690  1
  O  O398  1  0.61894184  0.25502831  0.25636852  1
  O  O399  1  0.61885161  0.25271816  0.75370899  1
  O  O400  1  0.63174797  0.75954301  0.26283605  1
  O  O401  1  0.62088427  0.75379385  0.75494892  1
  O  O402  1  0.37934079  0.24378445  0.24623553  1
  O  O403  1  0.38233840  0.24253287  0.74478019  1
  O  O404  1  0.37073582  0.75083899  0.23556990  1
  O  O405  1  0.38164020  0.74262848  0.74325670  1
  O  O406  1  0.88257074  0.23689440  0.25426159  1
  O  O407  1  0.87985568  0.24519994  0.74541823  1
  O  O408  1  0.87955965  0.74490136  0.24473994  1
  O  O409  1  0.87845107  0.74432103  0.74623085  1
  O  O410  1  0.38078249  0.49752966  0.48957646  1
  O  O411  1  0.37458595  0.48598602  0.99941453  1
  O  O412  1  0.37547465  1.01564148  0.50853013  1
  O  O413  1  0.38717455  0.99949837  1.00074735  1
  O  O414  1  0.87644269  0.49402967  0.49374750  1
  O  O415  1  0.88059417  0.49209900  0.99564207  1
  O  O416  1  0.85792584  0.99718956  0.49485752  1
  O  O417  1  0.87473705  0.98723771  1.00099610  1
  O  O418  1  0.12409769  0.00638104  0.01097394  1
  O  O419  1  0.13038924  0.01674075  0.50162071  1
  O  O420  1  0.12030456  0.50422418  0.00623663  1
  O  O421  1  0.12569547  0.50541721  0.50821727  1
  O  O422  1  0.61912397  0.00468694  0.00586972  1
  O  O423  1  0.63104973  0.01093443  0.51166481  1
  O  O424  1  0.62695658  0.51282388  0.00202230  1
  O  O425  1  0.61808106  0.50769828  0.50011903  1
  O  O426  1  0.36989762  0.36992389  0.11826245  1
  O  O427  1  0.36789308  0.36651744  0.62230016  1
  O  O428  1  0.36665298  0.86809269  0.12501457  1
  O  O429  1  0.36066707  0.86688378  0.63454928  1
  O  O430  1  0.86673992  0.38091544  0.11409916  1
  O  O431  1  0.87058183  0.37035060  0.61979389  1
  O  O432  1  0.86962031  0.86987437  0.12000432  1
  O  O433  1  0.86603550  0.86631052  0.62549441  1
  O  O434  1  0.12505949  0.13408683  0.38250868  1
  O  O435  1  0.13051322  0.13033197  0.87983095  1
  O  O436  1  0.13277982  0.62957877  0.38054957  1
  O  O437  1  0.13289175  0.62861393  0.87948493  1
  O  O438  1  0.63023076  0.13106041  0.38161152  1
  O  O439  1  0.63224772  0.13063049  0.88124243  1
  O  O440  1  0.62930018  0.63338595  0.37933745  1
  O  O441  1  0.63078027  0.62966458  0.88284139  1
