# generated using pymatgen
data_V93Zn93O256
_symmetry_space_group_name_H-M   'P 1'
_cell_length_a   17.05087435
_cell_length_b   17.04953379
_cell_length_c   17.04846043
_cell_angle_alpha   89.95909820
_cell_angle_beta   90.04100858
_cell_angle_gamma   90.01195014
_symmetry_Int_Tables_number   1
_chemical_formula_structural   V93Zn93O256
_chemical_formula_sum   'V93 Zn93 O256'
_cell_volume   4956.14605652
_cell_formula_units_Z   1
loop_
 _symmetry_equiv_pos_site_id
 _symmetry_equiv_pos_as_xyz
  1  'x, y, z'
loop_
 _atom_site_type_symbol
 _atom_site_label
 _atom_site_symmetry_multiplicity
 _atom_site_fract_x
 _atom_site_fract_y
 _atom_site_fract_z
 _atom_site_occupancy
  V  V0  1  0.87441505  0.37373226  0.00012200  1
  V  V1  1  0.37832437  0.50029016  0.37553234  1
  V  V2  1  0.24412300  0.12778884  0.37545941  1
  V  V3  1  0.00066721  0.62463404  0.12582941  1
  V  V4  1  0.24893065  0.50166645  0.74975102  1
  V  V5  1  0.87528262  0.74989244  0.62566040  1
  V  V6  1  0.00096368  0.50054048  0.49955595  1
  V  V7  1  0.37243155  0.63093263  0.74154259  1
  V  V8  1  0.00055748  0.12394646  0.12590922  1
  V  V9  1  0.37671868  0.12917003  0.74912495  1
  V  V10  1  0.12527885  0.87287697  0.25109057  1
  V  V11  1  0.12536129  0.36966697  0.25497409  1
  V  V12  1  0.75029501  -0.00099764  0.24944449  1
  V  V13  1  0.87536302  0.87488497  0.50003002  1
  V  V14  1  0.75018254  0.12640077  0.87586305  1
  V  V15  1  0.87539910  0.24988806  0.12451382  1
  V  V16  1  0.73199401  0.49665948  0.74662054  1
  V  V17  1  0.24973175  0.49983008  0.25074367  1
  V  V18  1  0.73570399  0.37749286  0.62848799  1
  V  V19  1  0.24918138  0.75034395  -0.00082712  1
  V  V20  1  0.62577868  0.50017158  0.12583875  1
  V  V21  1  0.62506240  0.12402057  0.49907510  1
  V  V22  1  0.12548881  0.75062587  0.37607700  1
  V  V23  1  -0.00026167  0.49960359  -0.00126980  1
  V  V24  1  0.87484940  0.37532409  0.50131963  1
  V  V25  1  0.49934960  0.62604901  0.12582811  1
  V  V26  1  0.00201524  0.37092557  0.37573292  1
  V  V27  1  0.49863587  -0.00306339  0.50044938  1
  V  V28  1  0.62579023  0.37375023  0.25054716  1
  V  V29  1  0.00270992  0.24871522  0.25485454  1
  V  V30  1  0.24894242  0.25022749  -0.00006755  1
  V  V31  1  0.12606649  0.12582722  -0.00076077  1
  V  V32  1  0.11964750  0.25029390  0.87135376  1
  V  V33  1  0.12460184  0.49908859  0.12510557  1
  V  V34  1  0.49670173  0.75175832  0.74420262  1
  V  V35  1  -0.00036611  -0.00060805  0.50054496  1
  V  V36  1  0.75040714  0.12438281  0.37611177  1
  V  V37  1  -0.00063718  0.74865159  0.74961741  1
  V  V38  1  0.25120861  0.62586257  0.37648131  1
  V  V39  1  0.24217313  0.25032747  0.49590206  1
  V  V40  1  0.25060058  0.87450160  0.12440474  1
  V  V41  1  0.37461019  0.87697009  -0.00024374  1
  V  V42  1  0.12453813  0.00230008  0.62319328  1
  V  V43  1  0.75013040  0.00055177  0.74997837  1
  V  V44  1  0.12572210  -0.00064890  0.12440999  1
  V  V45  1  0.26350036  0.87290724  0.62123428  1
  V  V46  1  0.12458959  0.87468537  0.74910425  1
  V  V47  1  0.37317532  0.37605776  0.00012423  1
  V  V48  1  0.50001565  -0.00011858  0.00009415  1
  V  V49  1  0.50009178  0.74992198  0.25044925  1
  V  V50  1  0.62388905  0.75070131  0.87463688  1
  V  V51  1  0.62351689  0.62541500  0.00004863  1
  V  V52  1  0.12423754  0.50056297  0.62444427  1
  V  V53  1  0.49856065  0.50041670  0.00133256  1
  V  V54  1  0.62482019  0.12788843  -0.00123128  1
  V  V55  1  0.25183707  0.00145166  0.74990050  1
  V  V56  1  0.50055156  0.24892223  0.25136543  1
  V  V57  1  0.50363193  0.61978555  0.62518163  1
  V  V58  1  0.74918402  0.87563789  0.62563669  1
  V  V59  1  0.24971997  0.62641069  0.87411789  1
  V  V60  1  0.12585766  0.62594645  0.50105668  1
  V  V61  1  0.26316748  0.75433301  0.50391139  1
  V  V62  1  0.00040550  0.12900560  0.62922907  1
  V  V63  1  0.87741502  0.25198147  0.63116008  1
  V  V64  1  0.00026440  -0.00104573  -0.00136193  1
  V  V65  1  0.49845280  0.87356871  0.37975139  1
  V  V66  1  0.87515636  0.74820367  0.12510790  1
  V  V67  1  0.49924928  0.12481173  0.62478865  1
  V  V68  1  0.37440722  0.24966421  0.12519031  1
  V  V69  1  0.62598041  0.00011026  0.62510695  1
  V  V70  1  0.87559358  0.49976257  0.37517483  1
  V  V71  1  0.75021326  0.62456146  0.37629123  1
  V  V72  1  0.75035062  0.87394338  0.12521874  1
  V  V73  1  0.25102678  -0.00083939  0.25052553  1
  V  V74  1  0.87619118  0.12699127  0.75036970  1
  V  V75  1  0.87560738  -0.00174884  0.37569193  1
  V  V76  1  0.87631498  0.00008505  0.87560068  1
  V  V77  1  0.49960304  0.87563028  0.87570590  1
  V  V78  1  0.62651324  0.61738981  0.50459920  1
  V  V79  1  0.75072144  0.49943552  0.25071612  1
  V  V80  1  0.37546024  0.12474466  0.25023501  1
  V  V81  1  0.11827651  0.37169401  0.75011386  1
  V  V82  1  0.50471343  0.37319284  0.87045912  1
  V  V83  1  0.74960824  0.74959356  -0.00034952  1
  V  V84  1  0.37436933  -0.00451500  0.38103242  1
  V  V85  1  0.74962193  0.74871071  0.50070839  1
  V  V86  1  0.74945050  0.24970524  0.50112273  1
  V  V87  1  0.37483455  0.37485931  0.49967401  1
  V  V88  1  0.87509014  0.49959589  0.86981460  1
  V  V89  1  0.74883054  0.62367181  0.87289096  1
  V  V90  1  0.25015849  0.37529462  0.62474803  1
  V  V91  1  0.62583373  -0.00089216  0.12519244  1
  V  V92  1  0.87603150  0.12436153  0.25032747  1
  Zn  Zn93  1  -0.00105462  0.87413176  0.87625137  1
  Zn  Zn94  1  0.50665627  0.49473988  0.50574749  1
  Zn  Zn95  1  0.62591191  0.75048417  0.37641729  1
  Zn  Zn96  1  0.62608666  0.24837344  0.37402332  1
  Zn  Zn97  1  0.37480500  0.74863711  0.12579789  1
  Zn  Zn98  1  -0.00335086  0.37125143  0.87011559  1
  Zn  Zn99  1  0.62978966  0.25574092  0.86847275  1
  Zn  Zn100  1  0.50217189  0.37490432  0.37730364  1
  Zn  Zn101  1  0.12246531  0.75012675  0.87482150  1
  Zn  Zn102  1  0.87281656  0.62417308  0.74668878  1
  Zn  Zn103  1  0.75025326  0.37355599  0.12449285  1
  Zn  Zn104  1  0.25095381  0.12676464  0.87370225  1
  Zn  Zn105  1  0.12041997  0.12881749  0.49557973  1
  Zn  Zn106  1  0.74828927  0.25124969  0.00022658  1
  Zn  Zn107  1  0.62562565  0.87464365  0.25149258  1
  Zn  Zn108  1  0.37489995  0.25053019  0.62395123  1
  Zn  Zn109  1  0.87689133  0.87483065  -0.00157331  1
  Zn  Zn110  1  0.24827459  0.37592534  0.12574498  1
  Zn  Zn111  1  0.37640059  0.00374555  0.87592815  1
  Zn  Zn112  1  0.00050753  0.74948084  0.25190083  1
  Zn  Zn113  1  0.50666622  0.26038324  0.74201170  1
  Zn  Zn114  1  0.37512578  0.62421956  0.24886878  1
  Zn  Zn115  1  0.12567299  0.62392976  -0.00155745  1
  Zn  Zn116  1  0.62442689  0.87577689  0.75054869  1
  Zn  Zn117  1  0.50000270  0.12291506  0.12485820  1
  Zn  Zn118  1  0.00039696  0.87279463  0.37424044  1
  Zn  Zn119  1  0.87508578  0.62360304  0.25125654  1
  Zn  Zn120  1  -0.00118117  0.62475654  0.62461247  1
  Zn  Zn121  1  0.37394510  0.50069730  0.87433696  1
  Zn  Zn122  1  0.18860261  0.18821711  0.18671675  1
  Zn  Zn123  1  0.18872960  0.19013420  0.68467879  1
  Zn  Zn124  1  0.18761012  0.68613622  0.18831235  1
  Zn  Zn125  1  0.18697060  0.69092236  0.68300892  1
  Zn  Zn126  1  0.68970645  0.18676655  0.18491179  1
  Zn  Zn127  1  0.68674361  0.18994234  0.68882499  1
  Zn  Zn128  1  0.68624899  0.68653702  0.18951949  1
  Zn  Zn129  1  0.68596891  0.68625663  0.68846715  1
  Zn  Zn130  1  0.31192732  0.31259979  0.31340870  1
  Zn  Zn131  1  0.31084828  0.31216405  0.81386919  1
  Zn  Zn132  1  0.31352972  0.81134485  0.31427606  1
  Zn  Zn133  1  0.31332412  0.81463288  0.81281038  1
  Zn  Zn134  1  0.81438800  0.31122185  0.31332524  1
  Zn  Zn135  1  0.80672472  0.31425984  0.81101151  1
  Zn  Zn136  1  0.81331470  0.81121786  0.31217537  1
  Zn  Zn137  1  0.81315503  0.81449966  0.81284279  1
  Zn  Zn138  1  0.18797197  0.43883968  0.43630740  1
  Zn  Zn139  1  0.18640095  0.43738081  0.93598170  1
  Zn  Zn140  1  0.18707790  0.93618198  0.43960046  1
  Zn  Zn141  1  0.18696986  0.93793853  0.93512538  1
  Zn  Zn142  1  0.68980740  0.43555621  0.43727138  1
  Zn  Zn143  1  0.68851098  0.44027784  0.93737066  1
  Zn  Zn144  1  0.68599170  0.93611389  0.43711186  1
  Zn  Zn145  1  0.68804181  0.93768225  0.93824469  1
  Zn  Zn146  1  0.31281184  0.06387413  0.06273979  1
  Zn  Zn147  1  0.31146861  0.06338847  0.56265915  1
  Zn  Zn148  1  0.31256004  0.56299230  0.06459128  1
  Zn  Zn149  1  0.31239257  0.56367345  0.56213005  1
  Zn  Zn150  1  0.81257214  0.06197488  0.06165068  1
  Zn  Zn151  1  0.81341158  0.06285311  0.56279545  1
  Zn  Zn152  1  0.81164307  0.56139006  0.06184312  1
  Zn  Zn153  1  0.81192485  0.56078120  0.56609323  1
  Zn  Zn154  1  0.43848185  0.43646415  0.18781590  1
  Zn  Zn155  1  0.43393051  0.44298773  0.68801079  1
  Zn  Zn156  1  0.43778665  0.93577101  0.18826291  1
  Zn  Zn157  1  0.43965303  0.94098355  0.68989970  1
  Zn  Zn158  1  0.93860221  0.43674828  0.18809423  1
  Zn  Zn159  1  0.93506363  0.43765611  0.68483119  1
  Zn  Zn160  1  0.93831587  0.93498204  0.18725641  1
  Zn  Zn161  1  0.93737109  0.93844011  0.68739218  1
  Zn  Zn162  1  0.06229848  0.05864432  0.31195259  1
  Zn  Zn163  1  0.06300201  0.06370642  0.81253424  1
  Zn  Zn164  1  0.06420204  0.56139470  0.31289681  1
  Zn  Zn165  1  0.06273291  0.56234417  0.81192579  1
  Zn  Zn166  1  0.56313171  0.06118404  0.31238600  1
  Zn  Zn167  1  0.56351257  0.06540925  0.81222665  1
  Zn  Zn168  1  0.56429531  0.56390440  0.31519088  1
  Zn  Zn169  1  0.55678220  0.56382741  0.81596748  1
  Zn  Zn170  1  0.43466335  0.18573274  0.43683025  1
  Zn  Zn171  1  0.43726509  0.18828504  0.93600006  1
  Zn  Zn172  1  0.44094339  0.68522784  0.43802559  1
  Zn  Zn173  1  0.43514970  0.68931998  0.93508521  1
  Zn  Zn174  1  0.93608297  0.18792365  0.44003420  1
  Zn  Zn175  1  0.93872066  0.18663372  0.93775120  1
  Zn  Zn176  1  0.93826368  0.68746515  0.43792639  1
  Zn  Zn177  1  0.93694371  0.68622468  0.93672334  1
  Zn  Zn178  1  0.06105592  0.31245203  0.06385045  1
  Zn  Zn179  1  0.06188550  0.31371171  0.56361131  1
  Zn  Zn180  1  0.06302568  0.81244175  0.06223479  1
  Zn  Zn181  1  0.06604127  0.81301267  0.56286488  1
  Zn  Zn182  1  0.56014571  0.31234991  0.06268657  1
  Zn  Zn183  1  0.55963819  0.30721727  0.55993938  1
  Zn  Zn184  1  0.56291001  0.81335681  0.06372842  1
  Zn  Zn185  1  0.56361955  0.80988312  0.56233152  1
  O  O186  1  0.12033630  0.11891256  0.12033787  1
  O  O187  1  0.11551026  0.12169758  0.62434316  1
  O  O188  1  0.11600032  0.61888160  0.12325872  1
  O  O189  1  0.12381802  0.61759956  0.61900554  1
  O  O190  1  0.62479028  0.11859849  0.11481874  1
  O  O191  1  0.62006356  0.11849191  0.61768155  1
  O  O192  1  0.61941829  0.61970548  0.11912041  1
  O  O193  1  0.61645461  0.62887108  0.61596962  1
  O  O194  1  0.37445098  0.38360841  0.38361971  1
  O  O195  1  0.38046382  0.37664359  0.88694671  1
  O  O196  1  0.38435645  0.88697763  0.36949411  1
  O  O197  1  0.38127761  0.87890820  0.88175061  1
  O  O198  1  0.88026587  0.38045882  0.38199210  1
  O  O199  1  0.87617416  0.38235428  0.88126152  1
  O  O200  1  0.87644365  0.88059545  0.38196176  1
  O  O201  1  0.87735129  0.88436306  0.87783963  1
  O  O202  1  0.25809157  0.00516971  0.37152750  1
  O  O203  1  0.25023717  0.00201366  0.86002208  1
  O  O204  1  0.25868305  0.50577816  0.37125473  1
  O  O205  1  0.25029261  0.51072104  0.86930848  1
  O  O206  1  0.75621295  0.00432259  0.37020873  1
  O  O207  1  0.75603682  0.00632213  0.87022573  1
  O  O208  1  0.75664042  0.50439809  0.37035110  1
  O  O209  1  0.75637467  0.50291068  0.86615253  1
  O  O210  1  0.24322311  0.49895521  0.13227534  1
  O  O211  1  0.24370073  0.49510449  0.62944319  1
  O  O212  1  0.24491572  0.99502103  0.13061315  1
  O  O213  1  0.24489631  0.99431820  0.63197544  1
  O  O214  1  0.74327350  0.49825575  0.13165899  1
  O  O215  1  0.75552084  0.48934916  0.63556522  1
  O  O216  1  0.74685033  0.99397437  0.13024579  1
  O  O217  1  0.74588406  0.99564057  0.62984456  1
  O  O218  1  0.00704375  0.36959749  0.25551846  1
  O  O219  1  0.01470897  0.37998520  0.74898877  1
  O  O220  1  0.00974352  0.87159226  0.25126404  1
  O  O221  1  0.00899175  0.86812709  0.74907561  1
  O  O222  1  0.50886280  0.36626724  0.25126994  1
  O  O223  1  0.48862610  0.37920704  0.76735728  1
  O  O224  1  0.50133238  0.86713631  0.25937636  1
  O  O225  1  0.50016704  0.86671399  0.75520953  1
  O  O226  1  0.49486720  0.13295317  0.24954032  1
  O  O227  1  0.48763407  0.11997846  0.74318638  1
  O  O228  1  0.50052613  0.63328568  0.24550207  1
  O  O229  1  0.49219929  0.63151426  0.74498669  1
  O  O230  1  0.99563661  0.12800238  0.24569459  1
  O  O231  1  0.99349411  0.11938469  0.73621751  1
  O  O232  1  0.99880396  0.62477776  0.23707134  1
  O  O233  1  0.99925184  0.63703645  0.74797003  1
  O  O234  1  0.37022578  0.25728075  0.00485554  1
  O  O235  1  0.36598014  0.26120489  0.49829047  1
  O  O236  1  0.36374190  0.75684733  -0.00014200  1
  O  O237  1  0.36168508  0.74590031  0.49488982  1
  O  O238  1  0.87736261  0.25922326  0.00512459  1
  O  O239  1  0.86842432  0.25504439  0.51038417  1
  O  O240  1  0.86869011  0.74874132  0.00990744  1
  O  O241  1  0.86958249  0.75517250  0.50584631  1
  O  O242  1  0.13804882  0.25062594  0.50213809  1
  O  O243  1  0.12921401  0.24611675  0.99390240  1
  O  O244  1  0.13212819  0.74425639  0.49453491  1
  O  O245  1  0.13755132  0.74878923  0.99699974  1
  O  O246  1  0.63157925  0.24170517  0.49617943  1
  O  O247  1  0.62442329  0.23891560  0.99844966  1
  O  O248  1  0.63265277  0.73911368  0.49909534  1
  O  O249  1  0.62973286  0.74429321  0.99510545  1
  O  O250  1  0.49387328  0.24828748  0.13653323  1
  O  O251  1  0.49395644  0.24104592  0.62531886  1
  O  O252  1  0.49925196  0.74548246  0.13368595  1
  O  O253  1  0.50435672  0.74122339  0.63777224  1
  O  O254  1  0.99506859  0.24253705  0.13252358  1
  O  O255  1  0.98886173  0.24110374  0.61774087  1
  O  O256  1  0.99269528  0.74074000  0.12370573  1
  O  O257  1  0.99481026  0.75082017  0.63415315  1
  O  O258  1  -0.00740159  0.25746510  0.36809404  1
  O  O259  1  0.01504930  0.25159747  0.87890878  1
  O  O260  1  0.00892889  0.75109594  0.37266760  1
  O  O261  1  0.00156859  0.75174203  0.86465160  1
  O  O262  1  0.50049080  0.25045948  0.36221120  1
  O  O263  1  0.49856123  0.26725992  0.87641481  1
  O  O264  1  0.49950454  0.75784035  0.36879418  1
  O  O265  1  0.50464831  0.75480837  0.86691180  1
  O  O266  1  0.24922396  0.13359853  0.49269100  1
  O  O267  1  0.24313012  0.13112595  0.99840931  1
  O  O268  1  0.24497492  0.63308443  0.49663414  1
  O  O269  1  0.25149764  0.63297535  0.99112337  1
  O  O270  1  0.74551743  0.12947828  0.49597093  1
  O  O271  1  0.74095521  0.12491706  0.99467209  1
  O  O272  1  0.74383471  0.62819701  0.49743174  1
  O  O273  1  0.74306568  0.62890671  0.99336669  1
  O  O274  1  0.25863618  0.37075273  0.00065851  1
  O  O275  1  0.25580194  0.36917322  0.50257828  1
  O  O276  1  0.25345846  0.86893022  0.00345857  1
  O  O277  1  0.24487249  0.86668605  0.51005466  1
  O  O278  1  0.76264677  0.37505091  0.00065919  1
  O  O279  1  0.75611588  0.37054341  0.50783019  1
  O  O280  1  0.75186278  0.86692622  0.00696416  1
  O  O281  1  0.75521506  0.86957610  0.50572772  1
  O  O282  1  0.12987201  0.49109130  0.24503608  1
  O  O283  1  0.13038526  0.49264313  0.74486401  1
  O  O284  1  0.13194122  0.99388475  0.24369016  1
  O  O285  1  0.13268210  0.99465223  0.74409740  1
  O  O286  1  0.62900709  0.49165801  0.24641753  1
  O  O287  1  0.63365653  0.50387406  0.75504450  1
  O  O288  1  0.63277523  1.00006807  0.24294285  1
  O  O289  1  0.63218061  1.00031633  0.74276588  1
  O  O290  1  0.37020045  0.00484192  0.25864863  1
  O  O291  1  0.36560391  0.00931729  0.75063968  1
  O  O292  1  0.36982273  0.49747505  0.26036618  1
  O  O293  1  0.36627550  0.51339026  0.75250626  1
  O  O294  1  0.87052362  0.00494215  0.25466503  1
  O  O295  1  0.86981635  0.00668820  0.75492090  1
  O  O296  1  0.86909204  0.49927532  0.25694771  1
  O  O297  1  0.87285032  0.50010168  0.76121863  1
  O  O298  1  0.11881572  0.38156423  0.36268579  1
  O  O299  1  0.12324760  0.36853877  0.86644093  1
  O  O300  1  0.12510183  0.86916245  0.36834764  1
  O  O301  1  0.12477804  0.87426828  0.85923873  1
  O  O302  1  0.62354618  0.37195363  0.36357771  1
  O  O303  1  0.60776788  0.37675006  0.88379875  1
  O  O304  1  0.61348425  0.87321081  0.37187534  1
  O  O305  1  0.61823219  0.86826704  0.87434652  1
  O  O306  1  0.37662357  0.13135879  0.13273099  1
  O  O307  1  0.38056142  0.12496465  0.63256172  1
  O  O308  1  0.38385405  0.62720419  0.12831160  1
  O  O309  1  0.38219366  0.62364699  0.63558927  1
  O  O310  1  0.88140683  0.12868397  0.13090996  1
  O  O311  1  0.88063821  0.13299609  0.62928161  1
  O  O312  1  0.88297563  0.63111704  0.12451487  1
  O  O313  1  0.87815451  0.63384290  0.62701332  1
  O  O314  1  0.25669650  0.25332124  0.11829399  1
  O  O315  1  0.25383171  0.25705060  0.61376535  1
  O  O316  1  0.25072080  0.75450067  0.11518256  1
  O  O317  1  0.24597865  0.76114418  0.61587825  1
  O  O318  1  0.75986091  0.25264531  0.12139682  1
  O  O319  1  0.75821450  0.25707930  0.62072134  1
  O  O320  1  0.75680883  0.75165785  0.12030983  1
  O  O321  1  0.75513906  0.75549660  0.62144091  1
  O  O322  1  0.25703088  0.23820297  0.38274605  1
  O  O323  1  0.23864805  0.24960582  0.88213526  1
  O  O324  1  0.24529685  0.74589239  0.38299693  1
  O  O325  1  0.24885093  0.74350114  0.88174472  1
  O  O326  1  0.75136484  0.24218589  0.38251919  1
  O  O327  1  0.74874088  0.24254300  0.87967861  1
  O  O328  1  0.75043374  0.74296456  0.38235716  1
  O  O329  1  0.74499555  0.74398410  0.87898111  1
  O  O330  1  0.00687740  0.11923149  0.00683814  1
  O  O331  1  0.00010980  0.11956935  0.51059253  1
  O  O332  1  0.00179314  0.61919870  0.00958223  1
  O  O333  1  0.00808251  0.61782218  0.50056693  1
  O  O334  1  0.50821523  0.11975882  0.00065507  1
  O  O335  1  0.50442746  0.11823883  0.50394428  1
  O  O336  1  0.50397847  0.62127369  0.00393797  1
  O  O337  1  0.50816436  0.62494645  0.50957193  1
  O  O338  1  0.48939116  0.37630336  0.49821061  1
  O  O339  1  0.49065464  0.38007253  0.99401988  1
  O  O340  1  0.50516394  0.87988818  0.48858118  1
  O  O341  1  0.49439601  0.87930560  0.99555963  1
  O  O342  1  0.99525827  0.38033728  0.49541822  1
  O  O343  1  0.98897196  0.38107707  0.99867579  1
  O  O344  1  0.99317510  0.88162863  0.50075054  1
  O  O345  1  0.99954934  0.88291628  0.99735401  1
  O  O346  1  0.48876778  0.49880762  0.37840788  1
  O  O347  1  0.49488907  0.49114549  0.88286658  1
  O  O348  1  0.49311993  0.99319691  0.37892247  1
  O  O349  1  0.50016189  0.99314167  0.88182376  1
  O  O350  1  0.99518650  0.49319458  0.38044144  1
  O  O351  1  0.99027283  0.49993073  0.87969394  1
  O  O352  1  0.99276927  0.99890940  0.38214543  1
  O  O353  1  0.99449254  1.00059194  0.88068658  1
  O  O354  1  0.00626301  0.00498816  0.11994870  1
  O  O355  1  0.00328430  0.00919042  0.61981338  1
  O  O356  1  0.00301999  0.50770590  0.11969873  1
  O  O357  1  0.00623077  0.50053480  0.61719659  1
  O  O358  1  0.50675776  0.00050655  0.11904967  1
  O  O359  1  0.50578101  0.00428862  0.61915413  1
  O  O360  1  0.50607548  0.50548888  0.12099171  1
  O  O361  1  0.49714592  0.51507832  0.62456784  1
  O  O362  1  0.24123572  0.37984522  0.25000953  1
  O  O363  1  0.24378547  0.38192599  0.74463489  1
  O  O364  1  0.24610489  0.87988454  0.24464246  1
  O  O365  1  0.24419939  0.88152606  0.74277629  1
  O  O366  1  0.74084114  0.37905649  0.24959871  1
  O  O367  1  0.75173030  0.38464355  0.74051909  1
  O  O368  1  0.74930069  0.88092287  0.24375268  1
  O  O369  1  0.74819734  0.88236545  0.74338573  1
  O  O370  1  0.25489812  0.11991055  0.25693819  1
  O  O371  1  0.25786182  0.11677723  0.74631808  1
  O  O372  1  0.25227219  0.61827939  0.25807458  1
  O  O373  1  0.25526287  0.62489388  0.75415164  1
  O  O374  1  0.75689816  0.11937637  0.25538454  1
  O  O375  1  0.75735617  0.11900616  0.75533978  1
  O  O376  1  0.75015509  0.61716363  0.25752898  1
  O  O377  1  0.75135235  0.61522092  0.75519984  1
  O  O378  1  0.36659396  0.11527033  0.36931124  1
  O  O379  1  0.37189159  0.12431051  0.86411204  1
  O  O380  1  0.37042730  0.61397425  0.37547102  1
  O  O381  1  0.36414886  0.62469927  0.86521255  1
  O  O382  1  0.86991513  0.11818390  0.37028338  1
  O  O383  1  0.87110743  0.12095964  0.86969104  1
  O  O384  1  0.86887843  0.61760992  0.37462071  1
  O  O385  1  0.86720720  0.61403018  0.87541591  1
  O  O386  1  0.12391746  0.38137568  0.13598741  1
  O  O387  1  0.13042555  0.37971079  0.63192527  1
  O  O388  1  0.13179365  0.88024162  0.13007232  1
  O  O389  1  0.13147948  0.88249006  0.63555016  1
  O  O390  1  0.62518753  0.38059065  0.13452538  1
  O  O391  1  0.63743309  0.36933900  0.61799863  1
  O  O392  1  0.63271636  0.88141853  0.12681239  1
  O  O393  1  0.63125658  0.88221498  0.62584802  1
  O  O394  1  0.11922807  0.26138203  0.24408309  1
  O  O395  1  0.13381870  0.26078364  0.75845737  1
  O  O396  1  0.12646210  0.75561194  0.25751390  1
  O  O397  1  0.11704197  0.75918852  0.74823848  1
  O  O398  1  0.61799478  0.25628718  0.24882672  1
  O  O399  1  0.61543031  0.23692265  0.75831671  1
  O  O400  1  0.61260235  0.75137889  0.25296737  1
  O  O401  1  0.61419663  0.75049864  0.75683950  1
  O  O402  1  0.38211806  0.24630130  0.24610109  1
  O  O403  1  0.37600429  0.23993771  0.74776539  1
  O  O404  1  0.38739622  0.74761177  0.24945998  1
  O  O405  1  0.38519104  0.74119472  0.75657721  1
  O  O406  1  0.88160637  0.24363323  0.24447827  1
  O  O407  1  0.86928148  0.24534073  0.73743813  1
  O  O408  1  0.87659718  0.74586202  0.23673146  1
  O  O409  1  0.88425208  0.75048546  0.74496897  1
  O  O410  1  0.37313699  0.49042503  0.49198446  1
  O  O411  1  0.37926919  0.49108583  1.00058524  1
  O  O412  1  0.38097212  1.00660295  0.48745485  1
  O  O413  1  0.38069273  0.99518758  0.99877966  1
  O  O414  1  0.88048061  0.49416451  0.49535480  1
  O  O415  1  0.87769591  0.49269796  0.99059693  1
  O  O416  1  0.87929044  0.99447194  0.49548300  1
  O  O417  1  0.88273201  1.00045820  0.99389767  1
  O  O418  1  0.12168427  0.00539741  0.00500396  1
  O  O419  1  0.11838970  0.00257438  0.50690812  1
  O  O420  1  0.11825775  0.49999233  0.00633942  1
  O  O421  1  0.12123567  0.50476909  0.50485259  1
  O  O422  1  0.62016647  0.00769155  0.00583916  1
  O  O423  1  0.61940686  0.00505903  0.50538132  1
  O  O424  1  0.61939706  0.50625233  0.00596180  1
  O  O425  1  0.62478702  0.51273230  0.49466297  1
  O  O426  1  0.37503238  0.36965583  0.11461686  1
  O  O427  1  0.36903040  0.37761380  0.61468081  1
  O  O428  1  0.36734202  0.87348450  0.11826834  1
  O  O429  1  0.36194856  0.88232439  0.62951463  1
  O  O430  1  0.87580008  0.37015184  0.11554589  1
  O  O431  1  0.87047431  0.36649301  0.61983755  1
  O  O432  1  0.87002687  0.86385998  0.12296986  1
  O  O433  1  0.86866341  0.87054064  0.61959657  1
  O  O434  1  0.14025248  0.11686014  0.37547869  1
  O  O435  1  0.12719279  0.13360475  0.87943213  1
  O  O436  1  0.13236488  0.62900999  0.38096415  1
  O  O437  1  0.13829076  0.62734993  0.87484013  1
  O  O438  1  0.63269749  0.12404408  0.38121772  1
  O  O439  1  0.63112824  0.12223348  0.88761867  1
  O  O440  1  0.63173968  0.62770916  0.38560016  1
  O  O441  1  0.62872188  0.63060286  0.88131792  1
