# generated using pymatgen
data_V93Zn93O256
_symmetry_space_group_name_H-M   'P 1'
_cell_length_a   17.04851470
_cell_length_b   17.04858482
_cell_length_c   17.04735306
_cell_angle_alpha   89.94837372
_cell_angle_beta   89.97018716
_cell_angle_gamma   90.03070973
_symmetry_Int_Tables_number   1
_chemical_formula_structural   V93Zn93O256
_chemical_formula_sum   'V93 Zn93 O256'
_cell_volume   4954.86174848
_cell_formula_units_Z   1
loop_
 _symmetry_equiv_pos_site_id
 _symmetry_equiv_pos_as_xyz
  1  'x, y, z'
loop_
 _atom_site_type_symbol
 _atom_site_label
 _atom_site_symmetry_multiplicity
 _atom_site_fract_x
 _atom_site_fract_y
 _atom_site_fract_z
 _atom_site_occupancy
  V  V0  1  0.87408558  0.37526094  -0.00185653  1
  V  V1  1  0.74945540  0.62366074  0.37429421  1
  V  V2  1  0.74903326  0.37467269  0.12459103  1
  V  V3  1  0.87471767  0.24961878  0.12365463  1
  V  V4  1  0.38533312  0.25525249  0.62145791  1
  V  V5  1  0.24996776  0.87634612  0.62578545  1
  V  V6  1  0.37453666  0.49721008  0.37875274  1
  V  V7  1  0.00020593  0.00074835  -0.00220325  1
  V  V8  1  0.24455701  0.12232794  0.38356325  1
  V  V9  1  0.75005054  0.49938187  0.25060042  1
  V  V10  1  0.37603755  -0.00083693  0.37545301  1
  V  V11  1  0.74908301  0.62582927  0.87446241  1
  V  V12  1  0.24802649  0.62711803  0.87761417  1
  V  V13  1  0.24971699  0.12932871  0.87549551  1
  V  V14  1  0.24772266  0.00163274  0.74767117  1
  V  V15  1  0.49477129  0.49580134  0.50261191  1
  V  V16  1  0.74996813  -0.00128154  0.24809848  1
  V  V17  1  0.49971019  0.24874653  0.25355111  1
  V  V18  1  0.49913151  0.75020515  0.74996853  1
  V  V19  1  0.50030453  0.87415042  0.37586093  1
  V  V20  1  0.62448142  0.62419011  0.50157010  1
  V  V21  1  0.37608221  0.12314507  0.25215773  1
  V  V22  1  0.62372231  0.50025224  0.62612576  1
  V  V23  1  0.74917102  0.24997243  -0.00189611  1
  V  V24  1  0.37402811  0.62337002  0.25133490  1
  V  V25  1  0.50111700  0.12399136  0.12668656  1
  V  V26  1  0.00005683  0.75252007  0.74746082  1
  V  V27  1  0.37455530  0.75013716  0.62660854  1
  V  V28  1  0.75020863  0.75131869  0.49902352  1
  V  V29  1  0.75001673  0.12715897  0.87317328  1
  V  V30  1  0.75068228  0.37527141  0.62642654  1
  V  V31  1  0.74912464  0.75162197  -0.00078500  1
  V  V32  1  0.12512763  0.49408796  0.62846077  1
  V  V33  1  0.87464133  0.50109500  0.87429588  1
  V  V34  1  0.12935239  -0.00226926  0.12388605  1
  V  V35  1  0.49540691  0.37308565  0.37985441  1
  V  V36  1  0.87382221  0.50007389  0.37423434  1
  V  V37  1  0.74583717  0.88063322  0.62288104  1
  V  V38  1  0.62441237  0.74860858  0.37526544  1
  V  V39  1  0.13049352  0.87321841  0.24354799  1
  V  V40  1  0.00736881  0.25368173  0.74918440  1
  V  V41  1  0.75018356  0.12524588  0.37476909  1
  V  V42  1  0.49931654  0.87534417  0.87593232  1
  V  V43  1  0.49861228  0.50007905  0.00121744  1
  V  V44  1  0.00090041  0.87471183  0.37306345  1
  V  V45  1  0.62491908  0.87886510  0.74687699  1
  V  V46  1  0.12294791  0.50063718  0.12529357  1
  V  V47  1  0.38291269  0.13062991  0.74843345  1
  V  V48  1  0.62383728  0.62562089  -0.00015435  1
  V  V49  1  0.12441506  0.37122715  0.25348081  1
  V  V50  1  0.49842243  0.62425818  0.12640036  1
  V  V51  1  -0.00160263  0.74715656  0.24596680  1
  V  V52  1  0.36855130  0.87521224  0.00362625  1
  V  V53  1  0.87449980  0.62672725  0.74756901  1
  V  V54  1  0.49889086  0.74887608  0.25112437  1
  V  V55  1  0.37381939  0.24966074  0.12650013  1
  V  V56  1  0.37382299  0.50049780  0.87637680  1
  V  V57  1  0.62199358  0.37072349  0.75145405  1
  V  V58  1  0.00141824  0.24899440  0.24922796  1
  V  V59  1  0.87272167  0.37524317  0.50069264  1
  V  V60  1  0.62712282  0.12015524  0.50696096  1
  V  V61  1  0.62400030  0.49934789  0.12565703  1
  V  V62  1  0.37424269  0.37406807  0.00258632  1
  V  V63  1  0.50028087  0.36961069  0.87269094  1
  V  V64  1  0.24990814  0.74883539  0.50048952  1
  V  V65  1  0.62361080  0.75039254  0.87413483  1
  V  V66  1  -0.00029804  0.50022008  -0.00070092  1
  V  V67  1  0.62368530  0.37330041  0.25144791  1
  V  V68  1  0.62397592  0.12397842  0.00013063  1
  V  V69  1  0.87531172  0.12727052  0.74771854  1
  V  V70  1  0.25121247  -0.00285752  0.24752709  1
  V  V71  1  0.87831975  0.87662104  0.49857590  1
  V  V72  1  0.87423270  0.87584279  -0.00231282  1
  V  V73  1  0.12495116  0.75245208  0.87338324  1
  V  V74  1  0.36643584  0.75303406  0.12560588  1
  V  V75  1  0.37612036  0.00108736  0.87651698  1
  V  V76  1  0.24566200  0.25624486  0.50180743  1
  V  V77  1  0.00150744  0.50177235  0.49973308  1
  V  V78  1  0.37565773  0.87468602  0.50054868  1
  V  V79  1  0.24483762  0.49180377  0.75148135  1
  V  V80  1  0.62558757  0.87393829  0.24962776  1
  V  V81  1  0.74921106  0.87422811  0.12358597  1
  V  V82  1  0.74673300  0.00179886  0.74582542  1
  V  V83  1  0.12588701  0.12643940  -0.00092025  1
  V  V84  1  0.50424370  0.00025840  0.50848099  1
  V  V85  1  0.24912291  0.49763201  0.25216127  1
  V  V86  1  0.87590044  0.00168740  0.87338672  1
  V  V87  1  0.00778684  0.12306449  0.61868087  1
  V  V88  1  0.37440121  0.62629728  0.75098185  1
  V  V89  1  0.87477224  0.12367003  0.24837967  1
  V  V90  1  0.00630022  0.37561918  0.86927226  1
  V  V91  1  0.24968378  0.62385874  0.37874055  1
  V  V92  1  0.00043794  0.12444383  0.12335980  1
  Zn  Zn93  1  0.13211513  0.00411852  0.61129894  1
  Zn  Zn94  1  0.00109750  0.87807610  0.87298273  1
  Zn  Zn95  1  0.87686660  0.75053685  0.62242340  1
  Zn  Zn96  1  0.12205487  0.87938402  0.74716420  1
  Zn  Zn97  1  0.24801330  0.25210578  0.00306032  1
  Zn  Zn98  1  0.12139245  0.62765267  0.00168125  1
  Zn  Zn99  1  0.25286225  0.37507769  0.62454725  1
  Zn  Zn100  1  0.12834422  0.25655389  0.87413142  1
  Zn  Zn101  1  0.50782636  0.12503518  0.63157971  1
  Zn  Zn102  1  0.24386610  0.75451385  0.00621342  1
  Zn  Zn103  1  -0.00114493  0.37157722  0.37580945  1
  Zn  Zn104  1  0.87454755  0.62448275  0.24719126  1
  Zn  Zn105  1  0.62316520  -0.00203733  0.12478274  1
  Zn  Zn106  1  0.62426585  0.24895949  0.37751176  1
  Zn  Zn107  1  0.62106298  0.24857775  0.87096159  1
  Zn  Zn108  1  0.12553621  0.74763959  0.37539093  1
  Zn  Zn109  1  0.00221436  0.62655418  0.62342731  1
  Zn  Zn110  1  0.74970068  0.24770621  0.49999531  1
  Zn  Zn111  1  0.25025655  0.37282274  0.12578508  1
  Zn  Zn112  1  0.87729754  0.24936452  0.62360937  1
  Zn  Zn113  1  -0.00480838  0.62462978  0.12197862  1
  Zn  Zn114  1  0.11983725  0.24229974  0.38318088  1
  Zn  Zn115  1  0.00759487  0.00756041  0.49209524  1
  Zn  Zn116  1  0.12453435  0.62667728  0.50044638  1
  Zn  Zn117  1  0.49968143  -0.00108514  0.00239909  1
  Zn  Zn118  1  0.87691177  0.00046025  0.37288261  1
  Zn  Zn119  1  0.49964683  0.62468523  0.62628083  1
  Zn  Zn120  1  0.74872046  0.50158490  0.75073358  1
  Zn  Zn121  1  0.87437084  0.74715564  0.12200219  1
  Zn  Zn122  1  0.18992118  0.18353649  0.18938581  1
  Zn  Zn123  1  0.18971141  0.18952090  0.68683626  1
  Zn  Zn124  1  0.18470377  0.68349662  0.19207847  1
  Zn  Zn125  1  0.18588188  0.68294332  0.68601948  1
  Zn  Zn126  1  0.68593153  0.18769810  0.18759592  1
  Zn  Zn127  1  0.68864274  0.19099603  0.68650963  1
  Zn  Zn128  1  0.68797217  0.68734828  0.18697322  1
  Zn  Zn129  1  0.68816711  0.69183474  0.68507389  1
  Zn  Zn130  1  0.31190295  0.31006726  0.31512105  1
  Zn  Zn131  1  0.31808438  0.31120980  0.81125829  1
  Zn  Zn132  1  0.31203733  0.81101189  0.31443989  1
  Zn  Zn133  1  0.31223111  0.81500425  0.81380507  1
  Zn  Zn134  1  0.81325193  0.31171934  0.31228757  1
  Zn  Zn135  1  0.81490372  0.31166293  0.81061879  1
  Zn  Zn136  1  0.81397322  0.81117070  0.31138521  1
  Zn  Zn137  1  0.81221084  0.81434115  0.81208940  1
  Zn  Zn138  1  0.18621807  0.43504351  0.43839023  1
  Zn  Zn139  1  0.18831507  0.43851650  0.94045529  1
  Zn  Zn140  1  0.18579307  0.93606273  0.43597714  1
  Zn  Zn141  1  0.18757277  0.93940531  0.93496707  1
  Zn  Zn142  1  0.68408529  0.43781218  0.43816642  1
  Zn  Zn143  1  0.68681334  0.43917893  0.93683712  1
  Zn  Zn144  1  0.68778940  0.93967049  0.43569627  1
  Zn  Zn145  1  0.68847537  0.93918586  0.93355959  1
  Zn  Zn146  1  0.31298860  0.06281261  0.06339000  1
  Zn  Zn147  1  0.31739552  0.06613861  0.56283624  1
  Zn  Zn148  1  0.30947556  0.56222385  0.06418231  1
  Zn  Zn149  1  0.31201119  0.56293304  0.56564977  1
  Zn  Zn150  1  0.81121368  0.06088233  0.06189745  1
  Zn  Zn151  1  0.81899238  0.06086712  0.56130534  1
  Zn  Zn152  1  0.81278933  0.56366676  0.06278560  1
  Zn  Zn153  1  0.81200222  0.56230006  0.56310226  1
  Zn  Zn154  1  0.43667047  0.43545174  0.19047156  1
  Zn  Zn155  1  0.43604892  0.43773528  0.69050167  1
  Zn  Zn156  1  0.43848549  0.93693027  0.18637376  1
  Zn  Zn157  1  0.43457791  0.93814986  0.69005779  1
  Zn  Zn158  1  0.93782243  0.43620316  0.18761287  1
  Zn  Zn159  1  0.93832353  0.43994120  0.68732604  1
  Zn  Zn160  1  0.93731110  0.93613557  0.18412718  1
  Zn  Zn161  1  0.93479376  0.93979575  0.68569424  1
  Zn  Zn162  1  0.06415653  0.05991278  0.30991624  1
  Zn  Zn163  1  0.06262167  0.06822466  0.80967241  1
  Zn  Zn164  1  0.06277860  0.56235546  0.31481607  1
  Zn  Zn165  1  0.06199270  0.56457600  0.81143978  1
  Zn  Zn166  1  0.56479162  0.06042761  0.31626293  1
  Zn  Zn167  1  0.56392921  0.06004628  0.81484665  1
  Zn  Zn168  1  0.56213132  0.56057809  0.31442639  1
  Zn  Zn169  1  0.56132698  0.55991010  0.81203880  1
  Zn  Zn170  1  0.43540435  0.18556118  0.44186022  1
  Zn  Zn171  1  0.43584116  0.18821773  0.94033115  1
  Zn  Zn172  1  0.43663791  0.68429988  0.44013456  1
  Zn  Zn173  1  0.43572410  0.68950299  0.93940384  1
  Zn  Zn174  1  0.93499526  0.19025509  0.43584738  1
  Zn  Zn175  1  0.93817916  0.18911568  0.93516814  1
  Zn  Zn176  1  0.93613848  0.68808682  0.43341563  1
  Zn  Zn177  1  0.93793001  0.68810096  0.93588383  1
  Zn  Zn178  1  0.06283515  0.31332503  0.06077868  1
  Zn  Zn179  1  0.06368647  0.31327237  0.56476773  1
  Zn  Zn180  1  0.06066608  0.81365977  0.06110548  1
  Zn  Zn181  1  0.06724097  0.81566133  0.56271609  1
  Zn  Zn182  1  0.56042778  0.31033824  0.06255332  1
  Zn  Zn183  1  0.56785174  0.31021747  0.56042525  1
  Zn  Zn184  1  0.55858850  0.81179921  0.06341680  1
  Zn  Zn185  1  0.56248701  0.81224001  0.56376235  1
  O  O186  1  0.11938809  0.11876938  0.11975454  1
  O  O187  1  0.11078137  0.12546251  0.62944544  1
  O  O188  1  0.12218987  0.61134198  0.12521765  1
  O  O189  1  0.12321356  0.61159396  0.61962480  1
  O  O190  1  0.62012612  0.12378357  0.11596444  1
  O  O191  1  0.62494943  0.13025278  0.61265010  1
  O  O192  1  0.61827584  0.61949343  0.12003631  1
  O  O193  1  0.62401389  0.61918320  0.61992883  1
  O  O194  1  0.38800457  0.38066429  0.36995678  1
  O  O195  1  0.38259913  0.38062606  0.88014618  1
  O  O196  1  0.38127606  0.87897298  0.38077586  1
  O  O197  1  0.38034644  0.88002864  0.88270450  1
  O  O198  1  0.87343918  0.38092874  0.38512117  1
  O  O199  1  0.88187434  0.38159489  0.87947919  1
  O  O200  1  0.88287707  0.87553596  0.38133684  1
  O  O201  1  0.87521639  0.88433458  0.87984911  1
  O  O202  1  0.25692269  0.00501697  0.36993529  1
  O  O203  1  0.25606627  0.01020784  0.86724920  1
  O  O204  1  0.25558354  0.50285901  0.37241091  1
  O  O205  1  0.25251472  0.50837789  0.87003871  1
  O  O206  1  0.75304231  0.00969856  0.36758412  1
  O  O207  1  0.75641598  0.00821764  0.86724639  1
  O  O208  1  0.75304524  0.50412010  0.37035657  1
  O  O209  1  0.75608388  0.50817027  0.87380624  1
  O  O210  1  0.24004820  0.49818774  0.13298611  1
  O  O211  1  0.24502390  0.49768265  0.63398020  1
  O  O212  1  0.24227171  1.00769796  0.13485876  1
  O  O213  1  0.25391895  0.99755366  0.63336892  1
  O  O214  1  0.74313804  0.49363526  0.12946015  1
  O  O215  1  0.74326735  0.49019726  0.62582734  1
  O  O216  1  0.74645791  0.99252610  0.13016214  1
  O  O217  1  0.75747444  0.98785647  0.62926913  1
  O  O218  1  0.00812563  0.36788308  0.25088387  1
  O  O219  1  -0.00765632  0.36734049  0.75895756  1
  O  O220  1  0.00647356  0.86784794  0.25461019  1
  O  O221  1  -0.00042000  0.86555431  0.75090021  1
  O  O222  1  0.50476332  0.36966749  0.25964776  1
  O  O223  1  0.50916996  0.38406393  0.76247302  1
  O  O224  1  0.50482456  0.86817306  0.25634740  1
  O  O225  1  0.50395472  0.87063565  0.75560081  1
  O  O226  1  0.49610379  0.12858028  0.24832192  1
  O  O227  1  0.48801604  0.11808759  0.74978533  1
  O  O228  1  0.49399537  0.62884533  0.24692774  1
  O  O229  1  0.49275197  0.63140287  0.75052743  1
  O  O230  1  0.99497265  0.12867549  0.24289311  1
  O  O231  1  0.99443581  0.13436197  0.74149045  1
  O  O232  1  1.00017410  0.63633780  0.25073764  1
  O  O233  1  0.98983240  0.63443827  0.75018558  1
  O  O234  1  0.37354873  0.25620160  0.00900237  1
  O  O235  1  0.36538807  0.24384568  0.51555262  1
  O  O236  1  0.37213545  0.75685290  0.00880445  1
  O  O237  1  0.37117269  0.75528755  0.50638858  1
  O  O238  1  0.86916602  0.25488671  0.00456647  1
  O  O239  1  0.87224442  0.26429053  0.50148071  1
  O  O240  1  0.86702246  0.75737534  -0.00338941  1
  O  O241  1  0.86870538  0.75980001  0.49800451  1
  O  O242  1  0.14039085  0.25170395  0.50108015  1
  O  O243  1  0.12762946  0.24232511  0.99682502  1
  O  O244  1  0.13446939  0.74842518  0.49723387  1
  O  O245  1  0.12633258  0.74960774  0.98926277  1
  O  O246  1  0.62993864  0.23782629  0.49559126  1
  O  O247  1  0.63066384  0.23983179  0.99919044  1
  O  O248  1  0.62965899  0.74474720  0.49428254  1
  O  O249  1  0.62773013  0.74462261  0.99388166  1
  O  O250  1  0.49406551  0.24408199  0.13357068  1
  O  O251  1  0.48806388  0.24814609  0.61816352  1
  O  O252  1  0.49013967  0.74273398  0.13186414  1
  O  O253  1  0.49293308  0.74935328  0.63224897  1
  O  O254  1  0.99374069  0.24418567  0.12846113  1
  O  O255  1  0.99938918  0.24266775  0.63179184  1
  O  O256  1  0.99883751  0.74804364  0.13391392  1
  O  O257  1  0.99960849  0.74843398  0.63530992  1
  O  O258  1  0.00311385  0.25108175  0.36664918  1
  O  O259  1  0.00026971  0.25915517  0.86698064  1
  O  O260  1  0.00097462  0.75887740  0.36474378  1
  O  O261  1  0.00917473  0.75134062  0.86549864  1
  O  O262  1  0.49795090  0.25791181  0.37292139  1
  O  O263  1  0.49999179  0.26604260  0.88111046  1
  O  O264  1  0.50396296  0.75373231  0.37092655  1
  O  O265  1  0.50413815  0.75507456  0.86964578  1
  O  O266  1  0.25585145  0.13241032  0.49016458  1
  O  O267  1  0.24658081  0.12504359  0.98907191  1
  O  O268  1  0.25214593  0.63103056  0.49464513  1
  O  O269  1  0.24741045  0.62622913  0.98720739  1
  O  O270  1  0.74585479  0.12153318  0.49221592  1
  O  O271  1  0.74309729  0.12984680  0.99433050  1
  O  O272  1  0.74468182  0.62990240  0.49446174  1
  O  O273  1  0.74267761  0.63081323  0.99421727  1
  O  O274  1  0.25865803  0.37303679  0.00262282  1
  O  O275  1  0.25313550  0.35989515  0.49840650  1
  O  O276  1  0.26424265  0.87356526  -0.00660390  1
  O  O277  1  0.25791886  0.86938559  0.50474107  1
  O  O278  1  0.75383963  0.37049263  0.00486059  1
  O  O279  1  0.75648474  0.37734166  0.50828378  1
  O  O280  1  0.75331527  0.87076636  0.00290454  1
  O  O281  1  0.75736468  0.87278310  0.50354809  1
  O  O282  1  0.12757078  0.49077300  0.24464761  1
  O  O283  1  0.13433622  0.50796040  0.74152509  1
  O  O284  1  0.13028103  0.99102823  0.24359262  1
  O  O285  1  0.13981830  1.00287243  0.74931279  1
  O  O286  1  0.62920952  0.49349754  0.24487675  1
  O  O287  1  0.62716288  0.49081528  0.74471416  1
  O  O288  1  0.63170816  0.99122615  0.25038702  1
  O  O289  1  0.63424691  0.99156960  0.75598228  1
  O  O290  1  0.37146448  0.00270954  0.25578623  1
  O  O291  1  0.36607211  0.00918639  0.75554840  1
  O  O292  1  0.36957890  0.50450550  0.25681964  1
  O  O293  1  0.36634231  0.50631468  0.75704658  1
  O  O294  1  0.86839731  0.00634058  0.24820399  1
  O  O295  1  0.86778236  0.00746534  0.75437343  1
  O  O296  1  0.86755826  0.49780202  0.25649586  1
  O  O297  1  0.87431166  0.51187090  0.75490875  1
  O  O298  1  0.12292562  0.37086179  0.36310794  1
  O  O299  1  0.11007979  0.37649493  0.88060292  1
  O  O300  1  0.11534602  0.87211669  0.36249969  1
  O  O301  1  0.12552399  0.86497479  0.86917960  1
  O  O302  1  0.61411336  0.37363680  0.36966822  1
  O  O303  1  0.61753033  0.37577131  0.86890447  1
  O  O304  1  0.62019544  0.86756194  0.37030088  1
  O  O305  1  0.61969247  0.86908773  0.86902411  1
  O  O306  1  0.38172539  0.12917259  0.13229342  1
  O  O307  1  0.37936790  0.13483465  0.63307938  1
  O  O308  1  0.37961329  0.63066515  0.13103494  1
  O  O309  1  0.37601708  0.63266138  0.63351160  1
  O  O310  1  0.87982283  0.13028212  0.12814421  1
  O  O311  1  0.88416174  0.12778514  0.63093737  1
  O  O312  1  0.87714350  0.62828669  0.12932533  1
  O  O313  1  0.87565058  0.62784029  0.63559585  1
  O  O314  1  0.25899289  0.25045468  0.12549056  1
  O  O315  1  0.25550842  0.25058383  0.61414334  1
  O  O316  1  0.26262397  0.74074031  0.12566423  1
  O  O317  1  0.25563886  0.75533196  0.62188809  1
  O  O318  1  0.75514615  0.25544678  0.11965686  1
  O  O319  1  0.75401857  0.26492085  0.62282782  1
  O  O320  1  0.74908837  0.75626507  0.11668601  1
  O  O321  1  0.75351168  0.76172221  0.61703865  1
  O  O322  1  0.25310717  0.24128715  0.38849586  1
  O  O323  1  0.25012680  0.23943088  0.87387260  1
  O  O324  1  0.25131711  0.74164581  0.38234386  1
  O  O325  1  0.24159576  0.74195564  0.87234274  1
  O  O326  1  0.74992481  0.23611023  0.37499624  1
  O  O327  1  0.74928785  0.24458995  0.88082391  1
  O  O328  1  0.74358735  0.74443401  0.37909212  1
  O  O329  1  0.74255643  0.74572759  0.87938437  1
  O  O330  1  0.00476010  0.12026069  0.00411667  1
  O  O331  1  -0.00721177  0.12821809  0.51510665  1
  O  O332  1  0.00191644  0.61597684  -0.00043665  1
  O  O333  1  -0.00254513  0.61289717  0.50018448  1
  O  O334  1  0.50890765  0.12536015  0.00581758  1
  O  O335  1  0.50960723  0.11539005  0.49928713  1
  O  O336  1  0.50409540  0.62014470  0.00568345  1
  O  O337  1  0.50651574  0.61415733  0.50191439  1
  O  O338  1  0.50794909  0.38502665  0.49143914  1
  O  O339  1  0.49528230  0.38180196  0.99407054  1
  O  O340  1  0.49636843  0.88070800  0.49532182  1
  O  O341  1  0.48915445  0.87493619  0.99395477  1
  O  O342  1  0.98992055  0.38365140  0.50082143  1
  O  O343  1  0.99232214  0.37974697  0.99120889  1
  O  O344  1  0.99209398  0.86873505  0.48904359  1
  O  O345  1  0.99326882  0.88347211  0.99616683  1
  O  O346  1  0.49544958  0.49243408  0.38315936  1
  O  O347  1  0.49347762  0.49340584  0.88257426  1
  O  O348  1  0.49515238  0.99267780  0.38355926  1
  O  O349  1  0.49264148  0.99296112  0.87810761  1
  O  O350  1  0.99384587  0.49628090  0.38424062  1
  O  O351  1  0.99478063  0.49360677  0.87761906  1
  O  O352  1  0.99770583  0.98706878  0.37093934  1
  O  O353  1  0.99463195  1.00221009  0.87882714  1
  O  O354  1  0.00675528  0.00592795  0.11793431  1
  O  O355  1  0.00118733  0.01628244  0.62792061  1
  O  O356  1  0.00810058  0.49875777  0.11921323  1
  O  O357  1  0.00705797  0.50113532  0.61720108  1
  O  O358  1  0.50351356  0.00801956  0.12291356  1
  O  O359  1  0.49382230  0.00056488  0.61150616  1
  O  O360  1  0.50421669  0.50478869  0.12158386  1
  O  O361  1  0.50398832  0.49911059  0.61756259  1
  O  O362  1  0.24114338  0.37925738  0.25085449  1
  O  O363  1  0.25402885  0.38965121  0.75388951  1
  O  O364  1  0.23814500  0.88020645  0.25835879  1
  O  O365  1  0.25322552  0.88746064  0.74500657  1
  O  O366  1  0.74405651  0.37910678  0.24457370  1
  O  O367  1  0.74374451  0.37867786  0.74249653  1
  O  O368  1  0.74498429  0.87797755  0.24475166  1
  O  O369  1  0.74639406  0.87997404  0.74102990  1
  O  O370  1  0.25850297  0.11820849  0.26012657  1
  O  O371  1  0.25825229  0.11957012  0.75683148  1
  O  O372  1  0.25505850  0.61714981  0.25839564  1
  O  O373  1  0.25489528  0.61788416  0.76087180  1
  O  O374  1  0.75420519  0.12018404  0.25572942  1
  O  O375  1  0.75424957  0.12251062  0.75296471  1
  O  O376  1  0.74806831  0.61707294  0.25682280  1
  O  O377  1  0.75850895  0.62767758  0.75511668  1
  O  O378  1  0.36869317  0.11779721  0.37090742  1
  O  O379  1  0.36863805  0.12291228  0.86895405  1
  O  O380  1  0.37033294  0.61735402  0.36994388  1
  O  O381  1  0.36655007  0.62115596  0.87212817  1
  O  O382  1  0.86696730  0.12298849  0.36807930  1
  O  O383  1  0.86956838  0.12130079  0.86832354  1
  O  O384  1  0.86643029  0.61758982  0.37198939  1
  O  O385  1  0.86900863  0.62139871  0.86637157  1
  O  O386  1  0.12522575  0.38376572  0.13459130  1
  O  O387  1  0.12978903  0.38965104  0.62148145  1
  O  O388  1  0.11965814  0.88110958  0.13596826  1
  O  O389  1  0.13537063  0.88021370  0.63008729  1
  O  O390  1  0.62876095  0.37957265  0.13022658  1
  O  O391  1  0.63124365  0.37951261  0.63174206  1
  O  O392  1  0.62963431  0.87425429  0.13141436  1
  O  O393  1  0.63744912  0.87027767  0.62980081  1
  O  O394  1  0.12021709  0.25809830  0.24770782  1
  O  O395  1  0.11180587  0.24634840  0.75287378  1
  O  O396  1  0.11752669  0.75749564  0.24994945  1
  O  O397  1  0.11625183  0.74881243  0.75667683  1
  O  O398  1  0.61746261  0.25536177  0.25303547  1
  O  O399  1  0.62788318  0.26604584  0.75100091  1
  O  O400  1  0.61835686  0.75334062  0.25600492  1
  O  O401  1  0.61921952  0.75703307  0.75527136  1
  O  O402  1  0.38088961  0.24308608  0.24704056  1
  O  O403  1  0.36780727  0.23956758  0.73585546  1
  O  O404  1  0.37903893  0.74456674  0.24414528  1
  O  O405  1  0.37954544  0.74659148  0.74667104  1
  O  O406  1  0.88049234  0.24459210  0.24264005  1
  O  O407  1  0.88595663  0.24481992  0.74719219  1
  O  O408  1  0.88613684  0.74955622  0.24681299  1
  O  O409  1  0.88330738  0.74298447  0.75158925  1
  O  O410  1  0.38738799  0.50491462  0.49656298  1
  O  O411  1  0.37920609  0.49536556  0.99625547  1
  O  O412  1  0.38351934  0.99430863  0.49451696  1
  O  O413  1  0.37613777  0.99230779  0.99570946  1
  O  O414  1  0.88122899  0.49311913  0.49594276  1
  O  O415  1  0.87918207  0.49446826  0.99383967  1
  O  O416  1  0.88351804  0.98718149  0.49607590  1
  O  O417  1  0.88026468  0.99684903  0.99307779  1
  O  O418  1  0.12068464  0.00548633  0.00367545  1
  O  O419  1  0.11868400  -0.00418645  0.50001359  1
  O  O420  1  0.11903788  0.49975029  0.01069858  1
  O  O421  1  0.11508591  0.49877528  0.50563804  1
  O  O422  1  0.62434311  0.01319486  -0.00063812  1
  O  O423  1  0.61574618  0.00776841  0.49453005  1
  O  O424  1  0.61900934  0.50591740  0.00627548  1
  O  O425  1  0.61553401  0.50484921  0.50595467  1
  O  O426  1  0.37484452  0.36865841  0.12091958  1
  O  O427  1  0.37290398  0.35868933  0.63415506  1
  O  O428  1  0.38091962  0.86372693  0.11701912  1
  O  O429  1  0.36953222  0.86939281  0.62002143  1
  O  O430  1  0.86880007  0.36961788  0.11839146  1
  O  O431  1  0.86652959  0.37900997  0.61691339  1
  O  O432  1  0.86714969  0.87304739  0.11533538  1
  O  O433  1  0.86793634  0.87297779  0.61433677  1
  O  O434  1  0.13990612  0.12608559  0.36595489  1
  O  O435  1  0.13583264  0.12658022  0.87984245  1
  O  O436  1  0.13451903  0.62604076  0.37867841  1
  O  O437  1  0.13257411  0.63429574  0.87484421  1
  O  O438  1  0.63571806  0.12511595  0.38348364  1
  O  O439  1  0.63001957  0.12867804  0.88252644  1
  O  O440  1  0.62938261  0.62911734  0.38126236  1
  O  O441  1  0.62825254  0.62998981  0.87999178  1
