# generated using pymatgen
data_V93Zn93O256
_symmetry_space_group_name_H-M   'P 1'
_cell_length_a   17.04908512
_cell_length_b   17.04907752
_cell_length_c   17.05087241
_cell_angle_alpha   89.98712217
_cell_angle_beta   89.97857023
_cell_angle_gamma   90.00767136
_symmetry_Int_Tables_number   1
_chemical_formula_structural   V93Zn93O256
_chemical_formula_sum   'V93 Zn93 O256'
_cell_volume   4956.19658199
_cell_formula_units_Z   1
loop_
 _symmetry_equiv_pos_site_id
 _symmetry_equiv_pos_as_xyz
  1  'x, y, z'
loop_
 _atom_site_type_symbol
 _atom_site_label
 _atom_site_symmetry_multiplicity
 _atom_site_fract_x
 _atom_site_fract_y
 _atom_site_fract_z
 _atom_site_occupancy
  V  V0  1  0.75744246  -0.00140818  0.75485722  1
  V  V1  1  0.00055716  0.25504989  0.25807724  1
  V  V2  1  0.87451327  0.74980696  0.12413678  1
  V  V3  1  0.00146564  0.24994618  0.75041361  1
  V  V4  1  0.50059939  0.87414140  0.87548311  1
  V  V5  1  0.50036899  0.62287955  0.62192637  1
  V  V6  1  0.50041712  0.87367139  0.37230502  1
  V  V7  1  0.37315102  0.63259672  0.24372390  1
  V  V8  1  0.12199983  0.37692060  0.25598408  1
  V  V9  1  0.12215002  0.62505412  0.00035472  1
  V  V10  1  0.24861986  0.75202680  0.49844263  1
  V  V11  1  0.12655672  0.00050085  0.12470177  1
  V  V12  1  0.87545115  0.62343081  0.74891907  1
  V  V13  1  0.87074586  0.62442084  0.25047526  1
  V  V14  1  0.36893882  0.61960387  0.74838075  1
  V  V15  1  0.49801664  0.37375157  0.87714340  1
  V  V16  1  0.75115323  0.24860407  0.50151193  1
  V  V17  1  0.25029099  0.87567626  0.62521681  1
  V  V18  1  0.75187511  0.37351246  0.62609368  1
  V  V19  1  0.12469516  0.87441418  0.74908549  1
  V  V20  1  0.62465539  0.25360540  0.37492215  1
  V  V21  1  0.87454612  0.87256492  0.50009975  1
  V  V22  1  0.37685918  0.25573988  0.62259455  1
  V  V23  1  0.24750151  0.12936181  0.37778765  1
  V  V24  1  0.12407267  0.74971926  0.87370327  1
  V  V25  1  0.25597960  0.75261290  0.00488228  1
  V  V26  1  0.37450842  -0.00138510  0.87716248  1
  V  V27  1  0.74990853  0.49782287  0.75024314  1
  V  V28  1  0.37481228  0.87606346  0.50076194  1
  V  V29  1  0.62639280  0.12355134  0.50196134  1
  V  V30  1  0.62469167  0.49912888  0.62370083  1
  V  V31  1  0.25086674  0.37827640  0.12398083  1
  V  V32  1  0.62584223  0.24839073  0.87586087  1
  V  V33  1  -0.00015813  0.50108044  -0.00052756  1
  V  V34  1  -0.00049062  0.00030260  -0.00357662  1
  V  V35  1  0.75023142  0.74953057  -0.00109542  1
  V  V36  1  0.62513336  0.87320904  0.75036359  1
  V  V37  1  0.50035189  0.00073822  0.00071664  1
  V  V38  1  0.50172405  0.00013005  0.50134470  1
  V  V39  1  0.62392448  0.62354375  -0.00129818  1
  V  V40  1  0.87555034  0.37509177  0.00033693  1
  V  V41  1  0.37548484  0.12767404  0.25003637  1
  V  V42  1  0.12585838  0.12647374  -0.00010337  1
  V  V43  1  0.49371127  0.49418079  0.00018933  1
  V  V44  1  -0.00069447  0.74943331  0.74845553  1
  V  V45  1  0.87408275  0.49854194  0.87468757  1
  V  V46  1  0.12423034  0.75076687  0.37362107  1
  V  V47  1  0.62670861  0.37290827  0.75043211  1
  V  V48  1  0.00058193  0.12690871  0.12532103  1
  V  V49  1  0.24911702  0.62705939  0.37241922  1
  V  V50  1  0.50035623  0.24505336  0.74967510  1
  V  V51  1  0.25368151  0.25382246  0.00003903  1
  V  V52  1  -0.00070944  0.87644198  0.37422097  1
  V  V53  1  0.87961472  0.49632510  0.37479192  1
  V  V54  1  0.75105806  0.24900233  0.00083758  1
  V  V55  1  0.74924825  0.87600946  0.12423296  1
  V  V56  1  0.25538720  0.25910351  0.50147586  1
  V  V57  1  0.37666691  0.49729857  0.37960447  1
  V  V58  1  0.49363347  0.63197636  0.12236798  1
  V  V59  1  0.87515199  0.88048154  -0.00619665  1
  V  V60  1  0.12703348  0.25108555  0.87584199  1
  V  V61  1  0.13153417  0.50041061  0.62815148  1
  V  V62  1  0.74871830  0.62299824  0.87398477  1
  V  V63  1  0.13407323  0.37938057  0.74935867  1
  V  V64  1  0.74933687  -0.00042842  0.24929393  1
  V  V65  1  0.62555483  -0.00101267  0.62565697  1
  V  V66  1  0.87509079  -0.00071449  0.37469813  1
  V  V67  1  0.62589378  0.12418730  0.00210639  1
  V  V68  1  0.88335037  0.37413034  0.49622776  1
  V  V69  1  0.87628405  0.25106125  0.12663270  1
  V  V70  1  0.37166949  0.49597635  0.87341619  1
  V  V71  1  0.00100022  0.37494718  0.87475077  1
  V  V72  1  0.75122872  0.12339831  0.37637633  1
  V  V73  1  0.62413708  0.74772083  0.37438736  1
  V  V74  1  -0.00210010  0.75100592  0.24830129  1
  V  V75  1  0.00017247  0.62244815  0.62156865  1
  V  V76  1  0.12437192  0.87744197  0.24887185  1
  V  V77  1  0.37456708  0.74906863  0.62555192  1
  V  V78  1  0.24853123  0.00258109  0.24999831  1
  V  V79  1  0.75081871  0.87331426  0.62475278  1
  V  V80  1  -0.00225730  0.87904927  0.87345919  1
  V  V81  1  0.00161157  0.12378885  0.62479795  1
  V  V82  1  0.75804017  0.11994049  0.87608632  1
  V  V83  1  0.50004179  0.12652000  0.12552664  1
  V  V84  1  0.37644892  0.25670735  0.12308219  1
  V  V85  1  0.37498120  0.00219097  0.37608932  1
  V  V86  1  0.25142089  -0.00013084  0.75145677  1
  V  V87  1  0.74801055  0.37557022  0.12562737  1
  V  V88  1  0.62349354  0.49903997  0.12760288  1
  V  V89  1  0.62377502  0.74872449  0.87365266  1
  V  V90  1  0.24936654  0.62180925  0.87195154  1
  V  V91  1  0.87636963  0.24857704  0.62673491  1
  V  V92  1  0.12601121  0.00073812  0.62472051  1
  Zn  Zn93  1  0.49961278  0.12380703  0.62558242  1
  Zn  Zn94  1  0.12647739  0.12685240  0.50106680  1
  Zn  Zn95  1  0.25655209  0.87214970  0.12978752  1
  Zn  Zn96  1  0.87333785  0.74707485  0.62296347  1
  Zn  Zn97  1  0.49553400  0.75576262  0.24109819  1
  Zn  Zn98  1  0.25137173  0.12573242  0.87463994  1
  Zn  Zn99  1  0.74753657  0.62307438  0.37868069  1
  Zn  Zn100  1  0.49870999  0.74884061  0.75032920  1
  Zn  Zn101  1  0.49758679  0.48899266  0.50348742  1
  Zn  Zn102  1  0.74717396  0.74689350  0.50105426  1
  Zn  Zn103  1  0.38215141  0.86825366  0.00965012  1
  Zn  Zn104  1  0.37338359  0.12391255  0.74966350  1
  Zn  Zn105  1  0.62671769  0.62168637  0.49834978  1
  Zn  Zn106  1  0.12111668  0.25758747  0.38222113  1
  Zn  Zn107  1  0.12302482  0.50020641  0.12592951  1
  Zn  Zn108  1  0.49181051  0.36922148  0.37969401  1
  Zn  Zn109  1  0.87675007  0.12726621  0.25141243  1
  Zn  Zn110  1  0.00262991  0.00093626  0.49868689  1
  Zn  Zn111  1  0.62348375  0.87391215  0.24756915  1
  Zn  Zn112  1  0.12339636  0.62276875  0.49798268  1
  Zn  Zn113  1  0.50059585  0.25355219  0.25121537  1
  Zn  Zn114  1  0.25722952  0.38269819  0.62369363  1
  Zn  Zn115  1  -0.00158046  0.62398191  0.12464815  1
  Zn  Zn116  1  0.24801878  0.50188220  0.24767766  1
  Zn  Zn117  1  0.00460016  0.49391497  0.49514341  1
  Zn  Zn118  1  0.62234201  0.37486969  0.25268136  1
  Zn  Zn119  1  0.62303734  -0.00026464  0.12683570  1
  Zn  Zn120  1  0.74835118  0.49813987  0.25338925  1
  Zn  Zn121  1  0.87964469  0.12013817  0.75470460  1
  Zn  Zn122  1  0.18603329  0.19051873  0.18862561  1
  Zn  Zn123  1  0.19016312  0.18820990  0.68800070  1
  Zn  Zn124  1  0.18441234  0.68852588  0.18615045  1
  Zn  Zn125  1  0.18707396  0.68716981  0.68646507  1
  Zn  Zn126  1  0.68814030  0.18653448  0.18973334  1
  Zn  Zn127  1  0.68899577  0.18398782  0.68883913  1
  Zn  Zn128  1  0.68389254  0.68896688  0.18824537  1
  Zn  Zn129  1  0.68749129  0.68743172  0.68618556  1
  Zn  Zn130  1  0.30828052  0.31319925  0.30847165  1
  Zn  Zn131  1  0.31513470  0.31202800  0.81105978  1
  Zn  Zn132  1  0.31276886  0.81448796  0.31089558  1
  Zn  Zn133  1  0.31319039  0.81039898  0.81485777  1
  Zn  Zn134  1  0.81011093  0.31449349  0.31195931  1
  Zn  Zn135  1  0.81438234  0.30896472  0.81320892  1
  Zn  Zn136  1  0.80994097  0.81231136  0.31276098  1
  Zn  Zn137  1  0.81253215  0.80991050  0.81131627  1
  Zn  Zn138  1  0.18911903  0.44150841  0.43933565  1
  Zn  Zn139  1  0.18798826  0.43746296  0.93840158  1
  Zn  Zn140  1  0.18618382  0.93987870  0.43783354  1
  Zn  Zn141  1  0.18546254  0.93663436  0.93648589  1
  Zn  Zn142  1  0.69250915  0.43868252  0.44088962  1
  Zn  Zn143  1  0.68489600  0.43606140  0.93935027  1
  Zn  Zn144  1  0.68758446  0.93512385  0.43725803  1
  Zn  Zn145  1  0.68591940  0.93771764  0.93762181  1
  Zn  Zn146  1  0.31365649  0.06465116  0.06289776  1
  Zn  Zn147  1  0.31502870  0.06793589  0.56449226  1
  Zn  Zn148  1  0.31101317  0.56335779  0.05864900  1
  Zn  Zn149  1  0.31098811  0.56542292  0.55907138  1
  Zn  Zn150  1  0.81436630  0.06284870  0.06489154  1
  Zn  Zn151  1  0.81428160  0.05964133  0.56435251  1
  Zn  Zn152  1  0.81152686  0.56242541  0.06302227  1
  Zn  Zn153  1  0.81173783  0.56103589  0.55940710  1
  Zn  Zn154  1  0.43734175  0.43991517  0.19772435  1
  Zn  Zn155  1  0.43995728  0.43615768  0.69121262  1
  Zn  Zn156  1  0.43310076  0.94011565  0.18538386  1
  Zn  Zn157  1  0.43865183  0.93648757  0.68955675  1
  Zn  Zn158  1  0.93859617  0.43863477  0.18677040  1
  Zn  Zn159  1  0.94123569  0.43641402  0.68619790  1
  Zn  Zn160  1  0.93632419  0.93836618  0.18417207  1
  Zn  Zn161  1  0.93805246  0.93643232  0.68509898  1
  Zn  Zn162  1  0.06142094  0.06567440  0.31163756  1
  Zn  Zn163  1  0.06496872  0.06245352  0.81332257  1
  Zn  Zn164  1  0.06023541  0.56221015  0.30938027  1
  Zn  Zn165  1  0.06233876  0.56139357  0.81109063  1
  Zn  Zn166  1  0.56326337  0.06542257  0.31276577  1
  Zn  Zn167  1  0.56742785  0.06018229  0.81520408  1
  Zn  Zn168  1  0.55727829  0.56626242  0.30930905  1
  Zn  Zn169  1  0.55910318  0.56161891  0.80940732  1
  Zn  Zn170  1  0.43855356  0.18777113  0.44059670  1
  Zn  Zn171  1  0.43668469  0.18506431  0.93848648  1
  Zn  Zn172  1  0.43664819  0.68654653  0.43684690  1
  Zn  Zn173  1  0.43770540  0.68327435  0.93496896  1
  Zn  Zn174  1  0.93633255  0.18612883  0.43919753  1
  Zn  Zn175  1  0.93954656  0.18863328  0.93911748  1
  Zn  Zn176  1  0.93647650  0.68632634  0.43501987  1
  Zn  Zn177  1  0.93638644  0.68984734  0.93523804  1
  Zn  Zn178  1  0.06421743  0.31372305  0.06595092  1
  Zn  Zn179  1  0.06779356  0.31045459  0.56466522  1
  Zn  Zn180  1  0.06343911  0.81350796  0.06321633  1
  Zn  Zn181  1  0.06180012  0.81143365  0.56095870  1
  Zn  Zn182  1  0.56265737  0.31249856  0.06199834  1
  Zn  Zn183  1  0.56069751  0.31520567  0.55912395  1
  Zn  Zn184  1  0.56572568  0.81473709  0.06005715  1
  Zn  Zn185  1  0.56251605  0.81046653  0.56160665  1
  O  O186  1  0.11988551  0.12147322  0.11954792  1
  O  O187  1  0.11600762  0.12005739  0.62703321  1
  O  O188  1  0.12178728  0.62373260  0.11179676  1
  O  O189  1  0.11703878  0.61742837  0.62584898  1
  O  O190  1  0.61899691  0.12524193  0.11882916  1
  O  O191  1  0.62486853  0.11716139  0.61931944  1
  O  O192  1  0.61630826  0.61673964  0.11893612  1
  O  O193  1  0.61436452  0.61849819  0.62799009  1
  O  O194  1  0.36763479  0.39586043  0.36396188  1
  O  O195  1  0.38279059  0.38718711  0.86616277  1
  O  O196  1  0.38139595  0.88106445  0.38063335  1
  O  O197  1  0.38107166  0.88358333  0.87854317  1
  O  O198  1  0.86884778  0.38270163  0.38556118  1
  O  O199  1  0.88037790  0.37890835  0.88056219  1
  O  O200  1  0.87955756  0.87917005  0.38125880  1
  O  O201  1  0.88027436  0.86759832  0.88678636  1
  O  O202  1  0.25519751  0.00977154  0.37143034  1
  O  O203  1  0.25882694  -0.00140691  0.87113781  1
  O  O204  1  0.25667446  0.51366652  0.37354532  1
  O  O205  1  0.26314303  0.50617289  0.88494551  1
  O  O206  1  0.75472099  0.00294880  0.36779539  1
  O  O207  1  0.74406379  0.00889392  0.86657488  1
  O  O208  1  0.76211510  0.50271569  0.37223875  1
  O  O209  1  0.75395904  0.50317252  0.87042755  1
  O  O210  1  0.24895247  0.48937140  0.12210917  1
  O  O211  1  0.23691557  0.50075384  0.61871515  1
  O  O212  1  0.24263235  1.00402161  0.13280743  1
  O  O213  1  0.24714008  0.99456933  0.63050224  1
  O  O214  1  0.73759651  0.49519917  0.12209454  1
  O  O215  1  0.74574672  0.49340392  0.63236125  1
  O  O216  1  0.74970724  0.99565189  0.13417678  1
  O  O217  1  0.74481692  0.99382927  0.63427807  1
  O  O218  1  0.00978186  0.36584716  0.24267737  1
  O  O219  1  0.00877163  0.36921137  0.75591970  1
  O  O220  1  0.00391948  0.87093376  0.25431702  1
  O  O221  1  0.00482165  0.86989384  0.75313773  1
  O  O222  1  0.50472255  0.37205238  0.26140123  1
  O  O223  1  0.50787853  0.36373880  0.75674897  1
  O  O224  1  0.49818629  0.87658773  0.26171826  1
  O  O225  1  0.50737710  0.87205460  0.75723839  1
  O  O226  1  0.49293510  0.12728187  0.24387739  1
  O  O227  1  0.50463528  0.13668140  0.75129596  1
  O  O228  1  0.48980308  0.62746135  0.23719543  1
  O  O229  1  0.48935460  0.62605571  0.73967529  1
  O  O230  1  0.99893732  0.13575489  0.24290026  1
  O  O231  1  0.99982627  0.12986330  0.74265964  1
  O  O232  1  0.98812029  0.63243760  0.24770363  1
  O  O233  1  0.99524159  0.62896591  0.74216961  1
  O  O234  1  0.36580018  0.24523414  0.01101515  1
  O  O235  1  0.36837417  0.24526101  0.51153200  1
  O  O236  1  0.35858880  0.74688181  -0.00822633  1
  O  O237  1  0.36852141  0.75629618  0.50489616  1
  O  O238  1  0.87093210  0.25656560  0.00593733  1
  O  O239  1  0.87021765  0.25564988  0.50576596  1
  O  O240  1  0.86924176  0.75770351  0.00399220  1
  O  O241  1  0.87375984  0.76257209  0.49881056  1
  O  O242  1  0.13686000  0.24664557  0.49883264  1
  O  O243  1  0.13282890  0.24647493  0.99585193  1
  O  O244  1  0.13099114  0.74918229  0.49140922  1
  O  O245  1  0.12952870  0.74181446  0.99307605  1
  O  O246  1  0.63274006  0.24337673  0.49489929  1
  O  O247  1  0.63159334  0.24440818  0.99521716  1
  O  O248  1  0.62392521  0.74710823  0.48798056  1
  O  O249  1  0.63164234  0.74312631  0.99305559  1
  O  O250  1  0.49082418  0.24645501  0.12418418  1
  O  O251  1  0.49558281  0.24978562  0.63491553  1
  O  O252  1  0.50517614  0.73548642  0.12002076  1
  O  O253  1  0.49269061  0.74080486  0.62590037  1
  O  O254  1  0.99538240  0.24590628  0.13245930  1
  O  O255  1  0.99726559  0.24131885  0.63094015  1
  O  O256  1  0.99273326  0.74949192  0.13080781  1
  O  O257  1  0.99984703  0.73945911  0.63057523  1
  O  O258  1  0.00163087  0.24363859  0.36238800  1
  O  O259  1  0.00691136  0.25598900  0.87129214  1
  O  O260  1  0.00459995  0.75616490  0.36795789  1
  O  O261  1  0.00511415  0.75649001  0.86787278  1
  O  O262  1  0.51276907  0.24676324  0.37523014  1
  O  O263  1  0.50485147  0.25309247  0.86979044  1
  O  O264  1  0.50423707  0.76006805  0.37505200  1
  O  O265  1  0.50655686  0.75450100  0.87499015  1
  O  O266  1  0.25096287  0.13381922  0.49134439  1
  O  O267  1  0.24398181  0.13768228  1.00025555  1
  O  O268  1  0.24769634  0.63420792  0.48790274  1
  O  O269  1  0.24084519  0.63382557  0.99346855  1
  O  O270  1  0.74655217  0.12847808  0.49665171  1
  O  O271  1  0.74705453  0.12883330  0.99437161  1
  O  O272  1  0.74646117  0.62956423  0.49748827  1
  O  O273  1  0.74412914  0.62904570  0.99336039  1
  O  O274  1  0.24318695  0.36330145  0.01046582  1
  O  O275  1  0.24768556  0.36269482  0.50193043  1
  O  O276  1  0.24697837  0.85829716  -0.00272530  1
  O  O277  1  0.25555184  0.87158596  0.50471458  1
  O  O278  1  0.75526178  0.36856806  0.00438076  1
  O  O279  1  0.76085241  0.36778713  0.50842919  1
  O  O280  1  0.75709092  0.87040483  0.00248353  1
  O  O281  1  0.75932740  0.87449157  0.50560488  1
  O  O282  1  0.12620034  0.49291162  0.24569660  1
  O  O283  1  0.12017298  0.49018351  0.74185128  1
  O  O284  1  0.12885115  0.99662314  0.24476724  1
  O  O285  1  0.13133565  0.99283575  0.74475505  1
  O  O286  1  0.62424186  0.50182539  0.23691296  1
  O  O287  1  0.63040632  0.49244303  0.74579819  1
  O  O288  1  0.63795268  0.99888745  0.25062491  1
  O  O289  1  0.63476273  0.99278690  0.74586866  1
  O  O290  1  0.36816272  0.00844246  0.25772291  1
  O  O291  1  0.37065631  -0.00119564  0.76033783  1
  O  O292  1  0.36965432  0.51540008  0.25889966  1
  O  O293  1  0.38012752  0.50992650  0.75970142  1
  O  O294  1  0.86516949  0.00054445  0.25506934  1
  O  O295  1  0.86128165  -0.00097622  0.74652459  1
  O  O296  1  0.87476990  0.50754463  0.25593877  1
  O  O297  1  0.87001892  0.50283599  0.75549636  1
  O  O298  1  0.13381533  0.37590484  0.36054000  1
  O  O299  1  0.12073824  0.37183554  0.86838855  1
  O  O300  1  0.11920044  0.87124581  0.36899974  1
  O  O301  1  0.11825612  0.86931046  0.86764044  1
  O  O302  1  0.63259597  0.36046334  0.37693316  1
  O  O303  1  0.61989557  0.36779875  0.87038659  1
  O  O304  1  0.61418294  0.86863142  0.37438659  1
  O  O305  1  0.62063010  0.86833522  0.87032042  1
  O  O306  1  0.37985304  0.13544718  0.13025800  1
  O  O307  1  0.38060111  0.13681093  0.63099606  1
  O  O308  1  0.38297055  0.61776880  0.13091470  1
  O  O309  1  0.37921229  0.62756439  0.63108028  1
  O  O310  1  0.88248888  0.13346496  0.12616301  1
  O  O311  1  0.88517736  0.12938814  0.62746523  1
  O  O312  1  0.87488249  0.63096137  0.13226208  1
  O  O313  1  0.88437997  0.62291811  0.63057412  1
  O  O314  1  0.25680763  0.25714524  0.11902295  1
  O  O315  1  0.25916905  0.25053462  0.61779380  1
  O  O316  1  0.24405308  0.74889096  0.10749091  1
  O  O317  1  0.25450563  0.75581916  0.61901296  1
  O  O318  1  0.75535759  0.25434175  0.11943828  1
  O  O319  1  0.75617840  0.25333383  0.62176821  1
  O  O320  1  0.75372537  0.75510384  0.11790968  1
  O  O321  1  0.75310294  0.75817741  0.62372134  1
  O  O322  1  0.25347684  0.24303386  0.38329382  1
  O  O323  1  0.24731969  0.25168667  0.88513876  1
  O  O324  1  0.24466692  0.74472891  0.37794488  1
  O  O325  1  0.24245310  0.74246902  0.88212028  1
  O  O326  1  0.74520405  0.24276472  0.38155472  1
  O  O327  1  0.74537165  0.24143614  0.88074113  1
  O  O328  1  0.73581189  0.75047950  0.37529831  1
  O  O329  1  0.74418364  0.74211107  0.87927540  1
  O  O330  1  0.00610883  0.12076169  0.00493274  1
  O  O331  1  0.00244286  0.12425044  0.51293454  1
  O  O332  1  0.00779034  0.62141297  -0.00286133  1
  O  O333  1  0.00059989  0.62501173  0.51161343  1
  O  O334  1  0.50654043  0.12078607  0.00524268  1
  O  O335  1  0.50832722  0.11652523  0.50161375  1
  O  O336  1  0.50400825  0.61536759  0.00464779  1
  O  O337  1  0.49760869  0.62072206  0.51424052  1
  O  O338  1  0.49751706  0.37667356  0.49219577  1
  O  O339  1  0.50472704  0.38646073  0.99346599  1
  O  O340  1  0.49421517  0.88043421  0.49184720  1
  O  O341  1  0.50086641  0.88194128  0.99272728  1
  O  O342  1  0.98673403  0.37186919  0.50653707  1
  O  O343  1  0.99578881  0.37962345  0.99415586  1
  O  O344  1  0.99146976  0.87635751  0.49351723  1
  O  O345  1  0.99311268  0.87886549  0.99455113  1
  O  O346  1  0.48269100  0.50670844  0.37503315  1
  O  O347  1  0.49351883  0.49561748  0.88170689  1
  O  O348  1  0.49571581  0.99294695  0.38045190  1
  O  O349  1  0.49403141  0.99470743  0.87977075  1
  O  O350  1  0.98494136  0.50607494  0.37726085  1
  O  O351  1  0.99320493  0.49441917  0.87934960  1
  O  O352  1  0.99387793  0.99474146  0.37503277  1
  O  O353  1  1.00635458  0.99199853  0.88285778  1
  O  O354  1  0.00642928  0.00618043  0.11844147  1
  O  O355  1  0.00635040  0.00910121  0.62605344  1
  O  O356  1  0.00138423  0.50344696  0.11395318  1
  O  O357  1  0.00920824  0.50907581  0.62423694  1
  O  O358  1  0.50078498  0.00914297  0.11886561  1
  O  O359  1  0.50729536  -0.00083735  0.61957070  1
  O  O360  1  0.50490302  0.50538337  0.11736036  1
  O  O361  1  0.50510245  0.50687953  0.62679774  1
  O  O362  1  0.24023372  0.37672420  0.23863892  1
  O  O363  1  0.23655180  0.36954354  0.74805337  1
  O  O364  1  0.24221002  0.88393625  0.25201651  1
  O  O365  1  0.24468476  0.87846185  0.74457046  1
  O  O366  1  0.74487814  0.37795639  0.24004168  1
  O  O367  1  0.74644064  0.37805753  0.74656129  1
  O  O368  1  0.75004981  0.88452255  0.24347646  1
  O  O369  1  0.74568647  0.88100518  0.74696250  1
  O  O370  1  0.25468059  0.12336585  0.25868759  1
  O  O371  1  0.25126599  0.11588117  0.75433894  1
  O  O372  1  0.25425355  0.62735206  0.25621063  1
  O  O373  1  0.26083922  0.62884692  0.75498873  1
  O  O374  1  0.75361798  0.11555400  0.25641143  1
  O  O375  1  0.75174696  0.11577505  0.75933176  1
  O  O376  1  0.76150655  0.62372688  0.24917460  1
  O  O377  1  0.75493258  0.61738748  0.75454778  1
  O  O378  1  0.36707218  0.12164269  0.37124302  1
  O  O379  1  0.37411627  0.11168483  0.87298900  1
  O  O380  1  0.36560536  0.62183847  0.36644422  1
  O  O381  1  0.37128417  0.61637970  0.86570314  1
  O  O382  1  0.86838599  0.11712454  0.37521314  1
  O  O383  1  0.86225504  0.12964880  0.87543786  1
  O  O384  1  0.87230326  0.61875368  0.36505938  1
  O  O385  1  0.86866351  0.61848105  0.86967846  1
  O  O386  1  0.13473289  0.37628752  0.13367073  1
  O  O387  1  0.12533041  0.38382562  0.63394266  1
  O  O388  1  0.12891403  0.88225836  0.13140770  1
  O  O389  1  0.13047248  0.87949184  0.62982409  1
  O  O390  1  0.62874845  0.38468698  0.12388724  1
  O  O391  1  0.63244165  0.37836466  0.63167952  1
  O  O392  1  0.63309701  0.87863983  0.12713001  1
  O  O393  1  0.63028831  0.87908372  0.63025202  1
  O  O394  1  0.11721425  0.25905456  0.25223384  1
  O  O395  1  0.12052761  0.25821063  0.75560385  1
  O  O396  1  0.11846024  0.75682695  0.25412966  1
  O  O397  1  0.11958841  0.75519356  0.75407106  1
  O  O398  1  0.62457852  0.24868596  0.26277226  1
  O  O399  1  0.61976534  0.25349359  0.75554162  1
  O  O400  1  0.61761090  0.75324822  0.25919602  1
  O  O401  1  0.62396683  0.75546377  0.75681586  1
  O  O402  1  0.37479453  0.24487146  0.23972578  1
  O  O403  1  0.38618239  0.24665447  0.74594782  1
  O  O404  1  0.37630764  0.73772668  0.25344628  1
  O  O405  1  0.37600494  0.73920895  0.74445687  1
  O  O406  1  0.88356051  0.25201689  0.24470108  1
  O  O407  1  0.88343625  0.24755367  0.74415754  1
  O  O408  1  0.87787222  0.74367587  0.24510539  1
  O  O409  1  0.88153745  0.74138829  0.74824709  1
  O  O410  1  0.37267301  0.50672429  0.48302007  1
  O  O411  1  0.38655709  0.50721415  0.98874294  1
  O  O412  1  0.38051892  0.99562792  0.49577228  1
  O  O413  1  0.38091395  1.00084666  0.99049794  1
  O  O414  1  0.87732870  0.48996011  0.49318387  1
  O  O415  1  0.87861939  0.49463990  0.99359128  1
  O  O416  1  0.87678306  0.98848783  0.49424548  1
  O  O417  1  0.88159705  0.98725738  1.00633641  1
  O  O418  1  0.12059093  0.00599605  0.00495565  1
  O  O419  1  0.12301160  0.00405535  0.50912058  1
  O  O420  1  0.11912431  0.51102972  -0.00264570  1
  O  O421  1  0.12038572  0.50234116  0.50935312  1
  O  O422  1  0.61845962  0.00710244  0.00138029  1
  O  O423  1  0.62173135  0.00353754  0.50560001  1
  O  O424  1  0.61531213  0.50455599  0.00678490  1
  O  O425  1  0.62335135  0.50150299  0.50955759  1
  O  O426  1  0.36554323  0.36584628  0.13379597  1
  O  O427  1  0.37266203  0.36116542  0.63659984  1
  O  O428  1  0.36879096  0.87707227  0.12102276  1
  O  O429  1  0.36993543  0.86965988  0.62045094  1
  O  O430  1  0.86873823  0.37111653  0.11853087  1
  O  O431  1  0.87098799  0.36897370  0.61913263  1
  O  O432  1  0.86951404  0.86895318  0.11460415  1
  O  O433  1  0.87072715  0.87332335  0.61527842  1
  O  O434  1  0.13867298  0.12773628  0.37512552  1
  O  O435  1  0.12744578  0.13360900  0.88205444  1
  O  O436  1  0.13341476  0.63132386  0.37244218  1
  O  O437  1  0.12847726  0.62883478  0.88098964  1
  O  O438  1  0.63213864  0.13160181  0.38249473  1
  O  O439  1  0.63566815  0.13002559  0.88208577  1
  O  O440  1  0.62227156  0.63480283  0.37483651  1
  O  O441  1  0.62906392  0.62727031  0.87849021  1
