# generated using pymatgen
data_V93Zn93O256
_symmetry_space_group_name_H-M   'P 1'
_cell_length_a   17.04597741
_cell_length_b   17.04441109
_cell_length_c   17.04859404
_cell_angle_alpha   89.97283109
_cell_angle_beta   89.98774269
_cell_angle_gamma   90.00558276
_symmetry_Int_Tables_number   1
_chemical_formula_structural   V93Zn93O256
_chemical_formula_sum   'V93 Zn93 O256'
_cell_volume   4953.27474187
_cell_formula_units_Z   1
loop_
 _symmetry_equiv_pos_site_id
 _symmetry_equiv_pos_as_xyz
  1  'x, y, z'
loop_
 _atom_site_type_symbol
 _atom_site_label
 _atom_site_symmetry_multiplicity
 _atom_site_fract_x
 _atom_site_fract_y
 _atom_site_fract_z
 _atom_site_occupancy
  V  V0  1  0.37635147  0.37560594  0.00004783  1
  V  V1  1  0.62711379  0.50098156  0.12401649  1
  V  V2  1  0.37562384  0.62463985  0.74849812  1
  V  V3  1  0.12418568  0.50108105  0.12417999  1
  V  V4  1  0.74969458  0.12461331  0.37514429  1
  V  V5  1  0.49959092  0.74990382  0.24902765  1
  V  V6  1  0.50798187  0.62489843  0.61978211  1
  V  V7  1  0.12403042  0.25037597  0.87610734  1
  V  V8  1  0.62675861  0.25073152  0.87574668  1
  V  V9  1  0.50009426  0.00130963  0.50051846  1
  V  V10  1  0.00097062  0.25018608  0.75192914  1
  V  V11  1  0.12673680  0.49984102  0.62476401  1
  V  V12  1  0.74868337  0.00225859  0.75055179  1
  V  V13  1  0.12113122  0.75081469  0.86727277  1
  V  V14  1  0.87471023  0.12433741  0.25083123  1
  V  V15  1  0.37389586  0.87562772  0.50060524  1
  V  V16  1  0.25273390  0.62389514  0.37343839  1
  V  V17  1  0.37645957  0.24958022  0.62609790  1
  V  V18  1  0.12489247  0.74855568  0.37392950  1
  V  V19  1  0.37507211  0.75089174  0.62372123  1
  V  V20  1  0.24981131  0.37474132  0.12601796  1
  V  V21  1  0.12258835  -0.00079388  0.12590082  1
  V  V22  1  0.37356036  0.00038167  0.37465732  1
  V  V23  1  0.75053961  0.62678710  0.87396652  1
  V  V24  1  0.50090327  0.37622118  0.87518142  1
  V  V25  1  0.62623022  0.62708805  -0.00200503  1
  V  V26  1  0.00044397  0.49271800  0.49637192  1
  V  V27  1  -0.00141658  0.87149164  0.86969910  1
  V  V28  1  0.75097009  0.50039566  0.24879546  1
  V  V29  1  0.74662927  0.62389235  0.37852460  1
  V  V30  1  0.62539159  0.25042510  0.37565546  1
  V  V31  1  0.87969155  0.49371975  0.37483834  1
  V  V32  1  0.50062046  0.12223926  0.12625313  1
  V  V33  1  0.50105273  -0.00067758  0.00267646  1
  V  V34  1  0.00274526  -0.00073399  0.50862547  1
  V  V35  1  0.24848413  0.00106871  0.25096935  1
  V  V36  1  0.49780725  0.87501097  0.87466446  1
  V  V37  1  0.74865667  0.87529685  0.62418350  1
  V  V38  1  0.37552268  0.25046764  0.12559646  1
  V  V39  1  0.50087464  0.50009547  -0.00096297  1
  V  V40  1  0.24751770  0.74979120  -0.00139416  1
  V  V41  1  0.12590453  0.62438181  0.49856882  1
  V  V42  1  0.00051845  0.63037348  0.62647050  1
  V  V43  1  0.50773355  0.50386410  0.49835235  1
  V  V44  1  0.75199985  0.25033019  0.50087323  1
  V  V45  1  0.74292209  -0.00222813  0.24873383  1
  V  V46  1  0.87455708  -0.00068238  0.37556742  1
  V  V47  1  0.12422995  0.12391350  0.00185239  1
  V  V48  1  0.24363082  0.87874176  0.62523914  1
  V  V49  1  0.62395295  0.12427228  0.50106002  1
  V  V50  1  0.49993417  0.75040370  0.74825562  1
  V  V51  1  0.75066872  0.24958360  0.00139411  1
  V  V52  1  0.37385939  0.87536400  -0.00074933  1
  V  V53  1  0.87964375  0.63231921  0.74873439  1
  V  V54  1  0.12331624  0.87501878  0.25030213  1
  V  V55  1  0.24805655  0.87471168  0.12448224  1
  V  V56  1  0.75084450  0.37541569  0.12451647  1
  V  V57  1  0.25123346  0.50060695  0.74875154  1
  V  V58  1  0.75095285  0.49931243  0.74684722  1
  V  V59  1  0.49913605  0.87462374  0.37385436  1
  V  V60  1  0.24958368  0.62562569  0.87402886  1
  V  V61  1  0.50024635  0.25015549  0.25064360  1
  V  V62  1  0.49974217  0.37608259  0.37568929  1
  V  V63  1  0.25050487  0.37551672  0.62550156  1
  V  V64  1  0.87944853  0.49862722  0.87622668  1
  V  V65  1  0.62337936  0.87634993  0.74929430  1
  V  V66  1  -0.00068855  0.87439741  0.37543519  1
  V  V67  1  0.87416491  0.75418079  0.11806464  1
  V  V68  1  0.74838642  0.74784159  0.49960996  1
  V  V69  1  0.50025806  0.62633536  0.12382177  1
  V  V70  1  0.62441963  0.12339944  0.00276565  1
  V  V71  1  0.24951738  0.24996756  0.50086069  1
  V  V72  1  0.87644043  0.24955151  0.62640775  1
  V  V73  1  0.25212419  0.12294875  0.87510123  1
  V  V74  1  0.50055167  0.25022880  0.74976751  1
  V  V75  1  0.62476577  0.74990825  0.87435101  1
  V  V76  1  0.00026522  0.25262206  0.25781390  1
  V  V77  1  -0.00165022  0.74970907  0.24852058  1
  V  V78  1  0.74654454  0.87828729  0.11794820  1
  V  V79  1  0.24876905  0.12586866  0.37628295  1
  V  V80  1  -0.00098531  0.12378114  0.12637453  1
  V  V81  1  0.62698327  0.37636087  0.74854796  1
  V  V82  1  0.62476876  0.74875395  0.37523309  1
  V  V83  1  0.37463649  0.74964654  0.12482720  1
  V  V84  1  0.87466388  0.24969542  0.12497256  1
  V  V85  1  -0.00608735  -0.00729915  0.00098679  1
  V  V86  1  0.24958410  0.24933802  0.00092485  1
  V  V87  1  0.12454698  0.12090265  0.50711314  1
  V  V88  1  0.12308766  0.37404509  0.25735511  1
  V  V89  1  0.87568634  0.62618942  0.24915769  1
  V  V90  1  0.24233271  -0.00050213  0.74792621  1
  V  V91  1  0.87368391  0.87426444  0.49940131  1
  V  V92  1  0.87251426  -0.00478957  0.87922425  1
  Zn  Zn93  1  0.75075247  0.37545442  0.62151973  1
  Zn  Zn94  1  0.37513901  0.62204164  0.24883941  1
  Zn  Zn95  1  0.37476296  0.50044754  0.87450163  1
  Zn  Zn96  1  0.11816707  0.87568535  0.74320189  1
  Zn  Zn97  1  0.37546909  0.37727980  0.49949089  1
  Zn  Zn98  1  0.12129957  0.25346356  0.38003745  1
  Zn  Zn99  1  0.37378459  -0.00154636  0.87284455  1
  Zn  Zn100  1  0.62162627  0.87921500  0.24562235  1
  Zn  Zn101  1  0.75133324  0.12534653  0.87652618  1
  Zn  Zn102  1  0.00393965  0.11973220  0.63077491  1
  Zn  Zn103  1  0.50072440  0.12393074  0.62745293  1
  Zn  Zn104  1  0.37689337  0.12231420  0.75007039  1
  Zn  Zn105  1  0.12302735  0.62417010  -0.00060195  1
  Zn  Zn106  1  0.12600326  0.37613700  0.75269783  1
  Zn  Zn107  1  0.75399694  0.75541798  -0.00385638  1
  Zn  Zn108  1  0.87811880  0.75135255  0.62689567  1
  Zn  Zn109  1  0.62953878  0.50190884  0.61955471  1
  Zn  Zn110  1  0.87831362  0.37191783  0.49744145  1
  Zn  Zn111  1  0.87789996  0.37407770  -0.00020340  1
  Zn  Zn112  1  0.37308636  0.12559537  0.25079518  1
  Zn  Zn113  1  0.00105648  0.49894929  0.00076251  1
  Zn  Zn114  1  0.62178566  0.00175286  0.62577034  1
  Zn  Zn115  1  0.25001878  0.75054403  0.50017556  1
  Zn  Zn116  1  0.87576503  0.12457373  0.75185046  1
  Zn  Zn117  1  0.62556150  0.37543835  0.24897777  1
  Zn  Zn118  1  -0.00090870  0.62494285  0.12166119  1
  Zn  Zn119  1  0.37715763  0.50126068  0.37373281  1
  Zn  Zn120  1  0.25337708  0.49806113  0.25076094  1
  Zn  Zn121  1  0.00277200  0.37488021  0.87902056  1
  Zn  Zn122  1  0.18581726  0.18823377  0.18907992  1
  Zn  Zn123  1  0.18778473  0.18730839  0.68895152  1
  Zn  Zn124  1  0.18752920  0.68616881  0.18836680  1
  Zn  Zn125  1  0.18858171  0.68839012  0.68612693  1
  Zn  Zn126  1  0.68595754  0.18718401  0.18820531  1
  Zn  Zn127  1  0.68702298  0.18733534  0.68629613  1
  Zn  Zn128  1  0.68829363  0.68956343  0.18806383  1
  Zn  Zn129  1  0.68931380  0.68835322  0.68816213  1
  Zn  Zn130  1  0.31267283  0.31161746  0.31264961  1
  Zn  Zn131  1  0.31318331  0.31310232  0.81232863  1
  Zn  Zn132  1  0.31207210  0.81090799  0.31160666  1
  Zn  Zn133  1  0.31068103  0.81218408  0.81047505  1
  Zn  Zn134  1  0.81177973  0.31262165  0.31063517  1
  Zn  Zn135  1  0.81359660  0.31329818  0.81362423  1
  Zn  Zn136  1  0.81237072  0.81356865  0.30906854  1
  Zn  Zn137  1  0.81184074  0.81507388  0.81318895  1
  Zn  Zn138  1  0.18977874  0.43870511  0.43887215  1
  Zn  Zn139  1  0.18842332  0.43753652  0.93708377  1
  Zn  Zn140  1  0.18648507  0.93806519  0.43883603  1
  Zn  Zn141  1  0.18324947  0.93671187  0.93621304  1
  Zn  Zn142  1  0.68850882  0.43564233  0.43771186  1
  Zn  Zn143  1  0.69060798  0.43786585  0.93699603  1
  Zn  Zn144  1  0.68465427  0.93643437  0.43607226  1
  Zn  Zn145  1  0.68339972  0.93821618  0.93711398  1
  Zn  Zn146  1  0.31397099  0.06142645  0.06290003  1
  Zn  Zn147  1  0.31223636  0.06234856  0.56388487  1
  Zn  Zn148  1  0.31126280  0.56226971  0.06157455  1
  Zn  Zn149  1  0.31799817  0.56176264  0.55894838  1
  Zn  Zn150  1  0.81147772  0.06186569  0.06457438  1
  Zn  Zn151  1  0.81391120  0.06409752  0.56438540  1
  Zn  Zn152  1  0.81300099  0.56635184  0.06102842  1
  Zn  Zn153  1  0.81661807  0.56332124  0.56113786  1
  Zn  Zn154  1  0.43759169  0.43908383  0.18913630  1
  Zn  Zn155  1  0.43870688  0.43849534  0.68568778  1
  Zn  Zn156  1  0.43511111  0.93720459  0.18811534  1
  Zn  Zn157  1  0.43198074  0.94021286  0.68737700  1
  Zn  Zn158  1  0.93911203  0.43583054  0.18800493  1
  Zn  Zn159  1  0.94002490  0.43638449  0.68679637  1
  Zn  Zn160  1  0.93190660  0.93499549  0.18773618  1
  Zn  Zn161  1  0.93144439  0.93466229  0.68968122  1
  Zn  Zn162  1  0.06263626  0.06388421  0.31779224  1
  Zn  Zn163  1  0.06186275  0.06276598  0.81471792  1
  Zn  Zn164  1  0.06335389  0.56213370  0.30941553  1
  Zn  Zn165  1  0.06409382  0.56432836  0.81068922  1
  Zn  Zn166  1  0.56105755  0.06425987  0.31468959  1
  Zn  Zn167  1  0.56156654  0.06389207  0.81538513  1
  Zn  Zn168  1  0.56388050  0.56339874  0.31000835  1
  Zn  Zn169  1  0.56287331  0.56271946  0.81055964  1
  Zn  Zn170  1  0.43590981  0.18752622  0.43909975  1
  Zn  Zn171  1  0.43779470  0.18993800  0.93717238  1
  Zn  Zn172  1  0.43665493  0.68792088  0.43912419  1
  Zn  Zn173  1  0.43590089  0.68781407  0.93675886  1
  Zn  Zn174  1  0.93695032  0.18387190  0.44030193  1
  Zn  Zn175  1  0.93632713  0.18277364  0.93733926  1
  Zn  Zn176  1  0.93658384  0.68394385  0.43766341  1
  Zn  Zn177  1  0.94074437  0.68385740  0.93927675  1
  Zn  Zn178  1  0.06047092  0.31514232  0.06466586  1
  Zn  Zn179  1  0.06480685  0.31073265  0.56600583  1
  Zn  Zn180  1  0.06148101  0.81060929  0.05921082  1
  Zn  Zn181  1  0.06384141  0.81075801  0.55870126  1
  Zn  Zn182  1  0.56380965  0.31264647  0.06355393  1
  Zn  Zn183  1  0.56454034  0.31481665  0.56276590  1
  Zn  Zn184  1  0.56464359  0.81272854  0.06204065  1
  Zn  Zn185  1  0.56374248  0.81387916  0.56078250  1
  O  O186  1  0.11869817  0.11806785  0.12146883  1
  O  O187  1  0.12485430  0.12786921  0.61119997  1
  O  O188  1  0.12533496  0.61315131  0.12543235  1
  O  O189  1  0.11909118  0.62018424  0.61980330  1
  O  O190  1  0.61204826  0.13180562  0.11421468  1
  O  O191  1  0.62245477  0.12251293  0.61604397  1
  O  O192  1  0.62101844  0.62158562  0.11836448  1
  O  O193  1  0.61160536  0.62442140  0.63100306  1
  O  O194  1  0.38936741  0.37432383  0.37637561  1
  O  O195  1  0.38261652  0.37527323  0.88237849  1
  O  O196  1  0.37915668  0.87985295  0.38007118  1
  O  O197  1  0.38079374  0.87317779  0.88217869  1
  O  O198  1  0.87118264  0.39010114  0.37428964  1
  O  O199  1  0.87666064  0.38738931  0.87546139  1
  O  O200  1  0.87999346  0.87937074  0.37969731  1
  O  O201  1  0.88233470  0.88616062  0.87150784  1
  O  O202  1  0.25394303  0.00474290  0.37018111  1
  O  O203  1  0.24986715  0.00855878  0.87072068  1
  O  O204  1  0.25223160  0.51149253  0.37464565  1
  O  O205  1  0.25164517  0.50722065  0.86782551  1
  O  O206  1  0.75528155  0.00423311  0.36847629  1
  O  O207  1  0.75611775  -0.00227997  0.86867970  1
  O  O208  1  0.75652998  0.50779343  0.37143195  1
  O  O209  1  0.75818452  0.50634357  0.86497667  1
  O  O210  1  0.24224858  0.49292943  0.12684882  1
  O  O211  1  0.24675139  0.49623634  0.62797655  1
  O  O212  1  0.24287028  0.99494892  0.12970223  1
  O  O213  1  0.25539946  0.98971653  0.63414412  1
  O  O214  1  0.74687519  0.49641195  0.12909858  1
  O  O215  1  0.75134273  0.50110526  0.63468987  1
  O  O216  1  0.75771639  0.98641555  0.13424137  1
  O  O217  1  0.75026823  0.99420794  0.63516838  1
  O  O218  1  0.00982701  0.36260667  0.24476603  1
  O  O219  1  0.00302899  0.36188574  0.75303555  1
  O  O220  1  0.00380753  0.87096564  0.25635208  1
  O  O221  1  0.00184895  0.88307993  0.76357360  1
  O  O222  1  0.50332927  0.36946191  0.25874313  1
  O  O223  1  0.50680447  0.37115649  0.75570675  1
  O  O224  1  0.50130329  0.86937156  0.25524649  1
  O  O225  1  0.50311024  0.87052611  0.75431855  1
  O  O226  1  0.49897131  0.12903951  0.24055726  1
  O  O227  1  0.49755983  0.13365252  0.74986727  1
  O  O228  1  0.49988515  0.63248768  0.24134044  1
  O  O229  1  0.49505806  0.63071882  0.74181971  1
  O  O230  1  0.99506499  0.12973133  0.24550942  1
  O  O231  1  0.99956096  0.13455663  0.74903667  1
  O  O232  1  0.99358681  0.63298617  0.24792344  1
  O  O233  1  0.99041315  0.61838945  0.73798462  1
  O  O234  1  0.36994844  0.25574600  0.00595294  1
  O  O235  1  0.36919211  0.25177612  0.51056676  1
  O  O236  1  0.36885861  0.75656811  0.00511025  1
  O  O237  1  0.37367405  0.75862922  0.50601915  1
  O  O238  1  0.86818721  0.24626864  0.00759280  1
  O  O239  1  0.87223175  0.25044563  0.50806654  1
  O  O240  1  0.87257501  0.74380156  0.01349411  1
  O  O241  1  0.86370792  0.75585987  0.49775312  1
  O  O242  1  0.12957377  0.24147171  0.49853293  1
  O  O243  1  0.13004575  0.24309873  0.99760144  1
  O  O244  1  0.12667525  0.74172047  0.49070765  1
  O  O245  1  0.13141720  0.74941959  0.98959107  1
  O  O246  1  0.63151026  0.24471592  0.49469707  1
  O  O247  1  0.62971891  0.24243549  0.99569074  1
  O  O248  1  0.63654045  0.75575287  0.48740919  1
  O  O249  1  0.62619327  0.74437549  0.99110807  1
  O  O250  1  0.49510583  0.24269102  0.12951470  1
  O  O251  1  0.49154840  0.25137263  0.63055223  1
  O  O252  1  0.49525274  0.74625235  0.12852941  1
  O  O253  1  0.49641371  0.74429973  0.62818058  1
  O  O254  1  0.99466342  0.24215307  0.13424329  1
  O  O255  1  0.99365865  0.24774336  0.63458895  1
  O  O256  1  0.99085919  0.75261660  0.13066989  1
  O  O257  1  0.99852145  0.73441576  0.61589111  1
  O  O258  1  -0.00078110  0.24237021  0.36135650  1
  O  O259  1  0.00510345  0.24701943  0.86789733  1
  O  O260  1  0.00415169  0.75449416  0.37006147  1
  O  O261  1  0.00724682  0.76159123  0.88329722  1
  O  O262  1  0.50488666  0.25682117  0.37162630  1
  O  O263  1  0.50644693  0.25670762  0.87065739  1
  O  O264  1  0.50736503  0.75330079  0.37094799  1
  O  O265  1  0.50476126  0.75491154  0.86800662  1
  O  O266  1  0.24236182  0.12826637  0.49672681  1
  O  O267  1  0.24449338  0.12838319  0.99450466  1
  O  O268  1  0.24432223  0.62579878  0.49153050  1
  O  O269  1  0.24886493  0.63249511  0.99204998  1
  O  O270  1  0.74545724  0.12944241  0.49368230  1
  O  O271  1  0.73826297  0.12823656  1.00315254  1
  O  O272  1  0.75729913  0.63454869  0.48894800  1
  O  O273  1  0.74258113  0.62760435  0.99103975  1
  O  O274  1  0.25618213  0.36795280  0.00546254  1
  O  O275  1  0.25191115  0.36854198  0.50714952  1
  O  O276  1  0.25326261  0.87111314  0.00560169  1
  O  O277  1  0.25506477  0.87561200  0.50843161  1
  O  O278  1  0.75262181  0.36750879  0.00658253  1
  O  O279  1  0.75476376  0.36625033  0.50131590  1
  O  O280  1  0.74577528  0.87756595  0.01406946  1
  O  O281  1  0.75443947  0.86812468  0.50308207  1
  O  O282  1  0.12669462  0.49030764  0.24240337  1
  O  O283  1  0.13318002  0.50015524  0.74193948  1
  O  O284  1  0.12765771  0.99462871  0.24572572  1
  O  O285  1  0.13810260  0.99823094  0.75575820  1
  O  O286  1  0.63344388  0.50032345  0.24145802  1
  O  O287  1  0.63742681  0.49620865  0.75013352  1
  O  O288  1  0.63894538  1.00112037  0.25594772  1
  O  O289  1  0.63302229  0.99445658  0.75220399  1
  O  O290  1  0.36630535  0.00140095  0.25628382  1
  O  O291  1  0.36166030  0.00334296  0.75465397  1
  O  O292  1  0.37193153  0.50415456  0.25462941  1
  O  O293  1  0.36962846  0.50684151  0.75050537  1
  O  O294  1  0.86628307  0.00532830  0.25629801  1
  O  O295  1  0.86387914  0.00076260  0.75887081  1
  O  O296  1  0.87135017  0.50529125  0.25667228  1
  O  O297  1  0.86850255  0.50773716  0.75537321  1
  O  O298  1  0.13112176  0.37402690  0.36157053  1
  O  O299  1  0.12480301  0.36524950  0.87305343  1
  O  O300  1  0.11923627  0.86950708  0.36979803  1
  O  O301  1  0.11620124  0.86752132  0.87244013  1
  O  O302  1  0.61569696  0.36878984  0.37288896  1
  O  O303  1  0.62092234  0.37003120  0.86989371  1
  O  O304  1  0.61794684  0.86526059  0.37160265  1
  O  O305  1  0.61744357  0.86961275  0.86942641  1
  O  O306  1  0.38501695  0.13147260  0.12485041  1
  O  O307  1  0.37536681  0.13870172  0.62700696  1
  O  O308  1  0.38210722  0.63290290  0.12310354  1
  O  O309  1  0.38461595  0.63121793  0.62926176  1
  O  O310  1  0.87954981  0.12922361  0.13207078  1
  O  O311  1  0.87872425  0.13716159  0.62823125  1
  O  O312  1  0.87307174  0.63499728  0.13314783  1
  O  O313  1  0.88347540  0.62622789  0.63179487  1
  O  O314  1  0.25485518  0.25345814  0.11975624  1
  O  O315  1  0.25733438  0.25503328  0.62175380  1
  O  O316  1  0.25337470  0.75606617  0.11979392  1
  O  O317  1  0.25769347  0.75867270  0.62378260  1
  O  O318  1  0.75490006  0.25416739  0.12178925  1
  O  O319  1  0.76023616  0.24954712  0.62013299  1
  O  O320  1  0.75677227  0.76092238  0.12476638  1
  O  O321  1  0.74911189  0.75452305  0.61360272  1
  O  O322  1  0.25018694  0.24325910  0.38353494  1
  O  O323  1  0.24507724  0.24171806  0.88074965  1
  O  O324  1  0.24312156  0.74227789  0.37599138  1
  O  O325  1  0.24175894  0.74620832  0.87915210  1
  O  O326  1  0.74636332  0.24369832  0.37927880  1
  O  O327  1  0.74487190  0.24742884  0.88224287  1
  O  O328  1  0.74481413  0.74424428  0.37945709  1
  O  O329  1  0.74380488  0.74580715  0.87597428  1
  O  O330  1  0.00506417  0.11491397  0.00650304  1
  O  O331  1  0.00741738  0.11519458  0.50141252  1
  O  O332  1  0.00565175  0.61757272  0.00455338  1
  O  O333  1  0.00474442  0.61510141  0.50673035  1
  O  O334  1  0.50437522  0.11985752  0.00628137  1
  O  O335  1  0.50660197  0.11875537  0.49960566  1
  O  O336  1  0.50621528  0.62072537  0.00362166  1
  O  O337  1  0.49646281  0.61788721  0.50921142  1
  O  O338  1  0.50104981  0.38241789  0.49023772  1
  O  O339  1  0.49651906  0.38011476  0.99521858  1
  O  O340  1  0.49414803  0.88051896  0.49317055  1
  O  O341  1  0.49591647  0.88244851  0.99669519  1
  O  O342  1  1.00135588  0.38936765  0.50493319  1
  O  O343  1  0.99508146  0.37953697  0.99720260  1
  O  O344  1  0.99494696  0.88087851  0.49505451  1
  O  O345  1  1.00378051  0.88779779  0.99107445  1
  O  O346  1  0.50335633  0.49328369  0.38037930  1
  O  O347  1  0.49976117  0.49424223  0.88102234  1
  O  O348  1  0.49335808  0.99455541  0.37911831  1
  O  O349  1  0.49622514  0.99418960  0.88488993  1
  O  O350  1  0.99025427  0.50932405  0.38418526  1
  O  O351  1  0.98978744  0.49943295  0.87201540  1
  O  O352  1  0.99348077  0.99384867  0.38359505  1
  O  O353  1  0.99288565  0.99397752  0.88305146  1
  O  O354  1  0.00142416  0.00234840  0.11925653  1
  O  O355  1  -0.00931608  -0.00083954  0.61212518  1
  O  O356  1  0.01171796  0.50091538  0.12637687  1
  O  O357  1  0.00545843  0.50835098  0.61694115  1
  O  O358  1  0.49296962  0.01002753  0.11521735  1
  O  O359  1  0.49968799  0.00245564  0.61684996  1
  O  O360  1  0.50697365  0.50576947  0.11838521  1
  O  O361  1  0.50239895  0.50830234  0.61689952  1
  O  O362  1  0.24114145  0.37270584  0.24319456  1
  O  O363  1  0.24995149  0.38230604  0.74348567  1
  O  O364  1  0.24282713  0.88053580  0.24448198  1
  O  O365  1  0.24873280  0.88274352  0.74213046  1
  O  O366  1  0.74793546  0.38231236  0.24309442  1
  O  O367  1  0.74650599  0.38567412  0.74974672  1
  O  O368  1  0.74745613  0.88376857  0.24390694  1
  O  O369  1  0.74393640  0.88321870  0.74526260  1
  O  O370  1  0.24911384  0.11834413  0.25655237  1
  O  O371  1  0.24956588  0.11836014  0.75992600  1
  O  O372  1  0.25095031  0.62405873  0.26180090  1
  O  O373  1  0.25655520  0.62020349  0.75316645  1
  O  O374  1  0.75470114  0.11762088  0.25399195  1
  O  O375  1  0.74809364  0.11228357  0.75362603  1
  O  O376  1  0.75570291  0.62055844  0.25895136  1
  O  O377  1  0.75803923  0.61741866  0.75330412  1
  O  O378  1  0.36733881  0.11815990  0.37443741  1
  O  O379  1  0.36113963  0.12593744  0.87653178  1
  O  O380  1  0.36422052  0.62701030  0.37387835  1
  O  O381  1  0.36834343  0.62542696  0.86668882  1
  O  O382  1  0.86833851  0.11904309  0.37006821  1
  O  O383  1  0.87169496  0.10970860  0.87298715  1
  O  O384  1  0.86554694  0.61745191  0.36935467  1
  O  O385  1  0.87183655  0.61917803  0.86586560  1
  O  O386  1  0.13088557  0.38093411  0.13387752  1
  O  O387  1  0.13304005  0.38211945  0.62766423  1
  O  O388  1  0.12826690  0.88007529  0.13041449  1
  O  O389  1  0.13832899  0.86607874  0.62601190  1
  O  O390  1  0.63225351  0.38261773  0.12565022  1
  O  O391  1  0.62968920  0.37886173  0.63395892  1
  O  O392  1  0.64092996  0.86844721  0.12943663  1
  O  O393  1  0.63096349  0.87771757  0.63139342  1
  O  O394  1  0.11643743  0.25640103  0.25178011  1
  O  O395  1  0.11691923  0.24946066  0.75664331  1
  O  O396  1  0.11846604  0.75655210  0.25392765  1
  O  O397  1  0.12865151  0.75184127  0.76365353  1
  O  O398  1  0.61836808  0.25025039  0.25770571  1
  O  O399  1  0.62140615  0.25590677  0.75592646  1
  O  O400  1  0.61954008  0.75152472  0.26093924  1
  O  O401  1  0.61982313  0.75653039  0.75491839  1
  O  O402  1  0.38225374  0.24750125  0.24320922  1
  O  O403  1  0.38091041  0.24933420  0.74183718  1
  O  O404  1  0.38183070  0.74920250  0.24186513  1
  O  O405  1  0.38152641  0.74522994  0.74341553  1
  O  O406  1  0.88132713  0.24402806  0.24559907  1
  O  O407  1  0.88264383  0.24763791  0.74503291  1
  O  O408  1  0.87965383  0.74550325  0.24316445  1
  O  O409  1  0.86770689  0.73582127  0.74811727  1
  O  O410  1  0.39052285  0.49649862  0.49553930  1
  O  O411  1  0.38257189  0.49313630  0.99881626  1
  O  O412  1  0.37966382  0.99496800  0.49376757  1
  O  O413  1  0.38388105  0.99400955  0.99775782  1
  O  O414  1  0.88364575  0.49887295  0.49186448  1
  O  O415  1  0.87310163  0.50152016  0.98586290  1
  O  O416  1  0.88108839  0.99464413  0.49426134  1
  O  O417  1  0.88406411  1.00540523  0.99286373  1
  O  O418  1  0.11512955  0.00433340  0.00637793  1
  O  O419  1  0.11315067  0.00727393  0.49511304  1
  O  O420  1  0.12656338  0.49914712  0.01271973  1
  O  O421  1  0.11820192  0.50536147  0.50427066  1
  O  O422  1  0.61166710  0.01050953  -0.00508555  1
  O  O423  1  0.61831747  0.00598135  0.49955446  1
  O  O424  1  0.62109309  0.50681140  0.00393746  1
  O  O425  1  0.61336930  0.49774463  0.50067452  1
  O  O426  1  0.37103328  0.36944948  0.11938266  1
  O  O427  1  0.37011373  0.36465251  0.62423004  1
  O  O428  1  0.36771661  0.86979386  0.11906603  1
  O  O429  1  0.36641176  0.86958051  0.61953494  1
  O  O430  1  0.86808937  0.36742223  0.12486916  1
  O  O431  1  0.87429891  0.36174571  0.62397640  1
  O  O432  1  0.86117536  0.86434067  0.13120874  1
  O  O433  1  0.86716582  0.86975420  0.61856009  1
  O  O434  1  0.13134751  0.12714831  0.38715641  1
  O  O435  1  0.13421408  0.12944568  0.88255701  1
  O  O436  1  0.13232125  0.62918571  0.37841161  1
  O  O437  1  0.13081759  0.63392255  0.87482385  1
  O  O438  1  0.63064495  0.13128281  0.38107405  1
  O  O439  1  0.62490754  0.13195305  0.88791802  1
  O  O440  1  0.63741230  0.63462171  0.36983487  1
  O  O441  1  0.63033017  0.63098177  0.87717909  1
