# generated using pymatgen
data_V93Zn93O256
_symmetry_space_group_name_H-M   'P 1'
_cell_length_a   17.05444820
_cell_length_b   17.05183065
_cell_length_c   17.05602728
_cell_angle_alpha   89.91914542
_cell_angle_beta   90.03859419
_cell_angle_gamma   89.97970770
_symmetry_Int_Tables_number   1
_chemical_formula_structural   V93Zn93O256
_chemical_formula_sum   'V93 Zn93 O256'
_cell_volume   4960.04945469
_cell_formula_units_Z   1
loop_
 _symmetry_equiv_pos_site_id
 _symmetry_equiv_pos_as_xyz
  1  'x, y, z'
loop_
 _atom_site_type_symbol
 _atom_site_label
 _atom_site_symmetry_multiplicity
 _atom_site_fract_x
 _atom_site_fract_y
 _atom_site_fract_z
 _atom_site_occupancy
  V  V0  1  0.37754662  0.12081052  0.75519635  1
  V  V1  1  0.00192377  0.37444963  0.87554707  1
  V  V2  1  0.37669557  0.24766147  0.62505395  1
  V  V3  1  0.50250237  0.24852655  0.75086317  1
  V  V4  1  0.62709010  0.11969964  0.50281508  1
  V  V5  1  0.62597598  0.24800997  0.37627114  1
  V  V6  1  0.37554162  0.37197563  0.50025325  1
  V  V7  1  0.25503816  0.12175514  0.87685580  1
  V  V8  1  0.87509533  0.74958511  0.62377218  1
  V  V9  1  0.87413217  0.50172669  0.87184732  1
  V  V10  1  0.12463924  0.24563702  0.37958573  1
  V  V11  1  0.37173135  0.11866086  0.25130951  1
  V  V12  1  0.75005181  0.25178852  -0.00011658  1
  V  V13  1  0.25059979  0.49880986  0.74865951  1
  V  V14  1  0.24844242  0.50007852  0.25044522  1
  V  V15  1  -0.00193913  0.62602144  0.12557909  1
  V  V16  1  0.50062340  -0.00177919  0.50035284  1
  V  V17  1  0.00152674  0.24747288  0.75039877  1
  V  V18  1  -0.00127435  0.12637825  0.12648807  1
  V  V19  1  -0.00079447  0.87590177  0.37643154  1
  V  V20  1  0.50070805  0.37408450  0.37535566  1
  V  V21  1  0.62387150  0.00087383  0.12367159  1
  V  V22  1  0.62298009  0.74886044  0.37908438  1
  V  V23  1  0.37654470  0.62368554  0.74962927  1
  V  V24  1  0.62091318  0.50604828  0.12452939  1
  V  V25  1  0.87309398  0.87224890  0.00096627  1
  V  V26  1  0.62800504  0.87145756  0.75535474  1
  V  V27  1  0.87497970  0.00105017  0.87537086  1
  V  V28  1  0.49155197  0.00089633  -0.00597879  1
  V  V29  1  0.75184770  0.00217996  0.25234290  1
  V  V30  1  0.74973462  0.12641441  0.87546120  1
  V  V31  1  0.37714591  0.74858565  0.62411427  1
  V  V32  1  0.24899286  0.62431719  0.37629032  1
  V  V33  1  0.25046565  0.11941040  0.37354728  1
  V  V34  1  0.62439880  0.37444519  0.25094483  1
  V  V35  1  0.74765222  0.74952413  0.50008436  1
  V  V36  1  0.24924006  0.62603182  0.87466238  1
  V  V37  1  0.37505816  0.49862773  0.87521403  1
  V  V38  1  0.87472804  0.25136529  0.12588189  1
  V  V39  1  0.12772510  0.87897016  0.25179957  1
  V  V40  1  0.37584272  0.87511809  0.49970490  1
  V  V41  1  0.25128874  0.87474547  0.12602460  1
  V  V42  1  0.62510943  0.12658504  -0.00102895  1
  V  V43  1  0.87400560  0.50115596  0.37465185  1
  V  V44  1  0.25092692  0.87491827  0.62647603  1
  V  V45  1  0.25028082  0.24988881  0.00220370  1
  V  V46  1  0.50609501  0.74861910  0.75581944  1
  V  V47  1  0.74972847  0.50158120  0.25030639  1
  V  V48  1  0.12536637  0.12523259  0.00158397  1
  V  V49  1  0.37559260  0.62747250  0.24648628  1
  V  V50  1  0.87588482  0.37283235  0.49961982  1
  V  V51  1  0.12426914  0.37465601  0.25100713  1
  V  V52  1  0.50075314  0.50058115  0.49974368  1
  V  V53  1  0.50665522  0.62535420  0.61807956  1
  V  V54  1  0.37455173  0.25027865  0.12682976  1
  V  V55  1  0.12543062  0.62682529  -0.00150677  1
  V  V56  1  0.25620079  -0.00220015  0.75650213  1
  V  V57  1  0.74571760  0.62569723  0.37901761  1
  V  V58  1  -0.00120874  0.50109812  0.00083870  1
  V  V59  1  0.49545331  0.87810801  0.87443869  1
  V  V60  1  0.00455682  0.00653186  0.50197901  1
  V  V61  1  0.12394248  0.50068441  0.12546419  1
  V  V62  1  0.00074418  0.50013895  0.49888603  1
  V  V63  1  0.12705493  0.24923331  0.87618311  1
  V  V64  1  0.00180160  0.75190252  0.74962419  1
  V  V65  1  0.62654902  0.50052081  0.61916729  1
  V  V66  1  0.50533392  0.11928075  0.62633902  1
  V  V67  1  0.00064541  0.62594103  0.62345002  1
  V  V68  1  0.74555199  0.00118958  0.74651044  1
  V  V69  1  0.12673762  0.49880332  0.62481896  1
  V  V70  1  0.87596432  0.87615613  0.50045821  1
  V  V71  1  -0.00057881  0.25068720  0.25055161  1
  V  V72  1  0.49911743  0.12665660  0.12475109  1
  V  V73  1  0.12678756  0.00550842  0.62410666  1
  V  V74  1  0.87607647  0.62340824  0.74892190  1
  V  V75  1  0.24829221  0.24315078  0.50177552  1
  V  V76  1  0.25002105  0.37438320  0.12570097  1
  V  V77  1  0.87777183  0.12549048  0.74950460  1
  V  V78  1  0.12617533  0.62475156  0.49971246  1
  V  V79  1  0.75121083  0.37317511  0.62463559  1
  V  V80  1  0.24987050  0.74883135  0.50092477  1
  V  V81  1  -0.00053261  0.00046686  0.00063524  1
  V  V82  1  0.74505642  0.87922164  0.62485047  1
  V  V83  1  0.00064491  0.87462166  0.87407709  1
  V  V84  1  0.37440012  0.49825016  0.37516463  1
  V  V85  1  0.49970103  0.37577364  0.87401922  1
  V  V86  1  0.74895306  0.87163956  0.12330003  1
  V  V87  1  0.62122146  0.87488940  0.25119735  1
  V  V88  1  0.12870311  0.00091329  0.13028717  1
  V  V89  1  -0.00341864  0.75139210  0.24888316  1
  V  V90  1  0.12739919  0.37413922  0.75001180  1
  V  V91  1  0.87331516  0.37652286  -0.00047711  1
  V  V92  1  0.74852137  0.37764869  0.12303343  1
  Zn  Zn93  1  0.75287389  0.24480356  0.50072265  1
  Zn  Zn94  1  0.12690109  0.87464156  0.75256698  1
  Zn  Zn95  1  0.37547190  0.37545515  0.00167906  1
  Zn  Zn96  1  0.49692355  0.74984090  0.24979394  1
  Zn  Zn97  1  0.49891053  0.63131766  0.11884871  1
  Zn  Zn98  1  0.62781550  0.25624770  0.87517905  1
  Zn  Zn99  1  0.37003953  -0.00384187  0.37256019  1
  Zn  Zn100  1  0.74171774  0.63562227  0.87006354  1
  Zn  Zn101  1  0.37516920  0.75248542  0.12121307  1
  Zn  Zn102  1  0.75024086  0.50147014  0.74557551  1
  Zn  Zn103  1  0.87121917  0.74587042  0.12138202  1
  Zn  Zn104  1  0.87806506  0.24750443  0.62434832  1
  Zn  Zn105  1  0.87327867  0.62661335  0.24859022  1
  Zn  Zn106  1  0.12606410  0.75155083  0.87458893  1
  Zn  Zn107  1  0.61948777  0.63484794  -0.01305872  1
  Zn  Zn108  1  0.25163072  0.37255418  0.62527373  1
  Zn  Zn109  1  0.00401567  0.12763804  0.62242167  1
  Zn  Zn110  1  0.87606307  0.00352015  0.37683206  1
  Zn  Zn111  1  0.75122518  0.12354183  0.37645893  1
  Zn  Zn112  1  0.49623013  0.50202745  0.00342407  1
  Zn  Zn113  1  0.36974812  0.87612827  -0.00723615  1
  Zn  Zn114  1  0.00039541  0.37479755  0.37510188  1
  Zn  Zn115  1  0.73267400  0.75561391  -0.01864784  1
  Zn  Zn116  1  0.12375504  0.74974603  0.37588161  1
  Zn  Zn117  1  0.62766321  0.37311434  0.74791284  1
  Zn  Zn118  1  0.49649930  0.87456320  0.37476861  1
  Zn  Zn119  1  0.49966861  0.24874758  0.24979961  1
  Zn  Zn120  1  0.25109265  0.75171308  -0.00225782  1
  Zn  Zn121  1  0.87366339  0.12625963  0.25259408  1
  Zn  Zn122  1  0.18770053  0.18756879  0.19154401  1
  Zn  Zn123  1  0.18993217  0.18507373  0.68986641  1
  Zn  Zn124  1  0.18593744  0.69041679  0.18689779  1
  Zn  Zn125  1  0.18701723  0.68746980  0.68852476  1
  Zn  Zn126  1  0.68640739  0.18863165  0.18665634  1
  Zn  Zn127  1  0.68852055  0.18996585  0.68769151  1
  Zn  Zn128  1  0.68560076  0.68809643  0.19004841  1
  Zn  Zn129  1  0.68993161  0.68685868  0.68820889  1
  Zn  Zn130  1  0.31237699  0.30869622  0.31195904  1
  Zn  Zn131  1  0.31476459  0.30936906  0.81222668  1
  Zn  Zn132  1  0.30991930  0.81151936  0.31433751  1
  Zn  Zn133  1  0.31556761  0.80923184  0.81149443  1
  Zn  Zn134  1  0.81066297  0.31365876  0.31240102  1
  Zn  Zn135  1  0.81449996  0.31346876  0.81178660  1
  Zn  Zn136  1  0.81211747  0.81539188  0.31369805  1
  Zn  Zn137  1  0.81733143  0.81192720  0.81100115  1
  Zn  Zn138  1  0.18878342  0.43322905  0.43820636  1
  Zn  Zn139  1  0.18891906  0.43892871  0.93834585  1
  Zn  Zn140  1  0.18548763  0.93602406  0.44047386  1
  Zn  Zn141  1  0.18527273  0.93742826  0.93935616  1
  Zn  Zn142  1  0.68809087  0.43686706  0.43926028  1
  Zn  Zn143  1  0.66965851  0.46899005  0.92011445  1
  Zn  Zn144  1  0.68640786  0.93706141  0.43719328  1
  Zn  Zn145  1  0.68343463  0.93889007  0.93564361  1
  Zn  Zn146  1  0.31154586  0.06214518  0.06557850  1
  Zn  Zn147  1  0.31538175  0.06146458  0.56490102  1
  Zn  Zn148  1  0.31134387  0.56199250  0.06074255  1
  Zn  Zn149  1  0.31478365  0.56165684  0.56335003  1
  Zn  Zn150  1  0.81204780  0.06275158  0.06415000  1
  Zn  Zn151  1  0.81693937  0.06226496  0.56370703  1
  Zn  Zn152  1  0.80663670  0.56901554  0.05842821  1
  Zn  Zn153  1  0.81286713  0.56241471  0.55976630  1
  Zn  Zn154  1  0.43779108  0.43770162  0.18956438  1
  Zn  Zn155  1  0.43833305  0.43535934  0.68732190  1
  Zn  Zn156  1  0.43789396  0.94091618  0.18499516  1
  Zn  Zn157  1  0.43845593  0.93619690  0.68639851  1
  Zn  Zn158  1  0.93649105  0.43759791  0.18902475  1
  Zn  Zn159  1  0.94085856  0.43564327  0.68623992  1
  Zn  Zn160  1  0.93699707  0.93780621  0.18703525  1
  Zn  Zn161  1  0.93659621  0.93827055  0.68670099  1
  Zn  Zn162  1  0.06107269  0.06436823  0.31463253  1
  Zn  Zn163  1  0.06687799  0.06083031  0.81195872  1
  Zn  Zn164  1  0.06083078  0.56355692  0.31319983  1
  Zn  Zn165  1  0.06248725  0.56301883  0.81153791  1
  Zn  Zn166  1  0.55990491  0.06222336  0.31393948  1
  Zn  Zn167  1  0.56613167  0.06115023  0.81386328  1
  Zn  Zn168  1  0.56149905  0.56297933  0.31124690  1
  Zn  Zn169  1  0.56179008  0.55887193  0.80476487  1
  Zn  Zn170  1  0.43763993  0.18568134  0.43729359  1
  Zn  Zn171  1  0.43711071  0.19020180  0.93801665  1
  Zn  Zn172  1  0.43706128  0.68752843  0.43465794  1
  Zn  Zn173  1  0.43648086  0.68819523  0.94182379  1
  Zn  Zn174  1  0.93633317  0.18593399  0.43449891  1
  Zn  Zn175  1  0.93721871  0.18815883  0.93769466  1
  Zn  Zn176  1  0.93553603  0.68795940  0.43566882  1
  Zn  Zn177  1  0.93604853  0.68824524  0.93578135  1
  Zn  Zn178  1  0.06213102  0.31354533  0.06321227  1
  Zn  Zn179  1  0.06335091  0.31195856  0.56356475  1
  Zn  Zn180  1  0.06310436  0.81127786  0.06213680  1
  Zn  Zn181  1  0.06506050  0.81584802  0.56419435  1
  Zn  Zn182  1  0.56253889  0.31548337  0.06113761  1
  Zn  Zn183  1  0.56359721  0.30960079  0.56167124  1
  Zn  Zn184  1  0.55673550  0.80946614  0.06254811  1
  Zn  Zn185  1  0.56458066  0.81363516  0.56492949  1
  O  O186  1  0.12037678  0.11884118  0.12252836  1
  O  O187  1  0.12529737  0.10980817  0.63047753  1
  O  O188  1  0.11910485  0.61902211  0.11997837  1
  O  O189  1  0.12018895  0.61845952  0.61911737  1
  O  O190  1  0.61895415  0.12082366  0.11872931  1
  O  O191  1  0.61510627  0.13135522  0.61555517  1
  O  O192  1  0.62155871  0.61328047  0.13345377  1
  O  O193  1  0.61480351  0.61684940  0.62842001  1
  O  O194  1  0.38031418  0.37860331  0.37917849  1
  O  O195  1  0.38258975  0.37981065  0.87477441  1
  O  O196  1  0.37575829  0.87714590  0.38234118  1
  O  O197  1  0.39162968  0.87453600  0.87070072  1
  O  O198  1  0.87397608  0.38105087  0.38518090  1
  O  O199  1  0.88454248  0.38060970  0.87958879  1
  O  O200  1  0.88110807  0.87827777  0.38287817  1
  O  O201  1  0.88027364  0.88271486  0.88320951  1
  O  O202  1  0.24906868  0.01592242  0.38619668  1
  O  O203  1  0.24412270  0.00517771  0.86449917  1
  O  O204  1  0.25482568  0.50353908  0.37043934  1
  O  O205  1  0.25558048  0.50475630  0.86773441  1
  O  O206  1  0.74997765  -0.00067650  0.36337064  1
  O  O207  1  0.75516218  0.00533460  0.86675454  1
  O  O208  1  0.75180909  0.50822842  0.37185374  1
  O  O209  1  0.77101893  0.48959734  0.86761003  1
  O  O210  1  0.24277272  0.49433755  0.13105997  1
  O  O211  1  0.24507602  0.49784446  0.63083912  1
  O  O212  1  0.23484750  0.99363750  0.12225017  1
  O  O213  1  0.24525320  0.99547991  0.63224503  1
  O  O214  1  0.74236774  0.49667236  0.13136744  1
  O  O215  1  0.74306465  0.49222275  0.62032435  1
  O  O216  1  0.74400710  0.99135220  0.13153636  1
  O  O217  1  0.75815667  0.98948432  0.63548808  1
  O  O218  1  0.00626603  0.36887032  0.25230602  1
  O  O219  1  0.00802540  0.36846670  0.75579519  1
  O  O220  1  0.00651228  0.86968122  0.25417876  1
  O  O221  1  -0.00147537  0.86997071  0.75670143  1
  O  O222  1  0.50629189  0.37231796  0.25868498  1
  O  O223  1  0.49951854  0.36643640  0.75713767  1
  O  O224  1  0.51225501  0.87928336  0.25136269  1
  O  O225  1  0.50869728  0.86981180  0.75284292  1
  O  O226  1  0.49237719  0.12666997  0.24321674  1
  O  O227  1  0.49902693  0.12611938  0.74370677  1
  O  O228  1  0.48449587  0.62411171  0.25137275  1
  O  O229  1  0.49725872  0.63178961  0.74093067  1
  O  O230  1  0.99836615  0.13283316  0.24344489  1
  O  O231  1  0.99503660  0.13000496  0.75272948  1
  O  O232  1  0.99901268  0.63533316  0.24511481  1
  O  O233  1  0.99618833  0.63058127  0.74173616  1
  O  O234  1  0.36684122  0.25084373  0.00897235  1
  O  O235  1  0.36941713  0.25304705  0.50503281  1
  O  O236  1  0.36987470  0.75802632  0.00290796  1
  O  O237  1  0.37023124  0.75437528  0.50520661  1
  O  O238  1  0.87072228  0.25634088  0.00601560  1
  O  O239  1  0.87504081  0.26101624  0.50063244  1
  O  O240  1  0.87479831  0.76588900  0.00076565  1
  O  O241  1  0.86834801  0.75644296  0.50502060  1
  O  O242  1  0.13523346  0.25531126  0.49074461  1
  O  O243  1  0.13009000  0.24432505  0.99635743  1
  O  O244  1  0.13181135  0.74275805  0.50120795  1
  O  O245  1  0.12652341  0.74116937  0.99675786  1
  O  O246  1  0.62561719  0.23875755  0.49196442  1
  O  O247  1  0.63228038  0.24433369  0.99884499  1
  O  O248  1  0.63169258  0.75906201  0.48742241  1
  O  O249  1  0.62193138  0.74875866  0.99897382  1
  O  O250  1  0.49345989  0.24396033  0.12458182  1
  O  O251  1  0.49624483  0.23925183  0.62962396  1
  O  O252  1  0.49208537  0.74880390  0.13396627  1
  O  O253  1  0.49748795  0.74250630  0.63046762  1
  O  O254  1  0.99496791  0.24619218  0.13025747  1
  O  O255  1  1.00083780  0.24654598  0.63390364  1
  O  O256  1  0.99784154  0.74587969  0.13373073  1
  O  O257  1  0.99447727  0.74560888  0.62804858  1
  O  O258  1  0.01007096  0.25067083  0.37085901  1
  O  O259  1  0.00790879  0.25508909  0.87183183  1
  O  O260  1  0.00107348  0.75625888  0.36644352  1
  O  O261  1  -0.00120350  0.75709887  0.86688269  1
  O  O262  1  0.51109820  0.25465610  0.37609126  1
  O  O263  1  0.50155067  0.25943809  0.86982482  1
  O  O264  1  0.50976841  0.75249396  0.37228072  1
  O  O265  1  0.49690239  0.75647854  0.85968369  1
  O  O266  1  0.25923834  0.13752588  0.49261355  1
  O  O267  1  0.24445808  0.12935916  0.99734902  1
  O  O268  1  0.24626346  0.62869761  0.49643455  1
  O  O269  1  0.24228925  0.62420112  0.99221575  1
  O  O270  1  0.73959873  0.12293548  0.50102043  1
  O  O271  1  0.74570018  0.13040255  0.99570069  1
  O  O272  1  0.75398931  0.63215956  0.48705155  1
  O  O273  1  0.74334023  0.63414589  0.99324999  1
  O  O274  1  0.24955848  0.36786251  0.00784996  1
  O  O275  1  0.25775264  0.36174313  0.50102159  1
  O  O276  1  0.25045551  0.87659636  0.01095206  1
  O  O277  1  0.25572989  0.86865417  0.50662037  1
  O  O278  1  0.75710331  0.36964420  0.00629154  1
  O  O279  1  0.76039186  0.37436050  0.50752836  1
  O  O280  1  0.75604170  0.87930219  0.00768058  1
  O  O281  1  0.75379022  0.87243674  0.50841914  1
  O  O282  1  0.12894409  0.49528363  0.24540379  1
  O  O283  1  0.13046405  0.49427814  0.74451000  1
  O  O284  1  0.11531419  0.99059620  0.24055694  1
  O  O285  1  0.13776477  0.99678279  0.74305301  1
  O  O286  1  0.63037351  0.49383527  0.24572110  1
  O  O287  1  0.62694885  0.49304711  0.72957155  1
  O  O288  1  0.63071871  0.99307154  0.24575151  1
  O  O289  1  0.63918058  0.99122968  0.75243333  1
  O  O290  1  0.37913309  0.01436008  0.25256096  1
  O  O291  1  0.36407748  0.00537440  0.74280702  1
  O  O292  1  0.36711975  0.50609678  0.25649131  1
  O  O293  1  0.37025381  0.50459606  0.75394020  1
  O  O294  1  0.86336164  -0.00032210  0.25026909  1
  O  O295  1  0.86590210  0.00439232  0.75627418  1
  O  O296  1  0.86709748  0.49994414  0.25747113  1
  O  O297  1  0.88147478  0.50554850  0.75649153  1
  O  O298  1  0.12531211  0.36337034  0.36936433  1
  O  O299  1  0.12109710  0.36953857  0.87070021  1
  O  O300  1  0.11942950  0.87418526  0.36660435  1
  O  O301  1  0.11487479  0.87363149  0.87400425  1
  O  O302  1  0.62086663  0.36731467  0.37230823  1
  O  O303  1  0.61283699  0.37954628  0.86981531  1
  O  O304  1  0.62479132  0.86695203  0.36614819  1
  O  O305  1  0.61560671  0.87766216  0.86157343  1
  O  O306  1  0.37797778  0.12971257  0.13316561  1
  O  O307  1  0.38635586  0.12894609  0.63227240  1
  O  O308  1  0.37128744  0.62383151  0.13754918  1
  O  O309  1  0.38561522  0.62828335  0.63047453  1
  O  O310  1  0.88105113  0.13296347  0.12623290  1
  O  O311  1  0.87998565  0.12725972  0.63449142  1
  O  O312  1  0.88155573  0.62737797  0.12774168  1
  O  O313  1  0.88161977  0.62972219  0.62709802  1
  O  O314  1  0.25355286  0.25472515  0.12156175  1
  O  O315  1  0.25650762  0.24753359  0.61741454  1
  O  O316  1  0.24847068  0.76316446  0.12280524  1
  O  O317  1  0.25753027  0.75364591  0.62124440  1
  O  O318  1  0.75486108  0.25686771  0.12017452  1
  O  O319  1  0.75403442  0.26069595  0.62137892  1
  O  O320  1  0.75097554  0.76625469  0.13077926  1
  O  O321  1  0.75498697  0.75785466  0.61992590  1
  O  O322  1  0.24400628  0.24241641  0.38277763  1
  O  O323  1  0.24520990  0.24348276  0.88180872  1
  O  O324  1  0.24630738  0.74221537  0.38388845  1
  O  O325  1  0.24783722  0.74118735  0.87373237  1
  O  O326  1  0.73689783  0.24883824  0.37759361  1
  O  O327  1  0.75074829  0.24475444  0.88153426  1
  O  O328  1  0.74325225  0.74498727  0.37899871  1
  O  O329  1  0.75012424  0.74901788  0.86915709  1
  O  O330  1  0.00571810  0.12069412  0.00606078  1
  O  O331  1  -0.00429699  0.11006611  0.50133039  1
  O  O332  1  0.00405261  0.62001756  0.00556761  1
  O  O333  1  0.00514145  0.62039029  0.50440474  1
  O  O334  1  0.50430885  0.11900092  0.00345003  1
  O  O335  1  0.50570838  0.11768148  0.50770465  1
  O  O336  1  0.50317108  0.61844029  0.00154148  1
  O  O337  1  0.49266361  0.61874181  0.51143653  1
  O  O338  1  0.49447849  0.37915486  0.49470508  1
  O  O339  1  0.49671208  0.37795368  0.98731041  1
  O  O340  1  0.49599089  0.88393381  0.50341206  1
  O  O341  1  0.49972007  0.88525165  0.99013953  1
  O  O342  1  0.99124350  0.38097487  0.49979707  1
  O  O343  1  0.99451689  0.38104128  0.99573714  1
  O  O344  1  0.99531959  0.88139393  0.49607422  1
  O  O345  1  0.99165093  0.88117745  0.99679304  1
  O  O346  1  0.49496750  0.49455327  0.38055219  1
  O  O347  1  0.49014949  0.48916339  0.86956284  1
  O  O348  1  0.49614296  0.99834660  0.38884545  1
  O  O349  1  0.50600004  0.99222315  0.88390615  1
  O  O350  1  0.99340003  0.49827529  0.38140669  1
  O  O351  1  0.99407695  0.49405469  0.88039721  1
  O  O352  1  1.00179763  0.99398139  0.38504480  1
  O  O353  1  0.99510968  0.99602898  0.88120236  1
  O  O354  1  0.00761415  0.00541475  0.12018911  1
  O  O355  1  0.00924956  -0.00067064  0.61954452  1
  O  O356  1  0.00451223  0.50526671  0.12083163  1
  O  O357  1  0.00679213  0.50599715  0.61837794  1
  O  O358  1  0.50576965  0.00639090  0.11510879  1
  O  O359  1  0.49674078  0.01050779  0.61599374  1
  O  O360  1  0.50859120  0.50212558  0.12763973  1
  O  O361  1  0.50594153  0.50622510  0.62007212  1
  O  O362  1  0.24425337  0.37996689  0.24572904  1
  O  O363  1  0.24474151  0.37970508  0.74919400  1
  O  O364  1  0.23407409  0.86931912  0.24438984  1
  O  O365  1  0.25357773  0.88284870  0.74495392  1
  O  O366  1  0.74389471  0.38153284  0.24379633  1
  O  O367  1  0.75275896  0.37820505  0.73571510  1
  O  O368  1  0.74169950  0.88297536  0.24346568  1
  O  O369  1  0.74606808  0.88158184  0.74383146  1
  O  O370  1  0.25980004  0.13081152  0.26114661  1
  O  O371  1  0.25730737  0.11640455  0.75664981  1
  O  O372  1  0.25392073  0.61952107  0.25584009  1
  O  O373  1  0.25671407  0.61873505  0.75349823  1
  O  O374  1  0.74823663  0.11244823  0.24826339  1
  O  O375  1  0.75497088  0.11802759  0.75364120  1
  O  O376  1  0.75237526  0.62102795  0.26141244  1
  O  O377  1  0.76127201  0.61958130  0.74797149  1
  O  O378  1  0.36789887  0.12489333  0.36764180  1
  O  O379  1  0.36798107  0.13056259  0.86774514  1
  O  O380  1  0.36818708  0.61777172  0.36870742  1
  O  O381  1  0.37035982  0.61816040  0.86723757  1
  O  O382  1  0.86856895  0.12131913  0.37021737  1
  O  O383  1  0.86918628  0.11970321  0.87083601  1
  O  O384  1  0.86450000  0.61984918  0.37255631  1
  O  O385  1  0.87898882  0.61372976  0.86735838  1
  O  O386  1  0.12972028  0.38094012  0.13099249  1
  O  O387  1  0.12805390  0.38141586  0.63191921  1
  O  O388  1  0.12904607  0.88307057  0.13171784  1
  O  O389  1  0.13397693  0.88419595  0.62929529  1
  O  O390  1  0.62938401  0.38175342  0.13255587  1
  O  O391  1  0.63526493  0.37988003  0.62165018  1
  O  O392  1  0.63132465  0.88124120  0.13318096  1
  O  O393  1  0.63838930  0.87207358  0.63551922  1
  O  O394  1  0.11968121  0.25601460  0.25784379  1
  O  O395  1  0.12295963  0.25371090  0.75740484  1
  O  O396  1  0.11226879  0.75998606  0.25059461  1
  O  O397  1  0.11638828  0.75295586  0.75084057  1
  O  O398  1  0.62367447  0.25499477  0.25962053  1
  O  O399  1  0.61824703  0.25271331  0.75375801  1
  O  O400  1  0.62518981  0.76126224  0.25978339  1
  O  O401  1  0.61556122  0.75865006  0.74259082  1
  O  O402  1  0.37763724  0.23973373  0.24461384  1
  O  O403  1  0.38217415  0.24085258  0.74431885  1
  O  O404  1  0.37210589  0.73787179  0.25079930  1
  O  O405  1  0.38632741  0.74388889  0.74218287  1
  O  O406  1  0.88069025  0.25184600  0.24334370  1
  O  O407  1  0.88404281  0.24344268  0.75071823  1
  O  O408  1  0.88660924  0.75318768  0.24754332  1
  O  O409  1  0.88314807  0.74381322  0.74139966  1
  O  O410  1  0.37987991  0.49261717  0.49435433  1
  O  O411  1  0.37428024  0.49591696  0.98972287  1
  O  O412  1  0.38417158  0.99323428  0.50057916  1
  O  O413  1  0.38819033  0.99858453  1.00596747  1
  O  O414  1  0.88073612  0.49232366  0.49452309  1
  O  O415  1  0.88043184  0.49626055  0.99166752  1
  O  O416  1  0.88585455  0.99209003  0.50153074  1
  O  O417  1  0.87941912  0.99277896  0.99582067  1
  O  O418  1  0.11829253  0.00622665  0.01004635  1
  O  O419  1  0.11553449  -0.00754319  0.51227722  1
  O  O420  1  0.11828159  0.50523143  0.00607914  1
  O  O421  1  0.12141354  0.50382905  0.50453740  1
  O  O422  1  0.61704558  0.00690139  0.00483482  1
  O  O423  1  0.61556062  0.01005437  0.49537800  1
  O  O424  1  0.62203366  0.49603657  0.02034048  1
  O  O425  1  0.61689752  0.49465135  0.51058241  1
  O  O426  1  0.36750151  0.36892134  0.12674763  1
  O  O427  1  0.37533839  0.36584410  0.61845641  1
  O  O428  1  0.35844452  0.87948513  0.13052799  1
  O  O429  1  0.37108417  0.86760458  0.61959056  1
  O  O430  1  0.86932510  0.37162378  0.11904638  1
  O  O431  1  0.86898073  0.37631312  0.61504449  1
  O  O432  1  0.86577967  0.87751492  0.11561712  1
  O  O433  1  0.86520450  0.86864616  0.62124958  1
  O  O434  1  0.13457865  0.13809881  0.36733547  1
  O  O435  1  0.13280736  0.12994123  0.88249105  1
  O  O436  1  0.13141547  0.62543469  0.38229039  1
  O  O437  1  0.13095436  0.62421646  0.88084352  1
  O  O438  1  0.62437824  0.13227660  0.38410326  1
  O  O439  1  0.63320089  0.12718453  0.88171422  1
  O  O440  1  0.63421450  0.63674143  0.36781982  1
  O  O441  1  0.63939001  0.58035708  0.88150345  1
