# generated using pymatgen
data_V93Zn93O256
_symmetry_space_group_name_H-M   'P 1'
_cell_length_a   17.05619876
_cell_length_b   17.05725979
_cell_length_c   17.05771173
_cell_angle_alpha   89.99073135
_cell_angle_beta   90.01253934
_cell_angle_gamma   90.13700824
_symmetry_Int_Tables_number   1
_chemical_formula_structural   V93Zn93O256
_chemical_formula_sum   'V93 Zn93 O256'
_cell_volume   4962.62004715
_cell_formula_units_Z   1
loop_
 _symmetry_equiv_pos_site_id
 _symmetry_equiv_pos_as_xyz
  1  'x, y, z'
loop_
 _atom_site_type_symbol
 _atom_site_label
 _atom_site_symmetry_multiplicity
 _atom_site_fract_x
 _atom_site_fract_y
 _atom_site_fract_z
 _atom_site_occupancy
  V  V0  1  0.87411394  0.24734375  0.62848035  1
  V  V1  1  0.49915239  0.50088875  -0.00267316  1
  V  V2  1  -0.00022187  0.62695247  0.12587936  1
  V  V3  1  0.62948282  0.49958765  0.62825587  1
  V  V4  1  0.25205927  0.62391104  0.87469075  1
  V  V5  1  0.62647900  0.62450113  0.50027214  1
  V  V6  1  0.62335472  0.24967172  0.87529192  1
  V  V7  1  0.37702194  0.75952392  0.12062081  1
  V  V8  1  0.62632577  0.25100260  0.37348930  1
  V  V9  1  0.74923838  0.24973409  0.00020629  1
  V  V10  1  -0.00097191  0.87529592  0.87499679  1
  V  V11  1  0.00076887  0.00108734  0.50074213  1
  V  V12  1  0.75030912  0.24894164  0.50044798  1
  V  V13  1  0.13417412  0.24874108  0.38199444  1
  V  V14  1  0.37556256  0.00072196  0.37539107  1
  V  V15  1  -0.00137652  0.37472247  0.87483365  1
  V  V16  1  0.87050931  0.61892979  0.74836115  1
  V  V17  1  0.49958955  0.12602833  0.12272591  1
  V  V18  1  0.74898175  0.37499978  0.62642041  1
  V  V19  1  0.62559008  0.74968344  0.37439779  1
  V  V20  1  0.49790375  0.62603930  0.62688140  1
  V  V21  1  -0.00045880  0.62405895  0.62550516  1
  V  V22  1  0.49534155  0.25098520  0.74277927  1
  V  V23  1  0.12429339  0.75145841  0.37338243  1
  V  V24  1  0.75149470  0.75040511  0.49918520  1
  V  V25  1  0.12556740  0.49873735  0.62585183  1
  V  V26  1  0.37628470  0.87209107  0.50138936  1
  V  V27  1  0.00078347  0.49913278  0.49974797  1
  V  V28  1  0.74639654  0.87439902  0.63305149  1
  V  V29  1  0.25716615  0.36995969  0.62161749  1
  V  V30  1  0.87595237  0.87551027  0.49941480  1
  V  V31  1  0.49976654  0.49929073  0.49901865  1
  V  V32  1  0.50286595  -0.00140983  0.50057626  1
  V  V33  1  0.87396057  0.00271465  0.86783564  1
  V  V34  1  0.12491284  0.00032988  0.12560487  1
  V  V35  1  0.12554882  0.50125155  0.12635459  1
  V  V36  1  0.12592453  0.62434459  0.50039146  1
  V  V37  1  0.12463814  0.62669915  0.00083263  1
  V  V38  1  0.63139806  0.63110122  -0.00197041  1
  V  V39  1  -0.00098547  0.50059012  0.00036621  1
  V  V40  1  0.62975161  0.75467354  0.86977101  1
  V  V41  1  0.50120587  0.62704128  0.12360963  1
  V  V42  1  0.12254722  -0.00162159  0.62625628  1
  V  V43  1  0.87602309  -0.00015146  0.37605446  1
  V  V44  1  0.75031057  0.50022418  0.24923164  1
  V  V45  1  -0.00016845  0.24979265  0.25143141  1
  V  V46  1  0.24779055  0.25182812  -0.00012682  1
  V  V47  1  0.87326464  0.37472111  -0.00046693  1
  V  V48  1  0.24895916  0.12730843  0.87505201  1
  V  V49  1  0.87527475  0.74849599  0.62479800  1
  V  V50  1  0.37450083  0.25105792  0.12458431  1
  V  V51  1  -0.00583597  0.12434665  0.62979850  1
  V  V52  1  0.24945515  0.00263493  0.25312308  1
  V  V53  1  0.75214137  0.12453569  0.86822791  1
  V  V54  1  0.37314388  0.12997234  0.74504144  1
  V  V55  1  0.87516777  0.12575741  0.24911590  1
  V  V56  1  0.87241352  0.75075010  0.11851698  1
  V  V57  1  -0.00222802  0.00049064  0.00102658  1
  V  V58  1  0.62624872  0.37584084  0.24918597  1
  V  V59  1  0.62095410  0.11786707  -0.00030160  1
  V  V60  1  0.50247980  0.87389403  0.37609613  1
  V  V61  1  0.87586741  0.49982953  0.37479201  1
  V  V62  1  0.25107341  0.50102202  0.24912591  1
  V  V63  1  0.37892964  -0.00689160  0.87827454  1
  V  V64  1  0.62568365  0.12328011  0.50123570  1
  V  V65  1  0.12466822  0.37650028  0.75001118  1
  V  V66  1  0.62627682  0.50069731  0.12426616  1
  V  V67  1  0.00037957  0.37332638  0.37539835  1
  V  V68  1  0.50556768  0.75740586  0.75003784  1
  V  V69  1  0.87676854  0.62608453  0.24915092  1
  V  V70  1  0.12327682  0.25040642  0.87635303  1
  V  V71  1  0.12402923  0.87422818  0.75077967  1
  V  V72  1  0.62812037  0.37792242  0.75002516  1
  V  V73  1  0.75081307  0.62368510  0.87371652  1
  V  V74  1  0.25404365  0.75859271  0.00097010  1
  V  V75  1  -0.00568849  0.24788975  0.75081343  1
  V  V76  1  0.37562853  0.62584930  0.24949637  1
  V  V77  1  0.24955531  0.37667302  0.12420598  1
  V  V78  1  0.75044188  0.12445625  0.37523709  1
  V  V79  1  0.49927106  0.37615544  0.87514506  1
  V  V80  1  0.50058312  0.75042805  0.25056996  1
  V  V81  1  0.87244592  0.49983530  0.87229775  1
  V  V82  1  0.37621970  0.49919159  0.37384557  1
  V  V83  1  0.75090596  0.87191357  0.12043058  1
  V  V84  1  0.24848185  -0.00137488  0.75128396  1
  V  V85  1  0.25200685  0.74910298  0.50140549  1
  V  V86  1  0.87474441  0.37396461  0.50072968  1
  V  V87  1  0.87523410  0.25000535  0.12473929  1
  V  V88  1  0.62402228  -0.00277860  0.63331269  1
  V  V89  1  0.50191456  0.37591106  0.37382570  1
  V  V90  1  0.74852613  -0.00103609  0.24778866  1
  V  V91  1  0.75150312  0.62533376  0.37494851  1
  V  V92  1  0.12433013  0.75131021  0.87617887  1
  Zn  Zn93  1  0.00020217  0.12596787  0.12504598  1
  Zn  Zn94  1  0.12331549  0.12635007  0.00054352  1
  Zn  Zn95  1  0.37519829  0.36797589  0.49809612  1
  Zn  Zn96  1  0.00125986  0.75456129  0.24899546  1
  Zn  Zn97  1  0.86979138  0.87141988  -0.00365818  1
  Zn  Zn98  1  0.12532112  0.37456356  0.25077717  1
  Zn  Zn99  1  0.12436190  0.87605693  0.25068631  1
  Zn  Zn100  1  0.37648726  0.12674303  0.25243220  1
  Zn  Zn101  1  0.13202053  0.12703410  0.50593885  1
  Zn  Zn102  1  0.62663431  0.87387862  0.24945784  1
  Zn  Zn103  1  0.50934720  0.87732320  0.87529487  1
  Zn  Zn104  1  0.74980157  0.37540116  0.12377814  1
  Zn  Zn105  1  0.49420220  0.12731905  0.62073862  1
  Zn  Zn106  1  0.37412686  0.37677320  -0.00223749  1
  Zn  Zn107  1  0.25098033  0.62303920  0.37492926  1
  Zn  Zn108  1  0.37532208  0.75141142  0.62893096  1
  Zn  Zn109  1  0.62102962  -0.00485971  0.12400249  1
  Zn  Zn110  1  0.50136426  0.25106699  0.24848094  1
  Zn  Zn111  1  0.25382392  0.87983026  0.12365213  1
  Zn  Zn112  1  0.25003744  0.87223553  0.62751261  1
  Zn  Zn113  1  0.00125213  0.87705545  0.37348374  1
  Zn  Zn114  1  0.37586128  0.62596939  0.75327106  1
  Zn  Zn115  1  0.25370223  0.50091892  0.74953175  1
  Zn  Zn116  1  0.25610022  0.12792754  0.38471548  1
  Zn  Zn117  1  0.30912232  0.20880966  0.55832361  1
  Zn  Zn118  1  0.47055113  -0.03242323  0.02348163  1
  Zn  Zn119  1  -0.00021571  0.74872791  0.75097336  1
  Zn  Zn120  1  0.74742050  -0.00139031  0.75164171  1
  Zn  Zn121  1  0.37370886  0.49985650  0.87331493  1
  Zn  Zn122  1  0.18613811  0.18626824  0.19161054  1
  Zn  Zn123  1  0.18005764  0.18637295  0.69279539  1
  Zn  Zn124  1  0.19057656  0.68818525  0.18732371  1
  Zn  Zn125  1  0.18570123  0.68759841  0.68896777  1
  Zn  Zn126  1  0.68763761  0.18741553  0.18570723  1
  Zn  Zn127  1  0.68294420  0.18837979  0.68661111  1
  Zn  Zn128  1  0.68906836  0.68823685  0.18746689  1
  Zn  Zn129  1  0.68913056  0.68673540  0.68889889  1
  Zn  Zn130  1  0.31442513  0.31612409  0.30918440  1
  Zn  Zn131  1  0.31156244  0.31570153  0.81166452  1
  Zn  Zn132  1  0.31157967  0.81526946  0.31223341  1
  Zn  Zn133  1  0.31391028  0.80913007  0.80999398  1
  Zn  Zn134  1  0.81205874  0.31300698  0.31169388  1
  Zn  Zn135  1  0.81123465  0.31091881  0.81295340  1
  Zn  Zn136  1  0.81538449  0.81281170  0.30919234  1
  Zn  Zn137  1  0.81519412  0.80821661  0.81358833  1
  Zn  Zn138  1  0.18930635  0.43534999  0.43809302  1
  Zn  Zn139  1  0.18572647  0.43812393  0.93899073  1
  Zn  Zn140  1  0.18775922  0.93640126  0.43964401  1
  Zn  Zn141  1  0.18682209  0.94007990  0.93647486  1
  Zn  Zn142  1  0.68751829  0.43770216  0.43859037  1
  Zn  Zn143  1  0.68787896  0.44023440  0.93601852  1
  Zn  Zn144  1  0.68865144  0.93623089  0.44024808  1
  Zn  Zn145  1  0.68824088  0.93822174  0.93808383  1
  Zn  Zn146  1  0.30840530  0.06750088  0.06266428  1
  Zn  Zn147  1  0.31030326  0.04771947  0.56260959  1
  Zn  Zn148  1  0.31338769  0.56808914  0.06224317  1
  Zn  Zn149  1  0.31248651  0.55774942  0.56102524  1
  Zn  Zn150  1  0.81233074  0.06252308  0.06013505  1
  Zn  Zn151  1  0.81170387  0.06050528  0.56412943  1
  Zn  Zn152  1  0.81232761  0.56327888  0.06133998  1
  Zn  Zn153  1  0.81240139  0.56091045  0.56173112  1
  Zn  Zn154  1  0.43851620  0.43759501  0.18640948  1
  Zn  Zn155  1  0.43742097  0.44229115  0.69160812  1
  Zn  Zn156  1  0.43775565  0.93818932  0.19593756  1
  Zn  Zn157  1  0.43662381  0.93774278  0.68850314  1
  Zn  Zn158  1  0.93793616  0.43609336  0.18757663  1
  Zn  Zn159  1  0.93787946  0.43595476  0.68752230  1
  Zn  Zn160  1  0.93838360  0.93477210  0.18922311  1
  Zn  Zn161  1  0.93640300  0.93510644  0.68785567  1
  Zn  Zn162  1  0.06344045  0.06609424  0.31386119  1
  Zn  Zn163  1  0.06148578  0.06320127  0.81213924  1
  Zn  Zn164  1  0.06378895  0.56439598  0.31208257  1
  Zn  Zn165  1  0.06181516  0.56284043  0.81171853  1
  Zn  Zn166  1  0.56255900  0.06392212  0.31142951  1
  Zn  Zn167  1  0.55905871  0.06629906  0.81155625  1
  Zn  Zn168  1  0.56275938  0.56317159  0.31132106  1
  Zn  Zn169  1  0.56300195  0.56512093  0.81142210  1
  Zn  Zn170  1  0.44165390  0.18740798  0.43465072  1
  Zn  Zn171  1  0.43534509  0.18661602  0.93576140  1
  Zn  Zn172  1  0.43776176  0.68570893  0.43756835  1
  Zn  Zn173  1  0.44015796  0.69176516  0.93702771  1
  Zn  Zn174  1  0.94075681  0.18582430  0.44006197  1
  Zn  Zn175  1  0.93589521  0.18557491  0.93816253  1
  Zn  Zn176  1  0.93971512  0.68778450  0.43759998  1
  Zn  Zn177  1  0.93732608  0.68719204  0.93757565  1
  Zn  Zn178  1  0.06169000  0.31417173  0.06371967  1
  Zn  Zn179  1  0.06384693  0.31249947  0.56419203  1
  Zn  Zn180  1  0.06235209  0.81511484  0.06275265  1
  Zn  Zn181  1  0.06192148  0.81247029  0.56178967  1
  Zn  Zn182  1  0.56361190  0.31270321  0.06172910  1
  Zn  Zn183  1  0.56019362  0.31210208  0.55956608  1
  Zn  Zn184  1  0.56718397  0.81282559  0.05993020  1
  Zn  Zn185  1  0.56489542  0.81254193  0.56261551  1
  O  O186  1  0.12257561  0.11287476  0.12348433  1
  O  O187  1  0.11376575  0.11780091  0.62604571  1
  O  O188  1  0.12002062  0.62132750  0.11993296  1
  O  O189  1  0.11924518  0.61914539  0.62013762  1
  O  O190  1  0.61654821  0.12472030  0.11616869  1
  O  O191  1  0.62464054  0.11476703  0.61802581  1
  O  O192  1  0.62187345  0.62240097  0.11612063  1
  O  O193  1  0.61987624  0.61720054  0.62096891  1
  O  O194  1  0.38400921  0.38209570  0.37342242  1
  O  O195  1  0.38327619  0.37862009  0.87847278  1
  O  O196  1  0.38288031  0.87988453  0.38129227  1
  O  O197  1  0.37148014  0.89249476  0.86933405  1
  O  O198  1  0.87945575  0.38023714  0.38146042  1
  O  O199  1  0.87895006  0.37999564  0.87941686  1
  O  O200  1  0.87491314  0.88168191  0.38226637  1
  O  O201  1  0.87866418  0.88219229  0.87776191  1
  O  O202  1  0.25590760  0.00071867  0.36914081  1
  O  O203  1  0.25738041  0.00682737  0.86994903  1
  O  O204  1  0.25741389  0.49958292  0.36824946  1
  O  O205  1  0.24907864  0.51254058  0.87735291  1
  O  O206  1  0.75489933  0.00448797  0.36782838  1
  O  O207  1  0.75617208  0.00664657  0.87336928  1
  O  O208  1  0.75611091  0.50593292  0.37078363  1
  O  O209  1  0.75665740  0.51294588  0.87685548  1
  O  O210  1  0.24581599  0.49753982  0.12804437  1
  O  O211  1  0.24262105  0.49083349  0.62732139  1
  O  O212  1  0.24343403  1.00070384  0.13170338  1
  O  O213  1  0.24039738  0.99457035  0.63459618  1
  O  O214  1  0.74395829  0.50005137  0.13094778  1
  O  O215  1  0.73652950  0.49309149  0.61843915  1
  O  O216  1  0.75119958  0.99378311  0.13491665  1
  O  O217  1  0.74332792  0.99218867  0.62844414  1
  O  O218  1  0.00098214  0.36881888  0.25796459  1
  O  O219  1  0.00458077  0.36915092  0.75608735  1
  O  O220  1  0.00548175  0.87249303  0.25592642  1
  O  O221  1  0.00538867  0.87246253  0.75769482  1
  O  O222  1  0.50895403  0.37561503  0.25546837  1
  O  O223  1  0.50752788  0.36873278  0.75410007  1
  O  O224  1  0.50404282  0.86827793  0.25869828  1
  O  O225  1  0.49728617  0.86160318  0.75367341  1
  O  O226  1  0.50073774  0.12838629  0.23564697  1
  O  O227  1  0.48997669  0.13452954  0.74728197  1
  O  O228  1  0.49593215  0.63083169  0.24319418  1
  O  O229  1  0.50192885  0.63241129  0.73936271  1
  O  O230  1  0.99154499  0.13148701  0.24909628  1
  O  O231  1  1.00334605  0.13158103  0.73844562  1
  O  O232  1  0.99348455  0.62593075  0.24270962  1
  O  O233  1  0.99043685  0.62646847  0.74362087  1
  O  O234  1  0.36814187  0.25105838  0.00961798  1
  O  O235  1  0.39162899  0.25664850  0.50556380  1
  O  O236  1  0.36654752  0.74357254  0.01055438  1
  O  O237  1  0.36705479  0.75338365  0.50010127  1
  O  O238  1  0.86963889  0.25530242  0.00424867  1
  O  O239  1  0.86957142  0.25525474  0.50648400  1
  O  O240  1  0.87787026  0.75054130  0.01389679  1
  O  O241  1  0.86984220  0.75372299  0.50501151  1
  O  O242  1  0.12124500  0.25059918  0.48551191  1
  O  O243  1  0.12887624  0.24992283  0.99380721  1
  O  O244  1  0.13311082  0.74490571  0.49422474  1
  O  O245  1  0.13302265  0.74565753  0.99658154  1
  O  O246  1  0.63119165  0.24435604  0.49450591  1
  O  O247  1  0.62921068  0.24182293  0.99412421  1
  O  O248  1  0.63207793  0.74353233  0.49429965  1
  O  O249  1  0.62062890  0.73532783  0.98847540  1
  O  O250  1  0.49146917  0.24436662  0.12431904  1
  O  O251  1  0.50623246  0.24882934  0.63950862  1
  O  O252  1  0.49493177  0.74585315  0.12953389  1
  O  O253  1  0.50452170  0.74108405  0.63165959  1
  O  O254  1  0.99386015  0.24904890  0.13204448  1
  O  O255  1  0.99490452  0.24299998  0.62978402  1
  O  O256  1  0.99262143  0.74453962  0.12600115  1
  O  O257  1  0.99274952  0.74138258  0.62404660  1
  O  O258  1  0.00687205  0.25469637  0.37078177  1
  O  O259  1  0.00206212  0.25525528  0.87132188  1
  O  O260  1  0.01251576  0.75065815  0.37514450  1
  O  O261  1  0.00638229  0.75700835  0.87683745  1
  O  O262  1  0.51023573  0.25702296  0.36991625  1
  O  O263  1  0.50485686  0.25544914  0.86702241  1
  O  O264  1  0.50580647  0.75369463  0.37072031  1
  O  O265  1  0.51170452  0.74653667  0.86476556  1
  O  O266  1  0.25023504  0.12563714  0.50331438  1
  O  O267  1  0.24593027  0.13461178  0.99243483  1
  O  O268  1  0.24519460  0.63251575  0.49905301  1
  O  O269  1  0.24355822  0.63492501  0.99415259  1
  O  O270  1  0.74582964  0.12964287  0.49466466  1
  O  O271  1  0.73991685  0.12964476  0.99183897  1
  O  O272  1  0.74622946  0.63015936  0.49456465  1
  O  O273  1  0.73982412  0.62019531  0.99042716  1
  O  O274  1  0.25145455  0.36987308  0.00640981  1
  O  O275  1  0.25161344  0.37740421  0.51739076  1
  O  O276  1  0.24558223  0.86161346  0.00015511  1
  O  O277  1  0.25696146  0.86441585  0.50195902  1
  O  O278  1  0.75529717  0.36847617  -0.00154602  1
  O  O279  1  0.75481653  0.36853487  0.50562349  1
  O  O280  1  0.75207630  0.88360647  0.01666242  1
  O  O281  1  0.75684346  0.86905510  0.50894666  1
  O  O282  1  0.13211597  0.50004851  0.24358654  1
  O  O283  1  0.12448727  0.49370389  0.74348772  1
  O  O284  1  0.13235336  1.00213267  0.24349367  1
  O  O285  1  0.12904765  0.99386100  0.74701750  1
  O  O286  1  0.63099797  0.49690760  0.24396279  1
  O  O287  1  0.61742574  0.48887926  0.73984585  1
  O  O288  1  0.63833386  0.99959039  0.24894413  1
  O  O289  1  0.62361842  1.00430139  0.73715087  1
  O  O290  1  0.36629257  0.00204645  0.25748177  1
  O  O291  1  0.36915043  0.00950935  0.75781593  1
  O  O292  1  0.37142713  0.50636111  0.25294024  1
  O  O293  1  0.37238155  0.50897139  0.75608423  1
  O  O294  1  0.86634379  0.00549084  0.25532990  1
  O  O295  1  0.87343704  -0.00292693  0.76454100  1
  O  O296  1  0.87044416  0.50536982  0.25553471  1
  O  O297  1  0.88183807  0.51032287  0.75612346  1
  O  O298  1  0.11970543  0.36454027  0.37451479  1
  O  O299  1  0.11750469  0.37064252  0.87100056  1
  O  O300  1  0.12426060  0.86280807  0.37640844  1
  O  O301  1  0.11895281  0.87114119  0.87019372  1
  O  O302  1  0.62209579  0.37104371  0.36918523  1
  O  O303  1  0.62053824  0.37129809  0.86701183  1
  O  O304  1  0.62070555  0.86699919  0.37548037  1
  O  O305  1  0.63375468  0.85799572  0.87743458  1
  O  O306  1  0.38329834  0.13439500  0.12386467  1
  O  O307  1  0.37148675  0.12223597  0.63699745  1
  O  O308  1  0.38233705  0.63540392  0.13023589  1
  O  O309  1  0.39037112  0.62501453  0.62167726  1
  O  O310  1  0.87533284  0.13210150  0.13083163  1
  O  O311  1  0.88520312  0.13123460  0.61967181  1
  O  O312  1  0.87891338  0.63174062  0.12882073  1
  O  O313  1  0.87810150  0.62688466  0.63082552  1
  O  O314  1  0.25567170  0.25453969  0.12109020  1
  O  O315  1  0.24275765  0.26473284  0.63218017  1
  O  O316  1  0.25952868  0.75248793  0.11764416  1
  O  O317  1  0.25100882  0.74920924  0.61313885  1
  O  O318  1  0.75652423  0.25154221  0.11747387  1
  O  O319  1  0.75337456  0.25433355  0.61944799  1
  O  O320  1  0.76019084  0.76018639  0.13281595  1
  O  O321  1  0.75409573  0.75540138  0.61889935  1
  O  O322  1  0.23722942  0.25244910  0.37014619  1
  O  O323  1  0.24316667  0.24773798  0.87964795  1
  O  O324  1  0.24375688  0.74820495  0.38532254  1
  O  O325  1  0.24543605  0.74372431  0.88304870  1
  O  O326  1  0.74611776  0.24434622  0.38106992  1
  O  O327  1  0.74417598  0.24231298  0.88039880  1
  O  O328  1  0.74677956  0.74425898  0.37921420  1
  O  O329  1  0.74402953  0.73402622  0.86873251  1
  O  O330  1  0.00152288  0.11261788  0.00111935  1
  O  O331  1  0.00374391  0.11913092  0.51249926  1
  O  O332  1  0.00492643  0.61953309  0.00546184  1
  O  O333  1  0.00498234  0.61800307  0.50594932  1
  O  O334  1  0.50756758  0.12871674  0.00938876  1
  O  O335  1  0.50827515  0.11617624  0.50173419  1
  O  O336  1  0.50965394  0.61841837  0.00314639  1
  O  O337  1  0.50774307  0.62060063  0.50786771  1
  O  O338  1  0.50346619  0.38398920  0.49151060  1
  O  O339  1  0.50252498  0.38594517  0.99411559  1
  O  O340  1  0.49652185  0.87830720  0.49463807  1
  O  O341  1  0.50529193  0.87094308  0.98855817  1
  O  O342  1  0.99363001  0.38015147  0.49613082  1
  O  O343  1  0.99320873  0.38084307  0.99403824  1
  O  O344  1  0.99246555  0.88285738  0.49974146  1
  O  O345  1  0.99891828  0.88692008  0.99363620  1
  O  O346  1  0.49683327  0.49605396  0.37924483  1
  O  O347  1  0.50249396  0.49655618  0.88400775  1
  O  O348  1  0.49707715  0.99407589  0.38012964  1
  O  O349  1  0.48449095  0.99971430  0.86977651  1
  O  O350  1  0.99542596  0.49461622  0.38033391  1
  O  O351  1  0.99402448  0.49465617  0.88145757  1
  O  O352  1  0.99352290  1.00229686  0.38296825  1
  O  O353  1  0.99280920  0.99697143  0.88139417  1
  O  O354  1  0.00577432  0.00067129  0.11690517  1
  O  O355  1  0.00181942  0.00687266  0.62219707  1
  O  O356  1  0.00442300  0.50618190  0.11953673  1
  O  O357  1  0.00500290  0.50374180  0.61821776  1
  O  O358  1  0.49917881  0.00935832  0.12571534  1
  O  O359  1  0.50849158  -0.00042360  0.61910866  1
  O  O360  1  0.50637467  0.50688251  0.11675165  1
  O  O361  1  0.50999739  0.50701149  0.62015482  1
  O  O362  1  0.24870611  0.38392403  0.24097205  1
  O  O363  1  0.24204879  0.37836126  0.74195841  1
  O  O364  1  0.24781954  0.88944656  0.24772891  1
  O  O365  1  0.24197472  0.87947664  0.75018815  1
  O  O366  1  0.74466061  0.38344035  0.24892613  1
  O  O367  1  0.73473900  0.36662310  0.74405754  1
  O  O368  1  0.75087796  0.88479171  0.24262559  1
  O  O369  1  0.75573259  0.87305977  0.73564598  1
  O  O370  1  0.25284789  0.11287286  0.25409382  1
  O  O371  1  0.25551030  0.12110277  0.75521406  1
  O  O372  1  0.25855599  0.61855355  0.25095646  1
  O  O373  1  0.24928957  0.62586021  0.76318572  1
  O  O374  1  0.75467600  0.11754426  0.25497161  1
  O  O375  1  0.74095172  0.12559208  0.76564692  1
  O  O376  1  0.75617142  0.61920448  0.25596007  1
  O  O377  1  0.76225031  0.62473323  0.75570796  1
  O  O378  1  0.37539703  0.11689466  0.37213628  1
  O  O379  1  0.36899798  0.11858209  0.86412299  1
  O  O380  1  0.37563067  0.61750170  0.36746657  1
  O  O381  1  0.36221387  0.62613034  0.87882411  1
  O  O382  1  0.86887029  0.12026136  0.37043847  1
  O  O383  1  0.86228576  0.11570812  0.88233558  1
  O  O384  1  0.87088815  0.61947489  0.37049568  1
  O  O385  1  0.86955754  0.62124729  0.86821974  1
  O  O386  1  0.13109751  0.38363629  0.12657673  1
  O  O387  1  0.13147355  0.38015782  0.63047734  1
  O  O388  1  0.12770494  0.88955226  0.12628001  1
  O  O389  1  0.12350536  0.88061144  0.63309602  1
  O  O390  1  0.62701603  0.38241332  0.13031609  1
  O  O391  1  0.62797556  0.38141058  0.63100713  1
  O  O392  1  0.63547252  0.87583546  0.12943387  1
  O  O393  1  0.63624860  0.88473944  0.61755510  1
  O  O394  1  0.11831587  0.25143593  0.26161576  1
  O  O395  1  0.11461052  0.25710707  0.75804581  1
  O  O396  1  0.12773658  0.75046845  0.26144987  1
  O  O397  1  0.12235742  0.75588960  0.75821860  1
  O  O398  1  0.62742739  0.25726644  0.25600799  1
  O  O399  1  0.61515501  0.25785025  0.75558235  1
  O  O400  1  0.61854941  0.74876861  0.25733249  1
  O  O401  1  0.61785024  0.74236538  0.75856992  1
  O  O402  1  0.37616505  0.24842912  0.23610873  1
  O  O403  1  0.38313860  0.24068514  0.75663243  1
  O  O404  1  0.38048285  0.74614317  0.24242556  1
  O  O405  1  0.38696833  0.74404739  0.74757773  1
  O  O406  1  0.87888672  0.24534247  0.24534635  1
  O  O407  1  0.88201105  0.25747851  0.74120821  1
  O  O408  1  0.87787849  0.74251871  0.24060300  1
  O  O409  1  0.87796941  0.73751362  0.74283694  1
  O  O410  1  0.38301255  0.49553171  0.49253297  1
  O  O411  1  0.38975521  0.50214353  1.00064907  1
  O  O412  1  0.38321200  0.99150086  0.49497528  1
  O  O413  1  0.37143149  1.00910956  0.98309000  1
  O  O414  1  0.88033510  0.49413255  0.49435338  1
  O  O415  1  0.88007364  0.49539050  0.99354224  1
  O  O416  1  0.87962109  0.99531379  0.49524247  1
  O  O417  1  0.88335523  0.99787975  0.99122528  1
  O  O418  1  0.11646874  0.00187575  0.00696705  1
  O  O419  1  0.11848433  0.00048902  0.50818780  1
  O  O420  1  0.11808282  0.50659417  0.00643555  1
  O  O421  1  0.11976225  0.50469988  0.50434612  1
  O  O422  1  0.62444578  0.01302303  0.00088033  1
  O  O423  1  0.62184795  0.00449816  0.50790516  1
  O  O424  1  0.61721928  0.50883047  0.00354655  1
  O  O425  1  0.62026375  0.50525641  0.50801219  1
  O  O426  1  0.37034490  0.36654413  0.12173345  1
  O  O427  1  0.35923529  0.38021248  0.62948629  1
  O  O428  1  0.37710538  0.86350647  0.12823598  1
  O  O429  1  0.37266881  0.87207177  0.61697899  1
  O  O430  1  0.87316040  0.36905505  0.11721535  1
  O  O431  1  0.86871452  0.37019428  0.61954685  1
  O  O432  1  0.86860621  0.86664182  0.12448274  1
  O  O433  1  0.86737913  0.86902979  0.61915898  1
  O  O434  1  0.12790197  0.13945353  0.37903284  1
  O  O435  1  0.13104236  0.13289824  0.87438987  1
  O  O436  1  0.12758161  0.63344454  0.38237734  1
  O  O437  1  0.13110425  0.63090304  0.88138191  1
  O  O438  1  0.63125685  0.13025381  0.38055883  1
  O  O439  1  0.62890467  0.12914599  0.88259943  1
  O  O440  1  0.63153467  0.62933642  0.38065954  1
  O  O441  1  0.63364957  0.62907356  0.87922141  1
