# generated using pymatgen
data_V93Zn93O256
_symmetry_space_group_name_H-M   'P 1'
_cell_length_a   17.05187907
_cell_length_b   17.05508555
_cell_length_c   17.05818535
_cell_angle_alpha   90.02613107
_cell_angle_beta   90.11643838
_cell_angle_gamma   89.97510650
_symmetry_Int_Tables_number   1
_chemical_formula_structural   V93Zn93O256
_chemical_formula_sum   'V93 Zn93 O256'
_cell_volume   4960.87166638
_cell_formula_units_Z   1
loop_
 _symmetry_equiv_pos_site_id
 _symmetry_equiv_pos_as_xyz
  1  'x, y, z'
loop_
 _atom_site_type_symbol
 _atom_site_label
 _atom_site_symmetry_multiplicity
 _atom_site_fract_x
 _atom_site_fract_y
 _atom_site_fract_z
 _atom_site_occupancy
  V  V0  1  0.87513529  0.37410802  -0.00017779  1
  V  V1  1  0.50185010  0.25044465  0.74834516  1
  V  V2  1  0.87492181  0.87348942  0.50141536  1
  V  V3  1  0.62748124  0.24907706  0.87486228  1
  V  V4  1  0.24914656  0.12567124  0.37454014  1
  V  V5  1  0.74868958  0.49935362  0.24989789  1
  V  V6  1  0.62662562  0.87625489  0.75128076  1
  V  V7  1  0.75711557  0.75308357  0.00170478  1
  V  V8  1  0.75033693  0.50014697  0.75062948  1
  V  V9  1  0.00030143  0.62559500  0.62685638  1
  V  V10  1  0.87711749  0.12238761  0.75109490  1
  V  V11  1  0.25089364  0.37474267  0.62410516  1
  V  V12  1  0.49906696  0.50102826  -0.00116469  1
  V  V13  1  0.37714438  0.75077419  0.62432005  1
  V  V14  1  0.37378500  0.25037525  0.12294398  1
  V  V15  1  0.62366402  0.49973255  0.12417801  1
  V  V16  1  0.37524838  -0.00113431  0.37407706  1
  V  V17  1  0.12397075  0.87411596  0.25071666  1
  V  V18  1  0.36904961  0.61884902  0.24916162  1
  V  V19  1  0.61906078  0.12196960  -0.00055123  1
  V  V20  1  0.00007489  0.87315578  0.37518680  1
  V  V21  1  0.36979101  0.75196123  0.12089698  1
  V  V22  1  0.75070700  0.62625740  0.87575341  1
  V  V23  1  0.24846059  0.37907046  0.13123058  1
  V  V24  1  0.61789377  -0.00039359  0.11983301  1
  V  V25  1  0.37572699  0.25126200  0.62345414  1
  V  V26  1  0.50006057  -0.00026373  0.49836219  1
  V  V27  1  0.12727344  0.62818370  -0.00788866  1
  V  V28  1  0.24912222  0.61921377  0.37200157  1
  V  V29  1  0.12572995  0.50030455  0.62571718  1
  V  V30  1  0.00572487  0.24818496  0.75335472  1
  V  V31  1  0.00421060  0.87271636  0.89030062  1
  V  V32  1  0.74796693  0.62429239  0.37553748  1
  V  V33  1  0.37824749  0.88463850  0.00142152  1
  V  V34  1  0.75362113  -0.00114085  0.75061269  1
  V  V35  1  0.37405038  0.12472542  0.24770928  1
  V  V36  1  0.87412171  0.49833112  0.37634300  1
  V  V37  1  0.12599253  0.37266330  0.75281263  1
  V  V38  1  0.24944921  0.87925022  0.62725140  1
  V  V39  1  0.00080709  0.12025637  0.12340268  1
  V  V40  1  0.50096894  0.75094229  0.74996734  1
  V  V41  1  0.74937057  0.12432136  0.37514152  1
  V  V42  1  0.62673432  -0.00072098  0.62572159  1
  V  V43  1  0.50070345  0.88458796  0.88118723  1
  V  V44  1  0.62510512  0.62557264  0.49967719  1
  V  V45  1  0.62385239  0.37378261  0.24860334  1
  V  V46  1  0.12421750  0.12388350  0.50040872  1
  V  V47  1  0.87534021  0.49916167  0.87602844  1
  V  V48  1  0.49940697  0.75031485  0.25140807  1
  V  V49  1  0.62474307  0.50019899  0.62508548  1
  V  V50  1  -0.00124946  0.49860390  0.50110232  1
  V  V51  1  0.50129019  0.12557783  0.62345418  1
  V  V52  1  0.24981950  0.24967763  0.49971781  1
  V  V53  1  0.12039095  0.12178519  -0.00812802  1
  V  V54  1  0.62404114  0.62566536  -0.00007752  1
  V  V55  1  0.75035361  0.24847060  0.50028182  1
  V  V56  1  0.74819541  -0.00073765  0.24980966  1
  V  V57  1  0.12712144  0.50251008  0.13266968  1
  V  V58  1  0.00001380  -0.00023499  0.50217631  1
  V  V59  1  0.62369214  0.87407890  0.24942205  1
  V  V60  1  0.62632227  0.37437068  0.74976872  1
  V  V61  1  0.25138461  0.49988146  0.74951178  1
  V  V62  1  0.00548817  0.37171998  0.87708441  1
  V  V63  1  0.75039764  0.74909982  0.50054025  1
  V  V64  1  0.87555190  0.37487550  0.50038241  1
  V  V65  1  0.12505524  0.62536756  0.50003796  1
  V  V66  1  0.74986210  0.25033961  0.00000447  1
  V  V67  1  0.37312658  0.50488032  0.87295828  1
  V  V68  1  0.87616076  0.12789372  0.24886199  1
  V  V69  1  0.87588978  0.62624314  0.75070931  1
  V  V70  1  0.37338497  0.37554439  -0.00126731  1
  V  V71  1  0.24227960  0.25194190  -0.00760233  1
  V  V72  1  0.49981240  0.62615200  0.62484995  1
  V  V73  1  0.50126155  0.37618714  0.87419393  1
  V  V74  1  0.62506801  0.75155847  0.87616365  1
  V  V75  1  0.87581416  0.62575641  0.24738962  1
  V  V76  1  0.87405073  -0.00090758  0.37635948  1
  V  V77  1  0.75038105  0.37453582  0.62528993  1
  V  V78  1  0.49799506  0.62516603  0.12389644  1
  V  V79  1  0.75063175  0.37420494  0.12421240  1
  V  V80  1  0.24737333  -0.00130774  0.24652913  1
  V  V81  1  0.24935514  0.75009912  0.49927129  1
  V  V82  1  0.49882118  0.49958570  0.49854891  1
  V  V83  1  0.75611834  0.87454726  0.12221227  1
  V  V84  1  0.37473090  0.12208131  0.75189727  1
  V  V85  1  0.62607403  0.12399952  0.49886967  1
  V  V86  1  0.49846530  0.37528174  0.37424421  1
  V  V87  1  0.88071872  -0.00475679  0.89089693  1
  V  V88  1  0.87594369  0.24906621  0.62721943  1
  V  V89  1  0.49858389  0.24881089  0.24725794  1
  V  V90  1  0.37490620  0.87608228  0.49905475  1
  V  V91  1  0.87637853  0.74953935  0.62652974  1
  V  V92  1  0.12411679  0.86943121  0.75425216  1
  Zn  Zn93  1  0.24097859  0.75878330  -0.01244869  1
  Zn  Zn94  1  0.24516834  0.12814075  0.87141923  1
  Zn  Zn95  1  0.50042608  0.87423807  0.37544156  1
  Zn  Zn96  1  -0.00105518  0.62619919  0.12277872  1
  Zn  Zn97  1  0.12379639  0.37499488  0.25326692  1
  Zn  Zn98  1  0.00461929  0.74892973  0.75689584  1
  Zn  Zn99  1  0.12334397  0.74772476  0.37406771  1
  Zn  Zn100  1  0.24575354  0.87548993  0.11980607  1
  Zn  Zn101  1  -0.00097330  0.74799351  0.25003123  1
  Zn  Zn102  1  0.12358155  0.25386816  0.37196373  1
  Zn  Zn103  1  0.00502921  0.25280723  0.25010356  1
  Zn  Zn104  1  0.12208821  -0.00076496  0.62844350  1
  Zn  Zn105  1  0.37356392  0.37614530  0.49795987  1
  Zn  Zn106  1  0.49527651  0.12059452  0.12023404  1
  Zn  Zn107  1  0.00191599  0.37263851  0.37236022  1
  Zn  Zn108  1  0.00151941  0.12346184  0.62655531  1
  Zn  Zn109  1  0.87685034  0.25056130  0.12442156  1
  Zn  Zn110  1  0.37101468  0.49768409  0.37172330  1
  Zn  Zn111  1  0.75117630  0.87369454  0.62605810  1
  Zn  Zn112  1  0.24774259  0.00179565  0.75476092  1
  Zn  Zn113  1  0.87737684  0.75259152  0.12481507  1
  Zn  Zn114  1  0.37540199  0.00554962  0.88163165  1
  Zn  Zn115  1  0.24209196  0.63399182  0.86653471  1
  Zn  Zn116  1  0.62416667  0.75093174  0.37612307  1
  Zn  Zn117  1  0.75269856  0.12247855  0.87762974  1
  Zn  Zn118  1  0.37323185  0.62775152  0.74858785  1
  Zn  Zn119  1  0.11745867  -0.00366159  0.11800183  1
  Zn  Zn120  1  0.62443187  0.24804678  0.37341447  1
  Zn  Zn121  1  0.00139085  0.49978638  0.00132943  1
  Zn  Zn122  1  0.18463507  0.18968863  0.18264427  1
  Zn  Zn123  1  0.18817605  0.18811146  0.68520732  1
  Zn  Zn124  1  0.18731917  0.68813091  0.18555554  1
  Zn  Zn125  1  0.18935907  0.68954911  0.68753364  1
  Zn  Zn126  1  0.68652566  0.18710764  0.18552601  1
  Zn  Zn127  1  0.69080449  0.18435926  0.68838522  1
  Zn  Zn128  1  0.68756917  0.68757128  0.18678689  1
  Zn  Zn129  1  0.68825367  0.68869388  0.68747615  1
  Zn  Zn130  1  0.31149358  0.30989747  0.31225374  1
  Zn  Zn131  1  0.31417492  0.31253987  0.81138015  1
  Zn  Zn132  1  0.31047841  0.80991706  0.31310934  1
  Zn  Zn133  1  0.31511931  0.81476370  0.81308821  1
  Zn  Zn134  1  0.81198681  0.31200829  0.31423946  1
  Zn  Zn135  1  0.81517640  0.31077183  0.81397579  1
  Zn  Zn136  1  0.81036564  0.81115323  0.31345944  1
  Zn  Zn137  1  0.81706751  0.81461168  0.81500280  1
  Zn  Zn138  1  0.18595445  0.43714616  0.43805872  1
  Zn  Zn139  1  0.18694565  0.44288882  0.94122721  1
  Zn  Zn140  1  0.18665790  0.93843677  0.43640821  1
  Zn  Zn141  1  0.19218563  0.94193996  0.93409490  1
  Zn  Zn142  1  0.68609752  0.43645788  0.43704583  1
  Zn  Zn143  1  0.68799497  0.43769232  0.93763616  1
  Zn  Zn144  1  0.68706606  0.93487290  0.43679840  1
  Zn  Zn145  1  0.69151085  0.93829919  0.93780202  1
  Zn  Zn146  1  0.30641291  0.06587186  0.06202291  1
  Zn  Zn147  1  0.31372310  0.06346255  0.56280406  1
  Zn  Zn148  1  0.30837349  0.56367333  0.06075524  1
  Zn  Zn149  1  0.31404446  0.56211559  0.55993129  1
  Zn  Zn150  1  0.80677123  0.06477635  0.06548811  1
  Zn  Zn151  1  0.81379165  0.06192105  0.56499937  1
  Zn  Zn152  1  0.81158012  0.56094027  0.06166015  1
  Zn  Zn153  1  0.81278384  0.56305731  0.56345607  1
  Zn  Zn154  1  0.43648823  0.43613210  0.18580551  1
  Zn  Zn155  1  0.43752489  0.43787518  0.68663076  1
  Zn  Zn156  1  0.43603562  0.93622112  0.18733246  1
  Zn  Zn157  1  0.44006481  0.93754271  0.68791018  1
  Zn  Zn158  1  0.94011358  0.43848135  0.18717270  1
  Zn  Zn159  1  0.93820277  0.43673974  0.68891208  1
  Zn  Zn160  1  0.93830096  0.94061153  0.18860233  1
  Zn  Zn161  1  0.93980742  0.93594507  0.69047255  1
  Zn  Zn162  1  0.06109497  0.06214356  0.31418843  1
  Zn  Zn163  1  0.06117462  0.05509761  0.81305398  1
  Zn  Zn164  1  0.06034864  0.55976350  0.31469629  1
  Zn  Zn165  1  0.06072583  0.55826682  0.81221609  1
  Zn  Zn166  1  0.56155491  0.06184414  0.31016744  1
  Zn  Zn167  1  0.56405023  0.06413004  0.81173297  1
  Zn  Zn168  1  0.56053320  0.56280186  0.31209441  1
  Zn  Zn169  1  0.56234398  0.56431138  0.81159471  1
  Zn  Zn170  1  0.43619425  0.18772278  0.43534186  1
  Zn  Zn171  1  0.43755227  0.19163394  0.93675288  1
  Zn  Zn172  1  0.43487645  0.68628307  0.43682308  1
  Zn  Zn173  1  0.43481597  0.69358387  0.93592250  1
  Zn  Zn174  1  0.93946154  0.18913909  0.43604523  1
  Zn  Zn175  1  0.93778300  0.18663052  0.93707687  1
  Zn  Zn176  1  0.93738721  0.68681474  0.43608599  1
  Zn  Zn177  1  0.94220454  0.68747836  0.93839718  1
  Zn  Zn178  1  0.06184978  0.30845544  0.06615720  1
  Zn  Zn179  1  0.06293745  0.31129696  0.56374535  1
  Zn  Zn180  1  0.06069816  0.80795587  0.06943424  1
  Zn  Zn181  1  0.06311805  0.81130528  0.56469673  1
  Zn  Zn182  1  0.56186472  0.31104041  0.06118392  1
  Zn  Zn183  1  0.56362905  0.31208088  0.56006366  1
  Zn  Zn184  1  0.56321552  0.81265765  0.06281157  1
  Zn  Zn185  1  0.56375967  0.81372660  0.56263580  1
  O  O186  1  0.11612934  0.12169940  0.11740762  1
  O  O187  1  0.12548766  0.12137604  0.61252127  1
  O  O188  1  0.12763311  0.61268612  0.11941040  1
  O  O189  1  0.12053062  0.61958228  0.62057500  1
  O  O190  1  0.62395960  0.11599414  0.11718914  1
  O  O191  1  0.62071254  0.11921896  0.61938747  1
  O  O192  1  0.61827881  0.61911796  0.11988292  1
  O  O193  1  0.62010133  0.61922965  0.62018384  1
  O  O194  1  0.38596259  0.37725194  0.37303606  1
  O  O195  1  0.38165060  0.38493586  0.87830718  1
  O  O196  1  0.37516076  0.88068575  0.38127434  1
  O  O197  1  0.38552227  0.87859828  0.88470125  1
  O  O198  1  0.87219505  0.38224658  0.38393070  1
  O  O199  1  0.88290137  0.38017929  0.87958685  1
  O  O200  1  0.87908188  0.88014098  0.38033249  1
  O  O201  1  0.88676750  0.88752202  0.87389257  1
  O  O202  1  0.25567552  0.00492963  0.36598120  1
  O  O203  1  0.25860604  0.00991528  0.87077043  1
  O  O204  1  0.25214009  0.51534478  0.38131861  1
  O  O205  1  0.26057538  0.50045714  0.86868968  1
  O  O206  1  0.75457948  0.00446974  0.36975271  1
  O  O207  1  0.76471079  -0.00186532  0.86943128  1
  O  O208  1  0.75337370  0.50439425  0.36963031  1
  O  O209  1  0.75443903  0.50585737  0.86988877  1
  O  O210  1  0.23838044  0.49125334  0.11815043  1
  O  O211  1  0.24570777  0.49467873  0.62923100  1
  O  O212  1  0.24776212  0.99916255  0.13935517  1
  O  O213  1  0.25136712  0.98672159  0.62508368  1
  O  O214  1  0.74212722  0.49397872  0.12965912  1
  O  O215  1  0.74447063  0.49479343  0.63116487  1
  O  O216  1  0.74058831  0.99197864  0.13006975  1
  O  O217  1  0.74411238  0.99770584  0.63201543  1
  O  O218  1  0.00184261  0.37208570  0.25282612  1
  O  O219  1  0.00460888  0.36766122  0.75727415  1
  O  O220  1  0.00892300  0.87832869  0.25692600  1
  O  O221  1  0.01062480  0.87237471  0.75582273  1
  O  O222  1  0.50374354  0.37036101  0.25551636  1
  O  O223  1  0.50730151  0.37020273  0.75373791  1
  O  O224  1  0.50399614  0.86431579  0.24952255  1
  O  O225  1  0.50650150  0.87013765  0.75830244  1
  O  O226  1  0.49186363  0.13095243  0.24714746  1
  O  O227  1  0.49565452  0.13135033  0.74261843  1
  O  O228  1  0.49182128  0.63272960  0.24403674  1
  O  O229  1  0.49974974  0.63244525  0.74252181  1
  O  O230  1  0.98902792  0.12271556  0.24447911  1
  O  O231  1  0.99728157  0.13353721  0.75089371  1
  O  O232  1  0.98607675  0.62312307  0.25100502  1
  O  O233  1  0.99441550  0.62656935  0.74566881  1
  O  O234  1  0.36810616  0.25693725  0.00404551  1
  O  O235  1  0.36862650  0.25049897  0.50644606  1
  O  O236  1  0.37850606  0.75948133  0.01207356  1
  O  O237  1  0.37020065  0.75621250  0.50505839  1
  O  O238  1  0.86716086  0.25581072  -0.00020478  1
  O  O239  1  0.86925757  0.25432359  0.50708882  1
  O  O240  1  0.85943822  0.74102533  0.00320184  1
  O  O241  1  0.87011848  0.75345920  0.50602864  1
  O  O242  1  0.13145311  0.23922842  0.50138654  1
  O  O243  1  0.13480076  0.23991459  1.00591226  1
  O  O244  1  0.13161091  0.74232632  0.49982253  1
  O  O245  1  0.12639628  0.73193922  1.01076011  1
  O  O246  1  0.63237222  0.24172517  0.49876314  1
  O  O247  1  0.63044161  0.24407306  0.99435857  1
  O  O248  1  0.63090785  0.74316364  0.49970491  1
  O  O249  1  0.63257307  0.74372134  0.99560806  1
  O  O250  1  0.49134306  0.25059129  0.13015571  1
  O  O251  1  0.49688822  0.24521497  0.62897072  1
  O  O252  1  0.49234314  0.74480360  0.13306669  1
  O  O253  1  0.49678357  0.74578989  0.62962002  1
  O  O254  1  0.99488825  0.23611051  0.12913614  1
  O  O255  1  0.99344179  0.24985317  0.63698162  1
  O  O256  1  0.99222143  0.74441960  0.13284945  1
  O  O257  1  0.99357871  0.74172719  0.62722454  1
  O  O258  1  0.00340104  0.25335760  0.37108818  1
  O  O259  1  -0.00657689  0.26081057  0.86381356  1
  O  O260  1  0.00187160  0.75755097  0.37133691  1
  O  O261  1  -0.00947540  0.76876399  0.87354625  1
  O  O262  1  0.50031850  0.25921596  0.36779051  1
  O  O263  1  0.50710576  0.25791246  0.86819676  1
  O  O264  1  0.49932098  0.74991386  0.36186739  1
  O  O265  1  0.50650306  0.75879463  0.86966034  1
  O  O266  1  0.24341538  0.12837434  0.49534021  1
  O  O267  1  0.23876094  0.13578742  0.99946818  1
  O  O268  1  0.24513842  0.63067293  0.49349783  1
  O  O269  1  0.23605416  0.62477663  0.99593487  1
  O  O270  1  0.74588042  0.12845354  0.49517069  1
  O  O271  1  0.73880193  0.13277248  0.99896538  1
  O  O272  1  0.74456019  0.62867362  0.49544027  1
  O  O273  1  0.74293735  0.63138627  0.99507115  1
  O  O274  1  0.25398171  0.36967149  0.00559416  1
  O  O275  1  0.25150098  0.36844597  0.50698906  1
  O  O276  1  0.26049393  0.87426335  0.00168225  1
  O  O277  1  0.25459892  0.87093820  0.50713231  1
  O  O278  1  0.75420908  0.37038343  0.00460622  1
  O  O279  1  0.75410014  0.36946178  0.50657627  1
  O  O280  1  0.74301614  0.86390514  0.01016773  1
  O  O281  1  0.75714621  0.86779285  0.50138399  1
  O  O282  1  0.12400959  0.50140096  0.23516895  1
  O  O283  1  0.13129970  0.49342422  0.74409034  1
  O  O284  1  0.13334931  0.99164541  0.25258046  1
  O  O285  1  0.12814818  0.98884165  0.74639304  1
  O  O286  1  0.62829555  0.49469837  0.24320830  1
  O  O287  1  0.63064328  0.49445142  0.74535828  1
  O  O288  1  0.62992307  0.99517734  0.24114081  1
  O  O289  1  0.63224840  0.99605837  0.74564479  1
  O  O290  1  0.36689532  0.00358137  0.25369647  1
  O  O291  1  0.37642946  0.01445818  0.74649556  1
  O  O292  1  0.38031062  0.51562693  0.24840861  1
  O  O293  1  0.37077908  0.50024080  0.75795317  1
  O  O294  1  0.86774483  0.00862260  0.25639476  1
  O  O295  1  0.87107581  0.00530808  0.75451140  1
  O  O296  1  0.86686759  0.50641281  0.25578716  1
  O  O297  1  0.86886206  0.50538903  0.75514881  1
  O  O298  1  0.12272500  0.37435396  0.37155772  1
  O  O299  1  0.11316484  0.38348259  0.86959467  1
  O  O300  1  0.11925806  0.87353676  0.36711612  1
  O  O301  1  0.11183685  0.88472518  0.86843197  1
  O  O302  1  0.61475783  0.37331703  0.36785447  1
  O  O303  1  0.62082648  0.37051534  0.86904035  1
  O  O304  1  0.62146654  0.87159776  0.36564681  1
  O  O305  1  0.61914274  0.87119702  0.87208232  1
  O  O306  1  0.37519401  0.13154271  0.12915828  1
  O  O307  1  0.38176765  0.13160762  0.63120470  1
  O  O308  1  0.37732596  0.63211162  0.12956572  1
  O  O309  1  0.38248390  0.63258615  0.62428065  1
  O  O310  1  0.87940072  0.12407192  0.13385817  1
  O  O311  1  0.87740041  0.13188780  0.63286480  1
  O  O312  1  0.87294407  0.62224286  0.13738342  1
  O  O313  1  0.88066784  0.62871135  0.63139808  1
  O  O314  1  0.25564203  0.25954920  0.11375598  1
  O  O315  1  0.25627075  0.25614558  0.61947257  1
  O  O316  1  0.26228521  0.75229492  0.12272931  1
  O  O317  1  0.25682078  0.75985275  0.61948273  1
  O  O318  1  0.75069292  0.25756972  0.11815729  1
  O  O319  1  0.75563021  0.25515140  0.62095046  1
  O  O320  1  0.74906981  0.75792361  0.11796623  1
  O  O321  1  0.75750588  0.75005131  0.61830599  1
  O  O322  1  0.25032378  0.24191803  0.38259356  1
  O  O323  1  0.25571446  0.24960888  0.88767363  1
  O  O324  1  0.24825093  0.73938147  0.38220415  1
  O  O325  1  0.26780860  0.74171661  0.88019766  1
  O  O326  1  0.74785778  0.24248524  0.38259010  1
  O  O327  1  0.74413196  0.24851701  0.88110123  1
  O  O328  1  0.74761828  0.74182880  0.38274952  1
  O  O329  1  0.74557710  0.74670836  0.88298247  1
  O  O330  1  0.01359135  0.13327541  0.00698100  1
  O  O331  1  0.00875633  0.11904619  0.50073929  1
  O  O332  1  0.01200388  0.62220730  0.00219269  1
  O  O333  1  0.00461442  0.61866707  0.50640032  1
  O  O334  1  0.51456780  0.13239289  0.00135881  1
  O  O335  1  0.50546492  0.11993629  0.50400212  1
  O  O336  1  0.50410801  0.62123590  0.00439742  1
  O  O337  1  0.50553607  0.62046746  0.50483833  1
  O  O338  1  0.50043511  0.37935478  0.48947386  1
  O  O339  1  0.49472149  0.38101898  0.99386324  1
  O  O340  1  0.49338608  0.88178935  0.49914995  1
  O  O341  1  0.49331601  0.86982787  0.99077411  1
  O  O342  1  0.99196334  0.38193597  0.50317814  1
  O  O343  1  0.99491870  0.37193832  0.99096074  1
  O  O344  1  0.99484277  0.87922211  0.49513931  1
  O  O345  1  1.00997916  0.87385579  0.98868587  1
  O  O346  1  0.49943823  0.49019335  0.37889245  1
  O  O347  1  0.49442514  0.49507455  0.87896686  1
  O  O348  1  0.49282745  0.99867620  0.38020436  1
  O  O349  1  0.49930650  0.98767459  0.86990829  1
  O  O350  1  0.99109068  0.49883760  0.38506071  1
  O  O351  1  0.99210349  0.48745911  0.87496266  1
  O  O352  1  0.99283803  0.99361856  0.38235429  1
  O  O353  1  0.98762281  0.99043902  0.87597045  1
  O  O354  1  -0.00131204  0.01443591  0.12644724  1
  O  O355  1  0.00095322  0.00238821  0.61645663  1
  O  O356  1  0.01430731  0.50167098  0.12130259  1
  O  O357  1  0.00554013  0.50553307  0.62188403  1
  O  O358  1  0.51416332  -0.00048791  0.12915999  1
  O  O359  1  0.50658301  0.00617755  0.61849482  1
  O  O360  1  0.50387709  0.50490715  0.11791829  1
  O  O361  1  0.50621935  0.50485882  0.61980651  1
  O  O362  1  0.25162634  0.37117285  0.23357569  1
  O  O363  1  0.24547723  0.37914968  0.74432910  1
  O  O364  1  0.24185144  0.88292580  0.25075441  1
  O  O365  1  0.24519944  0.87658634  0.74164570  1
  O  O366  1  0.74411005  0.37994201  0.24490179  1
  O  O367  1  0.74593250  0.37983335  0.74514298  1
  O  O368  1  0.74287979  0.87902217  0.24299664  1
  O  O369  1  0.74397627  0.88064601  0.75055456  1
  O  O370  1  0.25417719  0.11674502  0.25368228  1
  O  O371  1  0.26177983  0.12790706  0.75004750  1
  O  O372  1  0.25930263  0.63365776  0.25937487  1
  O  O373  1  0.25324441  0.61555980  0.74931224  1
  O  O374  1  0.75590063  0.11879588  0.25390042  1
  O  O375  1  0.75815929  0.11765978  0.75468186  1
  O  O376  1  0.75406022  0.61823817  0.25496511  1
  O  O377  1  0.75449149  0.61948776  0.75651066  1
  O  O378  1  0.36883253  0.11861652  0.36810581  1
  O  O379  1  0.38051980  0.12579193  0.86222028  1
  O  O380  1  0.36715664  0.62458913  0.36547434  1
  O  O381  1  0.38033071  0.61062884  0.87351470  1
  O  O382  1  0.86899217  0.11841214  0.36825264  1
  O  O383  1  0.87751681  0.11100084  0.87050256  1
  O  O384  1  0.86742549  0.61780483  0.36857439  1
  O  O385  1  0.86991876  0.61948748  0.87063078  1
  O  O386  1  0.13189767  0.38733849  0.12158597  1
  O  O387  1  0.13110236  0.38106227  0.63140923  1
  O  O388  1  0.12564206  0.87953550  0.13572544  1
  O  O389  1  0.13534758  0.87515102  0.63187490  1
  O  O390  1  0.62922861  0.38090420  0.12878275  1
  O  O391  1  0.63047474  0.38010696  0.63025848  1
  O  O392  1  0.63226945  0.88170631  0.12923339  1
  O  O393  1  0.62652612  0.88196408  0.63306191  1
  O  O394  1  0.12486733  0.25368132  0.25240306  1
  O  O395  1  0.11382401  0.25614432  0.74374361  1
  O  O396  1  0.12492034  0.76294243  0.25076931  1
  O  O397  1  0.12608977  0.76364536  0.74840114  1
  O  O398  1  0.61791632  0.25615616  0.25013205  1
  O  O399  1  0.62158750  0.25463291  0.75391072  1
  O  O400  1  0.61371428  0.75346089  0.24838786  1
  O  O401  1  0.62152104  0.75591923  0.75657542  1
  O  O402  1  0.37844192  0.24373769  0.24251247  1
  O  O403  1  0.38284982  0.24345942  0.74395385  1
  O  O404  1  0.38182809  0.74399093  0.24107734  1
  O  O405  1  0.38426986  0.75018592  0.74119185  1
  O  O406  1  0.87065709  0.23483898  0.24930103  1
  O  O407  1  0.88361813  0.24371363  0.74676297  1
  O  O408  1  0.87129749  0.73628827  0.24994160  1
  O  O409  1  0.87477535  0.74236692  0.74426869  1
  O  O410  1  0.38418281  0.49679114  0.49590043  1
  O  O411  1  0.37952818  0.49590595  0.99213724  1
  O  O412  1  0.38063618  0.99618366  0.49428508  1
  O  O413  1  0.37310500  0.98862305  1.00527183  1
  O  O414  1  0.87847477  0.49466024  0.49686020  1
  O  O415  1  0.87620387  0.49282097  0.99319245  1
  O  O416  1  0.87931865  0.99417443  0.49518332  1
  O  O417  1  0.86925536  1.00370153  0.98867143  1
  O  O418  1  0.13422566  0.01837279  0.00325290  1
  O  O419  1  0.11930174  0.00803437  0.50091397  1
  O  O420  1  0.12285059  0.51132819  0.00935299  1
  O  O421  1  0.11910541  0.50626572  0.50784334  1
  O  O422  1  0.63315035  0.00994269  0.00851205  1
  O  O423  1  0.62043851  0.00448179  0.50506139  1
  O  O424  1  0.61892012  0.50562558  0.00408701  1
  O  O425  1  0.61982607  0.50513578  0.50636076  1
  O  O426  1  0.36741502  0.37264013  0.11755630  1
  O  O427  1  0.36939989  0.36835791  0.62416314  1
  O  O428  1  0.37484664  0.86742287  0.11813381  1
  O  O429  1  0.36881366  0.87084944  0.61979005  1
  O  O430  1  0.86767642  0.37497039  0.11779499  1
  O  O431  1  0.86861283  0.36998519  0.62144189  1
  O  O432  1  0.85913681  0.87621994  0.13307565  1
  O  O433  1  0.87453735  0.86748994  0.61904547  1
  O  O434  1  0.13137453  0.12317655  0.38660981  1
  O  O435  1  0.12135357  0.12335747  0.88864450  1
  O  O436  1  0.13221849  0.62515195  0.38033650  1
  O  O437  1  0.12323204  0.61888118  0.88804765  1
  O  O438  1  0.63147209  0.12438971  0.38063835  1
  O  O439  1  0.62738984  0.13044570  0.88239738  1
  O  O440  1  0.63014192  0.62535245  0.38149751  1
  O  O441  1  0.63061578  0.63091375  0.87988084  1
