# generated using pymatgen
data_V93Zn93O256
_symmetry_space_group_name_H-M   'P 1'
_cell_length_a   17.04679763
_cell_length_b   17.04697013
_cell_length_c   17.04984951
_cell_angle_alpha   89.98524994
_cell_angle_beta   90.01754642
_cell_angle_gamma   89.98896972
_symmetry_Int_Tables_number   1
_chemical_formula_structural   V93Zn93O256
_chemical_formula_sum   'V93 Zn93 O256'
_cell_volume   4954.62184254
_cell_formula_units_Z   1
loop_
 _symmetry_equiv_pos_site_id
 _symmetry_equiv_pos_as_xyz
  1  'x, y, z'
loop_
 _atom_site_type_symbol
 _atom_site_label
 _atom_site_symmetry_multiplicity
 _atom_site_fract_x
 _atom_site_fract_y
 _atom_site_fract_z
 _atom_site_occupancy
  V  V0  1  0.49045995  0.50048908  0.49463931  1
  V  V1  1  0.24956462  0.25099450  -0.00003834  1
  V  V2  1  0.87556232  0.87430825  0.50014272  1
  V  V3  1  0.50103207  0.62334706  0.12540427  1
  V  V4  1  0.50114189  0.87630973  0.87343244  1
  V  V5  1  0.37413887  0.13097322  0.74298912  1
  V  V6  1  0.37565164  0.00099343  0.87373272  1
  V  V7  1  0.37763821  0.62002945  0.25506513  1
  V  V8  1  0.12702750  0.24906805  0.37540837  1
  V  V9  1  0.50133256  0.87419816  0.37385628  1
  V  V10  1  0.62316198  0.37597687  0.75025671  1
  V  V11  1  0.37465267  -0.00032158  0.37213522  1
  V  V12  1  0.87575902  0.62615707  0.75049411  1
  V  V13  1  0.62442471  0.87683161  0.74778382  1
  V  V14  1  0.50083617  0.12745452  0.61681457  1
  V  V15  1  0.49869269  0.62771081  0.62787011  1
  V  V16  1  0.75129060  0.87361991  0.12546118  1
  V  V17  1  0.00173464  0.87267644  0.37407617  1
  V  V18  1  0.87420345  0.37378907  0.00088967  1
  V  V19  1  0.49867305  0.37659057  0.87500149  1
  V  V20  1  0.37471663  0.37475898  -0.00022928  1
  V  V21  1  -0.00075330  0.49939302  0.50181158  1
  V  V22  1  0.25159056  0.87383703  0.12455729  1
  V  V23  1  -0.00144587  0.25113064  0.74915392  1
  V  V24  1  0.87533845  0.50035660  0.87693892  1
  V  V25  1  -0.00055559  0.12124435  0.12067821  1
  V  V26  1  0.74981658  0.49982158  0.75096173  1
  V  V27  1  0.50036373  0.49884961  0.00136677  1
  V  V28  1  0.37645777  0.75156460  0.62590170  1
  V  V29  1  0.12675409  0.74952312  0.37546859  1
  V  V30  1  0.25038245  0.12444429  0.37341747  1
  V  V31  1  0.75028678  0.62564013  0.87593605  1
  V  V32  1  0.74972073  0.49898928  0.25334085  1
  V  V33  1  0.62732399  0.74953791  0.37378112  1
  V  V34  1  0.62567553  -0.00125461  0.12231952  1
  V  V35  1  0.87342819  0.25008095  0.62296718  1
  V  V36  1  0.74827230  0.37428571  0.62379120  1
  V  V37  1  0.37521572  0.87467496  0.00010905  1
  V  V38  1  0.75319272  0.75040080  0.00132934  1
  V  V39  1  0.62585724  0.75219312  0.87453638  1
  V  V40  1  0.74885465  0.37398257  0.12639618  1
  V  V41  1  0.73781834  0.12772940  0.37722691  1
  V  V42  1  0.25430362  0.49700280  0.25590661  1
  V  V43  1  0.25103290  0.74875419  0.50081075  1
  V  V44  1  0.25109166  -0.00038038  0.24944495  1
  V  V45  1  0.88117359  -0.00271183  0.87981653  1
  V  V46  1  0.87494688  0.75104337  0.62556672  1
  V  V47  1  0.12134919  0.87444967  0.75191815  1
  V  V48  1  0.87368658  0.12565190  0.74854939  1
  V  V49  1  0.00019849  0.37311262  0.37671573  1
  V  V50  1  0.37572842  0.87588301  0.49831062  1
  V  V51  1  0.74941946  -0.00085285  0.24905831  1
  V  V52  1  0.12267380  0.24953712  0.87562183  1
  V  V53  1  -0.00078722  0.12615851  0.62320822  1
  V  V54  1  0.62416005  0.00500825  0.61645672  1
  V  V55  1  0.12069843  0.50575936  0.12766708  1
  V  V56  1  0.74889647  0.24980128  0.00010982  1
  V  V57  1  0.87587555  -0.00080976  0.37399729  1
  V  V58  1  0.62446442  0.50137176  0.62528408  1
  V  V59  1  0.49890324  0.37735983  0.37279582  1
  V  V60  1  0.12285036  0.12276649  -0.00037549  1
  V  V61  1  0.25083478  0.87634022  0.62452588  1
  V  V62  1  0.12457810  0.62463822  0.50209489  1
  V  V63  1  0.24983172  0.50370000  0.75423188  1
  V  V64  1  0.87600805  0.12561665  0.25040002  1
  V  V65  1  0.24914127  0.12661131  0.87381816  1
  V  V66  1  0.74865807  0.12504576  0.87237568  1
  V  V67  1  0.12544766  0.12546597  0.49771572  1
  V  V68  1  0.88199623  0.74419774  0.12672728  1
  V  V69  1  0.62493140  0.62485315  0.00139406  1
  V  V70  1  0.50100819  0.00133587  -0.00150871  1
  V  V71  1  0.25404502  0.62133338  0.37715976  1
  V  V72  1  0.62443429  0.12396029  -0.00246308  1
  V  V73  1  0.74939247  0.87660901  0.62311486  1
  V  V74  1  0.87435182  0.37418842  0.49952687  1
  V  V75  1  0.49578052  0.25292706  0.74385049  1
  V  V76  1  0.12156304  -0.00271342  0.11933251  1
  V  V77  1  0.73549207  0.24676893  0.49629064  1
  V  V78  1  0.50696151  0.24636271  0.25392576  1
  V  V79  1  0.12575197  0.87324826  0.25037100  1
  V  V80  1  0.37618066  0.74921158  0.12493715  1
  V  V81  1  0.25021140  0.00182809  0.74838222  1
  V  V82  1  -0.00087638  0.62573661  0.62626107  1
  V  V83  1  0.00048846  0.50661822  0.00642124  1
  V  V84  1  0.24964685  0.37316005  0.12543313  1
  V  V85  1  0.12381366  0.37621197  0.74971052  1
  V  V86  1  0.88310642  0.62242184  0.24910385  1
  V  V87  1  0.62710834  0.62531566  0.49923414  1
  V  V88  1  -0.00137432  0.37442817  0.87676159  1
  V  V89  1  0.12507650  0.00151397  0.62368682  1
  V  V90  1  -0.00010728  -0.00009455  0.49920208  1
  V  V91  1  0.25773805  0.37069049  0.62406015  1
  V  V92  1  0.12507065  0.37281609  0.25192537  1
  Zn  Zn93  1  0.49776620  0.12698267  0.12160651  1
  Zn  Zn94  1  0.62881404  0.37022421  0.25652359  1
  Zn  Zn95  1  0.88191818  0.87806371  0.00637870  1
  Zn  Zn96  1  0.37431210  0.50574457  0.87741302  1
  Zn  Zn97  1  0.87458612  0.50018220  0.37658895  1
  Zn  Zn98  1  0.12311808  0.74666669  0.88097138  1
  Zn  Zn99  1  0.37404570  0.12687249  0.24597945  1
  Zn  Zn100  1  0.00013137  0.24968378  0.25013014  1
  Zn  Zn101  1  0.50253949  0.00869869  0.49423854  1
  Zn  Zn102  1  0.75255560  0.74989248  0.49887425  1
  Zn  Zn103  1  0.12427326  0.50031173  0.62717842  1
  Zn  Zn104  1  0.49818557  0.75192774  0.75147988  1
  Zn  Zn105  1  0.00720182  0.87624733  0.88884667  1
  Zn  Zn106  1  0.37305466  0.37328326  0.49246423  1
  Zn  Zn107  1  -0.00026601  0.75239546  0.75443080  1
  Zn  Zn108  1  0.62517002  0.49928666  0.12714338  1
  Zn  Zn109  1  0.62549739  0.87238609  0.24777975  1
  Zn  Zn110  1  0.24967350  0.62963657  0.88022047  1
  Zn  Zn111  1  0.37258326  0.62884378  0.75521671  1
  Zn  Zn112  1  0.37580242  0.24710809  0.12506199  1
  Zn  Zn113  1  0.50263908  0.74712164  0.24873671  1
  Zn  Zn114  1  0.75285418  0.62422585  0.37555940  1
  Zn  Zn115  1  0.62256974  0.25034094  0.87381977  1
  Zn  Zn116  1  0.12681530  0.62779660  0.00250976  1
  Zn  Zn117  1  0.24781148  0.74658489  -0.00079337  1
  Zn  Zn118  1  0.87648449  0.24812655  0.12464650  1
  Zn  Zn119  1  0.74926402  0.00141069  0.74702367  1
  Zn  Zn120  1  0.25692777  0.24466819  0.50521224  1
  Zn  Zn121  1  0.00529377  0.74193992  0.24749052  1
  Zn  Zn122  1  0.18729506  0.18700674  0.18799638  1
  Zn  Zn123  1  0.18526531  0.18968661  0.68732999  1
  Zn  Zn124  1  0.19178461  0.68714508  0.18787540  1
  Zn  Zn125  1  0.18637498  0.68871030  0.68868940  1
  Zn  Zn126  1  0.68658757  0.18510730  0.18584476  1
  Zn  Zn127  1  0.68331520  0.18950260  0.68520311  1
  Zn  Zn128  1  0.69179565  0.68470522  0.18843295  1
  Zn  Zn129  1  0.68865450  0.69069400  0.68809922  1
  Zn  Zn130  1  0.31933912  0.30922533  0.31399317  1
  Zn  Zn131  1  0.31217607  0.31607017  0.81303077  1
  Zn  Zn132  1  0.31369677  0.80921880  0.31054777  1
  Zn  Zn133  1  0.31008855  0.81077138  0.81333550  1
  Zn  Zn134  1  0.81242253  0.30966803  0.31550337  1
  Zn  Zn135  1  0.81176475  0.31222898  0.81235985  1
  Zn  Zn136  1  0.81335359  0.81049337  0.31074535  1
  Zn  Zn137  1  0.81053334  0.81433657  0.80930140  1
  Zn  Zn138  1  0.18441981  0.43786497  0.43977861  1
  Zn  Zn139  1  0.18520444  0.43902219  0.93878026  1
  Zn  Zn140  1  0.18851817  0.93772322  0.43733021  1
  Zn  Zn141  1  0.19101455  0.93630672  0.93721274  1
  Zn  Zn142  1  0.68299641  0.43467503  0.43700781  1
  Zn  Zn143  1  0.68531010  0.43772183  0.93833103  1
  Zn  Zn144  1  0.68935818  0.93850990  0.43650444  1
  Zn  Zn145  1  0.69237190  0.93699329  0.93746814  1
  Zn  Zn146  1  0.31230442  0.06279798  0.06271392  1
  Zn  Zn147  1  0.31525452  0.06203973  0.55909173  1
  Zn  Zn148  1  0.31204562  0.56092707  0.06518775  1
  Zn  Zn149  1  0.31068989  0.56086497  0.56906895  1
  Zn  Zn150  1  0.81082961  0.06249151  0.06165138  1
  Zn  Zn151  1  0.80993743  0.06372248  0.55900051  1
  Zn  Zn152  1  0.81316735  0.56233256  0.06512551  1
  Zn  Zn153  1  0.81355310  0.56148084  0.56381395  1
  Zn  Zn154  1  0.43788777  0.43291577  0.18608313  1
  Zn  Zn155  1  0.43512818  0.44365998  0.68821744  1
  Zn  Zn156  1  0.43967252  0.93795097  0.18677669  1
  Zn  Zn157  1  0.43906698  0.94133283  0.68631798  1
  Zn  Zn158  1  0.93621224  0.43588084  0.18948502  1
  Zn  Zn159  1  0.93641127  0.43845491  0.68704881  1
  Zn  Zn160  1  0.93885163  0.93420963  0.18722667  1
  Zn  Zn161  1  0.93592176  0.94023787  0.68909842  1
  Zn  Zn162  1  0.06325565  0.06065192  0.31000529  1
  Zn  Zn163  1  0.06148061  0.06239174  0.81037316  1
  Zn  Zn164  1  0.06517712  0.55870004  0.31670441  1
  Zn  Zn165  1  0.06419736  0.56473508  0.81629231  1
  Zn  Zn166  1  0.56109664  0.05964170  0.30753074  1
  Zn  Zn167  1  0.56274116  0.06285930  0.80708300  1
  Zn  Zn168  1  0.56480081  0.55903529  0.31318773  1
  Zn  Zn169  1  0.56242130  0.56284591  0.81498572  1
  Zn  Zn170  1  0.43158388  0.19446611  0.43340886  1
  Zn  Zn171  1  0.43699741  0.18960727  0.93350769  1
  Zn  Zn172  1  0.43910750  0.68820431  0.43757751  1
  Zn  Zn173  1  0.43578956  0.68787346  0.93772053  1
  Zn  Zn174  1  0.93456334  0.18902356  0.43705154  1
  Zn  Zn175  1  0.93544740  0.18574201  0.93874684  1
  Zn  Zn176  1  0.93804754  0.68627995  0.43577175  1
  Zn  Zn177  1  0.94075387  0.69167229  0.93648471  1
  Zn  Zn178  1  0.06178259  0.31211498  0.06516667  1
  Zn  Zn179  1  0.06673052  0.31292224  0.56244322  1
  Zn  Zn180  1  0.05905592  0.81289421  0.05869831  1
  Zn  Zn181  1  0.06192023  0.81170449  0.56496366  1
  Zn  Zn182  1  0.56265167  0.30997172  0.06456190  1
  Zn  Zn183  1  0.55695631  0.31630237  0.56189182  1
  Zn  Zn184  1  0.56247018  0.81169019  0.06130107  1
  Zn  Zn185  1  0.56337202  0.81427256  0.56028742  1
  O  O186  1  0.11826433  0.11651599  0.12088798  1
  O  O187  1  0.11917255  0.12094823  0.61916792  1
  O  O188  1  0.12841884  0.60800537  0.13090033  1
  O  O189  1  0.11724816  0.62518810  0.61867866  1
  O  O190  1  0.62466044  0.11599838  0.11476929  1
  O  O191  1  0.61336894  0.11597629  0.63109322  1
  O  O192  1  0.61969543  0.62466965  0.11882265  1
  O  O193  1  0.61833852  0.62316193  0.61759646  1
  O  O194  1  0.39174134  0.37799836  0.37237369  1
  O  O195  1  0.38175317  0.37812640  0.88199878  1
  O  O196  1  0.38254522  0.87750663  0.37795226  1
  O  O197  1  0.38098909  0.88240812  0.87880038  1
  O  O198  1  0.88243420  0.37449434  0.38251987  1
  O  O199  1  0.87836932  0.38093359  0.88023127  1
  O  O200  1  0.88085385  0.87950694  0.37927347  1
  O  O201  1  0.87057457  0.89235350  0.87107557  1
  O  O202  1  0.25451124  0.00335056  0.36837633  1
  O  O203  1  0.25541435  0.00797668  0.86779882  1
  O  O204  1  0.24328102  0.50407459  0.36280862  1
  O  O205  1  0.25083628  0.49575575  0.86329060  1
  O  O206  1  0.75723124  0.00692263  0.37009437  1
  O  O207  1  0.75639399  0.01261529  0.87104845  1
  O  O208  1  0.75126508  0.49795188  0.36496862  1
  O  O209  1  0.75531701  0.50546895  0.87083199  1
  O  O210  1  0.24103451  0.49222575  0.13674012  1
  O  O211  1  0.24554703  0.49091954  0.63647041  1
  O  O212  1  0.24168778  0.99418451  0.13055717  1
  O  O213  1  0.24505057  0.99651239  0.62876395  1
  O  O214  1  0.75144144  0.48996830  0.13462472  1
  O  O215  1  0.74445948  0.49434892  0.63125611  1
  O  O216  1  0.74611897  0.99393351  0.12891965  1
  O  O217  1  0.74133702  0.99661803  0.62408510  1
  O  O218  1  0.00589533  0.37259856  0.25792758  1
  O  O219  1  0.00229805  0.37010504  0.75633688  1
  O  O220  1  0.00841501  0.87256650  0.25776907  1
  O  O221  1  0.01278106  0.87835594  0.74813665  1
  O  O222  1  0.50308514  0.36628212  0.25341057  1
  O  O223  1  0.50233759  0.37067928  0.75198712  1
  O  O224  1  0.50263396  0.87166166  0.26266908  1
  O  O225  1  0.50657792  0.87627125  0.75590854  1
  O  O226  1  0.49981523  0.13700316  0.24886106  1
  O  O227  1  0.49163978  0.13371479  0.74334634  1
  O  O228  1  0.49204224  0.62157882  0.24593813  1
  O  O229  1  0.50204535  0.62593491  0.73642199  1
  O  O230  1  0.99116247  0.12374306  0.24185039  1
  O  O231  1  0.99450013  0.13223321  0.74270296  1
  O  O232  1  0.98798812  0.62150930  0.25656547  1
  O  O233  1  0.99206249  0.62470832  0.74441564  1
  O  O234  1  0.36654158  0.25633762  -0.00175355  1
  O  O235  1  0.36754723  0.25934920  0.49636337  1
  O  O236  1  0.37629733  0.75897464  0.00886913  1
  O  O237  1  0.36960080  0.75572567  0.50504301  1
  O  O238  1  0.86694671  0.25576045  0.00116169  1
  O  O239  1  0.86777207  0.25624386  0.50648211  1
  O  O240  1  0.86917398  0.74616094  0.01102533  1
  O  O241  1  0.87478956  0.75652200  0.50635537  1
  O  O242  1  0.13030729  0.24252331  0.49375256  1
  O  O243  1  0.12918677  0.24404079  0.99400662  1
  O  O244  1  0.13195416  0.74485880  0.49591961  1
  O  O245  1  0.12836886  0.74559787  1.00290495  1
  O  O246  1  0.63737794  0.25530351  0.50614126  1
  O  O247  1  0.63129402  0.24267390  0.99545566  1
  O  O248  1  0.62551815  0.74067717  0.49178291  1
  O  O249  1  0.63245377  0.74483683  0.99374244  1
  O  O250  1  0.49765420  0.24884956  0.13610055  1
  O  O251  1  0.50489442  0.24370289  0.63685738  1
  O  O252  1  0.49496202  0.74252579  0.12711641  1
  O  O253  1  0.49630134  0.74203012  0.62360507  1
  O  O254  1  0.99852275  0.23672752  0.12925232  1
  O  O255  1  0.99421901  0.24543982  0.62891768  1
  O  O256  1  0.98528161  0.75308166  0.12973110  1
  O  O257  1  0.99230145  0.74374131  0.62809033  1
  O  O258  1  0.00807647  0.25522046  0.37491691  1
  O  O259  1  0.00269859  0.25397798  0.86950799  1
  O  O260  1  0.00943087  0.75566369  0.37402204  1
  O  O261  1  0.00357971  0.75848266  0.87036656  1
  O  O262  1  0.49842419  0.25694223  0.35955219  1
  O  O263  1  0.50108442  0.25720477  0.86156022  1
  O  O264  1  0.50982128  0.75712480  0.37407994  1
  O  O265  1  0.50811945  0.75837118  0.87474941  1
  O  O266  1  0.24245540  0.12238306  0.49246442  1
  O  O267  1  0.24335916  0.13047613  0.99270199  1
  O  O268  1  0.24618993  0.62861578  0.49733406  1
  O  O269  1  0.24728865  0.62584184  1.00145178  1
  O  O270  1  0.75566419  0.13499623  0.48908434  1
  O  O271  1  0.74500282  0.12984044  0.99051963  1
  O  O272  1  0.73739345  0.62422586  0.49989245  1
  O  O273  1  0.74525004  0.62912036  0.99469211  1
  O  O274  1  0.25342765  0.37001028  0.00499273  1
  O  O275  1  0.24906378  0.38156058  0.51665702  1
  O  O276  1  0.25955739  0.87661924  0.00843929  1
  O  O277  1  0.25562661  0.86933669  0.50490816  1
  O  O278  1  0.75462765  0.37137687  0.00690643  1
  O  O279  1  0.75360627  0.36822510  0.50488603  1
  O  O280  1  0.75712795  0.86806755  0.00645202  1
  O  O281  1  0.75865067  0.87476988  0.50543589  1
  O  O282  1  0.13244830  0.49262293  0.24574134  1
  O  O283  1  0.13154987  0.49260226  0.75075434  1
  O  O284  1  0.13127933  0.99347965  0.24116641  1
  O  O285  1  0.13081548  0.99686671  0.74229773  1
  O  O286  1  0.63806952  0.49770108  0.24715240  1
  O  O287  1  0.63055270  0.49632419  0.74509081  1
  O  O288  1  0.63243987  0.99713759  0.24038456  1
  O  O289  1  0.62619856  0.99425988  0.73742449  1
  O  O290  1  0.36856356  -0.00064276  0.25555412  1
  O  O291  1  0.36979211  0.00947963  0.75455266  1
  O  O292  1  0.36417025  0.50868990  0.24280716  1
  O  O293  1  0.36357948  0.50510099  0.75289447  1
  O  O294  1  0.86993168  0.00737414  0.25391814  1
  O  O295  1  0.86990390  0.00891375  0.75802052  1
  O  O296  1  0.86715426  0.50579132  0.25165594  1
  O  O297  1  0.86871069  0.50497809  0.75683253  1
  O  O298  1  0.12041324  0.36879058  0.37144944  1
  O  O299  1  0.11741949  0.36821069  0.87058347  1
  O  O300  1  0.12236797  0.86898779  0.37047844  1
  O  O301  1  0.12501225  0.88272863  0.86144399  1
  O  O302  1  0.60804743  0.37844783  0.37272482  1
  O  O303  1  0.61789042  0.37449593  0.86741124  1
  O  O304  1  0.61838929  0.86655144  0.37608083  1
  O  O305  1  0.62177391  0.87193988  0.86932209  1
  O  O306  1  0.37893978  0.12681436  0.12723567  1
  O  O307  1  0.38261873  0.11789680  0.63731517  1
  O  O308  1  0.38146629  0.62898341  0.13514019  1
  O  O309  1  0.38571097  0.63238467  0.62420772  1
  O  O310  1  0.88240259  0.12119279  0.13259877  1
  O  O311  1  0.88009866  0.13021072  0.62817255  1
  O  O312  1  0.86816318  0.63334499  0.13675607  1
  O  O313  1  0.87844680  0.63051880  0.63091981  1
  O  O314  1  0.24794744  0.25608707  0.11729510  1
  O  O315  1  0.24398132  0.26686031  0.62677458  1
  O  O316  1  0.25943216  0.75796309  0.12674006  1
  O  O317  1  0.25607331  0.75652785  0.61909959  1
  O  O318  1  0.75226174  0.25711023  0.11928567  1
  O  O319  1  0.75411415  0.25458136  0.61767124  1
  O  O320  1  0.75739282  0.75467841  0.12091762  1
  O  O321  1  0.75626138  0.75769652  0.62164984  1
  O  O322  1  0.24245920  0.24192620  0.37318546  1
  O  O323  1  0.24200782  0.24557878  0.87860082  1
  O  O324  1  0.24615790  0.74310869  0.38190243  1
  O  O325  1  0.24381944  0.75058339  0.87977582  1
  O  O326  1  0.75403058  0.24005175  0.38416719  1
  O  O327  1  0.74950277  0.23969813  0.87973619  1
  O  O328  1  0.73897659  0.74866967  0.37821153  1
  O  O329  1  0.74636408  0.74498012  0.88044036  1
  O  O330  1  0.00588604  0.12855733  0.01184685  1
  O  O331  1  0.00478069  0.11960524  0.50396097  1
  O  O332  1  -0.00183663  0.60808286  -0.00177175  1
  O  O333  1  0.00460716  0.61968394  0.50582128  1
  O  O334  1  0.50676942  0.11858275  -0.00457239  1
  O  O335  1  0.49019091  0.12865162  0.51397590  1
  O  O336  1  0.50570548  0.61937597  0.00608983  1
  O  O337  1  0.50782506  0.62027447  0.50722261  1
  O  O338  1  0.49838976  0.38535992  0.49385187  1
  O  O339  1  0.49591179  0.37843575  0.99513486  1
  O  O340  1  0.49414978  0.87473128  0.48707257  1
  O  O341  1  0.49554027  0.88198132  0.99292899  1
  O  O342  1  0.99476723  0.37911648  0.49746829  1
  O  O343  1  0.99347324  0.37979587  0.99547756  1
  O  O344  1  0.99607162  0.88083897  0.49472565  1
  O  O345  1  0.99358290  0.88140594  1.00099636  1
  O  O346  1  0.50372064  0.49609297  0.38712177  1
  O  O347  1  0.49941838  0.49378365  0.88262547  1
  O  O348  1  0.49595987  0.99083686  0.37477972  1
  O  O349  1  0.49509761  0.99623665  0.87800512  1
  O  O350  1  0.99983991  0.49061785  0.38467515  1
  O  O351  1  0.99402075  0.49253559  0.88501393  1
  O  O352  1  0.99610383  0.99330450  0.37976442  1
  O  O353  1  0.98361652  1.00193954  0.86925933  1
  O  O354  1  0.01170691  0.00869444  0.13216700  1
  O  O355  1  0.00457718  0.00702366  0.61851420  1
  O  O356  1  0.00877899  0.48977736  0.11748602  1
  O  O357  1  -0.00026301  0.50719617  0.61943613  1
  O  O358  1  0.50778902  0.00017158  0.11619150  1
  O  O359  1  0.50672792  0.00981799  0.62138004  1
  O  O360  1  0.50306885  0.50495405  0.11925438  1
  O  O361  1  0.50571541  0.50912807  0.61815382  1
  O  O362  1  0.24667697  0.38141794  0.24752596  1
  O  O363  1  0.24440268  0.38113131  0.74217494  1
  O  O364  1  0.24526103  0.87946374  0.24499321  1
  O  O365  1  0.24328359  0.88364246  0.74283248  1
  O  O366  1  0.75164990  0.37991303  0.24375987  1
  O  O367  1  0.74449316  0.38021743  0.74450364  1
  O  O368  1  0.74866721  0.88185632  0.24439268  1
  O  O369  1  0.74187778  0.87827659  0.74061774  1
  O  O370  1  0.24903355  0.11647772  0.25624167  1
  O  O371  1  0.25603959  0.12294214  0.75266137  1
  O  O372  1  0.25834196  0.61605330  0.25615438  1
  O  O373  1  0.24898719  0.61350199  0.74860096  1
  O  O374  1  0.75860635  0.11995257  0.25540528  1
  O  O375  1  0.75451641  0.12886841  0.75759089  1
  O  O376  1  0.75891286  0.61328839  0.25251134  1
  O  O377  1  0.75442567  0.61898542  0.75555906  1
  O  O378  1  0.36802693  0.11570677  0.37124066  1
  O  O379  1  0.36893744  0.12068161  0.86419786  1
  O  O380  1  0.37034249  0.63001391  0.36400705  1
  O  O381  1  0.37108598  0.62281681  0.87176600  1
  O  O382  1  0.87207869  0.11775953  0.36544194  1
  O  O383  1  0.86741833  0.11814565  0.86960855  1
  O  O384  1  0.87102286  0.62199756  0.36665118  1
  O  O385  1  0.86917709  0.61940205  0.87063879  1
  O  O386  1  0.13051011  0.38104961  0.13277652  1
  O  O387  1  0.13179225  0.37801810  0.63351103  1
  O  O388  1  0.13034828  0.88215892  0.13080710  1
  O  O389  1  0.13112781  0.88260929  0.63007797  1
  O  O390  1  0.64036198  0.37612143  0.12544085  1
  O  O391  1  0.62900187  0.38259877  0.63096737  1
  O  O392  1  0.63303963  0.87964441  0.12463168  1
  O  O393  1  0.62850576  0.88298880  0.62775228  1
  O  O394  1  0.12366066  0.25598898  0.25697127  1
  O  O395  1  0.11691864  0.25461855  0.75661579  1
  O  O396  1  0.12611775  0.75460251  0.25664191  1
  O  O397  1  0.12467256  0.76582260  0.74784036  1
  O  O398  1  0.61169362  0.25076213  0.24405615  1
  O  O399  1  0.61440242  0.25824519  0.75116278  1
  O  O400  1  0.62461732  0.74882098  0.26150484  1
  O  O401  1  0.62328632  0.75789654  0.75664002  1
  O  O402  1  0.38819109  0.24760220  0.24544688  1
  O  O403  1  0.38235416  0.24078610  0.75449316  1
  O  O404  1  0.37764183  0.73747063  0.24407331  1
  O  O405  1  0.37788909  0.74991500  0.74044575  1
  O  O406  1  0.87575666  0.23546377  0.24852104  1
  O  O407  1  0.87937645  0.24571460  0.74321977  1
  O  O408  1  0.87570213  0.73889679  0.24428950  1
  O  O409  1  0.87443958  0.74340306  0.74337623  1
  O  O410  1  0.38751560  0.49866405  0.50765226  1
  O  O411  1  0.38287268  0.49152876  1.00129487  1
  O  O412  1  0.37788207  0.99239492  0.49036867  1
  O  O413  1  0.38039198  0.99545300  0.99240486  1
  O  O414  1  0.88015690  0.49211464  0.49987522  1
  O  O415  1  0.88114928  0.49371555  0.99717829  1
  O  O416  1  0.88145004  0.99481371  0.49403259  1
  O  O417  1  0.86860232  1.00234517  0.98241775  1
  O  O418  1  0.13322668  0.00580367  0.01299864  1
  O  O419  1  0.11903413  0.00489506  0.50435842  1
  O  O420  1  0.11584883  0.49692774  0.01189055  1
  O  O421  1  0.11718770  0.50811332  0.50319585  1
  O  O422  1  0.62096366  0.00440424  0.00236049  1
  O  O423  1  0.62142587  -0.00439497  0.51207530  1
  O  O424  1  0.61943654  0.50767769  0.00264613  1
  O  O425  1  0.61740936  0.50929066  0.50632852  1
  O  O426  1  0.36588556  0.37275070  0.11683799  1
  O  O427  1  0.35898800  0.37929833  0.62828029  1
  O  O428  1  0.37175631  0.87016926  0.12072713  1
  O  O429  1  0.37078336  0.87241793  0.61891819  1
  O  O430  1  0.86461679  0.37175328  0.12043017  1
  O  O431  1  0.86748534  0.36956077  0.62046435  1
  O  O432  1  0.86754551  0.86461782  0.12849727  1
  O  O433  1  0.87026202  0.87201432  0.61983036  1
  O  O434  1  0.12950314  0.12786141  0.37932662  1
  O  O435  1  0.12888918  0.12927938  0.87880857  1
  O  O436  1  0.13303145  0.62997055  0.38172698  1
  O  O437  1  0.12928784  0.62687000  0.88184482  1
  O  O438  1  0.63980952  0.11755538  0.36884943  1
  O  O439  1  0.63457156  0.12484577  0.87693790  1
  O  O440  1  0.62428723  0.63290743  0.38453755  1
  O  O441  1  0.63099854  0.63151698  0.88031354  1
