# generated using pymatgen
data_V93Zn93O256
_symmetry_space_group_name_H-M   'P 1'
_cell_length_a   17.06024691
_cell_length_b   17.06523836
_cell_length_c   17.06324937
_cell_angle_alpha   90.00406430
_cell_angle_beta   89.94379309
_cell_angle_gamma   89.88202504
_symmetry_Int_Tables_number   1
_chemical_formula_structural   V93Zn93O256
_chemical_formula_sum   'V93 Zn93 O256'
_cell_volume   4967.73336877
_cell_formula_units_Z   1
loop_
 _symmetry_equiv_pos_site_id
 _symmetry_equiv_pos_as_xyz
  1  'x, y, z'
loop_
 _atom_site_type_symbol
 _atom_site_label
 _atom_site_symmetry_multiplicity
 _atom_site_fract_x
 _atom_site_fract_y
 _atom_site_fract_z
 _atom_site_occupancy
  V  V0  1  0.74915174  0.37164392  0.12489448  1
  V  V1  1  0.87566522  0.63034067  0.24504648  1
  V  V2  1  0.37614507  0.49976561  0.87362581  1
  V  V3  1  0.12136324  0.50369987  0.62390724  1
  V  V4  1  -0.00097794  0.24941885  0.24952620  1
  V  V5  1  0.62603406  0.12473809  0.50009000  1
  V  V6  1  0.75124499  0.62315115  0.87496834  1
  V  V7  1  0.12466412  0.12538022  0.50078029  1
  V  V8  1  -0.00052911  0.12497476  0.62636614  1
  V  V9  1  0.87332437  0.74842242  0.62626276  1
  V  V10  1  0.75008561  0.00317239  0.75361757  1
  V  V11  1  0.50173773  0.74767491  0.74777709  1
  V  V12  1  0.00001227  -0.00188552  0.49946474  1
  V  V13  1  0.74419388  0.62440938  0.37934403  1
  V  V14  1  0.12430348  0.37468547  0.75136348  1
  V  V15  1  0.12515015  0.00031942  0.62608542  1
  V  V16  1  0.50046211  0.87535087  0.37351596  1
  V  V17  1  0.87406585  0.24970028  0.62667670  1
  V  V18  1  0.50529785  0.25358442  0.74858415  1
  V  V19  1  0.24947491  0.37797256  0.12462110  1
  V  V20  1  0.12552066  0.87443394  0.74974442  1
  V  V21  1  0.62572906  0.87494266  0.75053750  1
  V  V22  1  0.24934260  0.75145579  -0.00098813  1
  V  V23  1  0.74425348  0.49455130  0.75185996  1
  V  V24  1  0.12390661  0.25139519  0.37555981  1
  V  V25  1  0.50203549  0.50738970  0.50590720  1
  V  V26  1  0.25110433  0.25058111  -0.00122622  1
  V  V27  1  0.50663881  0.37530718  0.86972735  1
  V  V28  1  0.25115167  0.87513871  0.62484045  1
  V  V29  1  0.87584499  0.87146582  0.00603223  1
  V  V30  1  0.62686920  0.75004739  0.87489768  1
  V  V31  1  0.37640782  0.87519715  -0.00113047  1
  V  V32  1  0.00661717  0.00261587  0.00421053  1
  V  V33  1  0.74959163  0.24957361  0.50117515  1
  V  V34  1  0.25055632  0.12623715  0.37451391  1
  V  V35  1  0.37646396  0.25107607  0.12409195  1
  V  V36  1  -0.00219802  0.37513709  0.37608999  1
  V  V37  1  0.12625622  0.24897141  0.87539809  1
  V  V38  1  0.37574721  0.00090357  0.37414086  1
  V  V39  1  0.50092761  0.87487792  0.87515068  1
  V  V40  1  0.75548057  0.74957318  0.00702993  1
  V  V41  1  0.87772128  0.24443965  0.12528346  1
  V  V42  1  0.37427290  0.87518244  0.50030492  1
  V  V43  1  -0.00064259  0.74868619  0.74974553  1
  V  V44  1  -0.00004207  0.24936637  0.75191729  1
  V  V45  1  0.74184140  0.37631106  0.63007870  1
  V  V46  1  0.24896079  0.37507865  0.62551260  1
  V  V47  1  0.62523758  -0.00019989  0.62629851  1
  V  V48  1  0.49997260  0.62487126  0.12396652  1
  V  V49  1  0.37589750  0.12543066  0.74929230  1
  V  V50  1  0.25003006  0.25039630  0.50006181  1
  V  V51  1  0.24662376  0.00389586  0.24373365  1
  V  V52  1  0.87858989  0.87307541  0.49824085  1
  V  V53  1  0.50057197  0.00017925  0.49948214  1
  V  V54  1  0.50228662  0.75214265  0.25095960  1
  V  V55  1  0.50053021  0.25015777  0.24830379  1
  V  V56  1  0.50084334  0.12599751  0.62435351  1
  V  V57  1  0.12522789  0.75019465  0.87485530  1
  V  V58  1  0.37849034  0.74798446  0.62420641  1
  V  V59  1  0.37111877  0.62517261  0.24995072  1
  V  V60  1  0.75049578  0.24174321  -0.00515431  1
  V  V61  1  0.12491682  0.37621892  0.24962342  1
  V  V62  1  0.62829621  0.24493166  0.87190110  1
  V  V63  1  0.24996532  0.50061110  0.75105686  1
  V  V64  1  0.37985197  0.62476082  0.74576193  1
  V  V65  1  0.25073977  0.00121171  0.75050870  1
  V  V66  1  0.37561584  0.75144133  0.12346193  1
  V  V67  1  0.87411675  0.37506055  0.50066892  1
  V  V68  1  0.37611759  0.25034755  0.62445494  1
  V  V69  1  0.62581797  0.62519769  -0.00007040  1
  V  V70  1  0.12451912  0.62656156  0.00420604  1
  V  V71  1  0.24436081  0.88140901  0.12313472  1
  V  V72  1  0.75008526  0.87488265  0.62623443  1
  V  V73  1  0.87623990  0.37348304  0.00034706  1
  V  V74  1  0.37684683  0.12682907  0.24892379  1
  V  V75  1  0.37181853  0.50131013  0.37344111  1
  V  V76  1  0.12366953  0.87637885  0.25945174  1
  V  V77  1  0.62373127  0.49798699  0.12422166  1
  V  V78  1  0.50153882  0.00233654  0.00011144  1
  V  V79  1  0.62906838  -0.00222119  0.12588609  1
  V  V80  1  0.87170181  0.12350620  0.75261341  1
  V  V81  1  0.74779471  0.49727772  0.25054149  1
  V  V82  1  0.50013735  0.49979795  -0.00189621  1
  V  V83  1  0.75149697  0.12291866  0.37352134  1
  V  V84  1  0.00015856  0.50008815  0.00355246  1
  V  V85  1  0.87078553  0.00282536  0.87577228  1
  V  V86  1  0.62366168  0.37278472  0.24917513  1
  V  V87  1  0.87923475  -0.00408209  0.37553278  1
  V  V88  1  0.25123395  0.12627289  0.87406508  1
  V  V89  1  0.87472532  0.49849268  0.87590239  1
  V  V90  1  0.87256139  0.49753401  0.37563049  1
  V  V91  1  0.37519403  0.37510766  0.49912154  1
  V  V92  1  0.50026206  0.37421112  0.37354313  1
  Zn  Zn93  1  0.74660934  0.74890541  0.50097371  1
  Zn  Zn94  1  0.75359289  0.86969938  0.13059383  1
  Zn  Zn95  1  0.61942929  0.63208305  0.51289497  1
  Zn  Zn96  1  0.12191413  0.50367984  0.12794909  1
  Zn  Zn97  1  0.37608211  0.37558525  -0.00146949  1
  Zn  Zn98  1  0.00102710  0.37382256  0.87640862  1
  Zn  Zn99  1  0.24437054  0.63123238  0.37655849  1
  Zn  Zn100  1  0.87517025  0.62159974  0.74919698  1
  Zn  Zn101  1  -0.00179166  0.50327058  0.49981405  1
  Zn  Zn102  1  0.13101306  0.12099927  0.00584974  1
  Zn  Zn103  1  0.50340114  0.12679240  0.12376529  1
  Zn  Zn104  1  0.25096765  0.62460408  0.87574348  1
  Zn  Zn105  1  0.62980392  0.87512394  0.25209013  1
  Zn  Zn106  1  0.24595154  0.74834512  0.49719386  1
  Zn  Zn107  1  0.12247813  0.62810820  0.49476418  1
  Zn  Zn108  1  0.63010619  0.12183894  -0.00232910  1
  Zn  Zn109  1  0.61624463  0.50309052  0.63613279  1
  Zn  Zn110  1  0.11561448  0.74949494  0.38012827  1
  Zn  Zn111  1  -0.01776518  0.64471540  0.11645991  1
  Zn  Zn112  1  -0.00001035  0.87595519  0.87618640  1
  Zn  Zn113  1  0.01279724  0.11922276  0.13181562  1
  Zn  Zn114  1  0.62541535  0.24870681  0.37381483  1
  Zn  Zn115  1  -0.00680360  0.76268531  0.25120952  1
  Zn  Zn116  1  0.87723026  0.12118672  0.24994186  1
  Zn  Zn117  1  0.75235817  -0.00421843  0.24874578  1
  Zn  Zn118  1  -0.00166453  0.62466768  0.62085958  1
  Zn  Zn119  1  0.24514006  0.50281914  0.24985504  1
  Zn  Zn120  1  0.62427550  0.75089840  0.37984212  1
  Zn  Zn121  1  0.37638722  0.00077844  0.87421836  1
  Zn  Zn122  1  0.18703157  0.19032160  0.18495248  1
  Zn  Zn123  1  0.18746875  0.18799202  0.68808698  1
  Zn  Zn124  1  0.18594149  0.69423785  0.18540887  1
  Zn  Zn125  1  0.19133381  0.68666778  0.68694005  1
  Zn  Zn126  1  0.68737518  0.18369821  0.18558093  1
  Zn  Zn127  1  0.68800713  0.18730222  0.68935404  1
  Zn  Zn128  1  0.68786313  0.68348768  0.18952288  1
  Zn  Zn129  1  0.68800549  0.68178240  0.68776514  1
  Zn  Zn130  1  0.31231485  0.31364801  0.31086264  1
  Zn  Zn131  1  0.31552825  0.31382273  0.81239835  1
  Zn  Zn132  1  0.30893116  0.81332213  0.31372491  1
  Zn  Zn133  1  0.31288207  0.81232326  0.81275776  1
  Zn  Zn134  1  0.81165512  0.30999352  0.31207282  1
  Zn  Zn135  1  0.81332556  0.31309035  0.81346137  1
  Zn  Zn136  1  0.80936077  0.81092969  0.31528529  1
  Zn  Zn137  1  0.81297897  0.81519477  0.81688948  1
  Zn  Zn138  1  0.18630829  0.43890274  0.43843128  1
  Zn  Zn139  1  0.18714511  0.43756638  0.93739679  1
  Zn  Zn140  1  0.19068236  0.93935240  0.43813859  1
  Zn  Zn141  1  0.18868142  0.93651573  0.93326752  1
  Zn  Zn142  1  0.68582996  0.43593733  0.43830812  1
  Zn  Zn143  1  0.68790815  0.43255932  0.93793515  1
  Zn  Zn144  1  0.68887942  0.93537720  0.43780460  1
  Zn  Zn145  1  0.68968650  0.93522355  0.93913433  1
  Zn  Zn146  1  0.31637185  0.06533664  0.06092121  1
  Zn  Zn147  1  0.31282909  0.06248927  0.56271340  1
  Zn  Zn148  1  0.31245937  0.56267133  0.06091883  1
  Zn  Zn149  1  0.30853733  0.56444890  0.56134848  1
  Zn  Zn150  1  0.81573242  0.05985136  0.06153678  1
  Zn  Zn151  1  0.81212307  0.06130645  0.56360131  1
  Zn  Zn152  1  0.80933255  0.55900374  0.06185696  1
  Zn  Zn153  1  0.81007006  0.56113294  0.56393279  1
  Zn  Zn154  1  0.43668329  0.43734459  0.18660762  1
  Zn  Zn155  1  0.43584609  0.43550387  0.68813903  1
  Zn  Zn156  1  0.43673892  0.93853019  0.18526990  1
  Zn  Zn157  1  0.43816514  0.93655406  0.68779029  1
  Zn  Zn158  1  0.93566313  0.43746975  0.18822384  1
  Zn  Zn159  1  0.93526046  0.43544223  0.68911388  1
  Zn  Zn160  1  0.93748935  0.93875367  0.18632222  1
  Zn  Zn161  1  0.93826677  0.93587326  0.68726808  1
  Zn  Zn162  1  0.06228415  0.06269359  0.31293133  1
  Zn  Zn163  1  0.06081906  0.06265574  0.81721367  1
  Zn  Zn164  1  0.06003300  0.56268142  0.31336852  1
  Zn  Zn165  1  0.06210170  0.56373597  0.81469151  1
  Zn  Zn166  1  0.56409595  0.06242431  0.31045058  1
  Zn  Zn167  1  0.56288108  0.06473672  0.81309013  1
  Zn  Zn168  1  0.56062668  0.56168907  0.31422271  1
  Zn  Zn169  1  0.56331116  0.56427159  0.81294856  1
  Zn  Zn170  1  0.43863419  0.18793794  0.43579337  1
  Zn  Zn171  1  0.43772139  0.18872593  0.93614101  1
  Zn  Zn172  1  0.43360224  0.68889273  0.43600137  1
  Zn  Zn173  1  0.43745627  0.68701082  0.93425962  1
  Zn  Zn174  1  0.93681260  0.18646477  0.43849992  1
  Zn  Zn175  1  0.93843458  0.18455796  0.93653018  1
  Zn  Zn176  1  0.94425113  0.68745129  0.43176565  1
  Zn  Zn177  1  0.93764349  0.68674402  0.93389927  1
  Zn  Zn178  1  0.06468741  0.31073584  0.06209457  1
  Zn  Zn179  1  0.06084090  0.31455481  0.56365120  1
  Zn  Zn180  1  0.05911461  0.81492003  0.06798299  1
  Zn  Zn181  1  0.06156191  0.81166171  0.56264878  1
  Zn  Zn182  1  0.56294724  0.31193885  0.05805620  1
  Zn  Zn183  1  0.56317233  0.31481653  0.55952471  1
  Zn  Zn184  1  0.56571510  0.81375084  0.06298458  1
  Zn  Zn185  1  0.56166930  0.81251247  0.56204045  1
  O  O186  1  0.12399176  0.13008806  0.11808847  1
  O  O187  1  0.11992699  0.12030303  0.62012867  1
  O  O188  1  0.12620023  0.62539738  0.11188906  1
  O  O189  1  0.12482789  0.61144157  0.62891672  1
  O  O190  1  0.62269656  0.11346386  0.11976402  1
  O  O191  1  0.61976906  0.11934413  0.61970718  1
  O  O192  1  0.61922736  0.61753596  0.11971028  1
  O  O193  1  0.62949219  0.61422849  0.62340046  1
  O  O194  1  0.37949311  0.38241331  0.37837236  1
  O  O195  1  0.38658524  0.38149806  0.87558164  1
  O  O196  1  0.38039018  0.88226230  0.37992900  1
  O  O197  1  0.38277249  0.87606849  0.88091909  1
  O  O198  1  0.87738410  0.37753856  0.38041500  1
  O  O199  1  0.87772058  0.38065211  0.88333442  1
  O  O200  1  0.86717676  0.88496764  0.38740392  1
  O  O201  1  0.87785984  0.88438266  0.88493623  1
  O  O202  1  0.25728816  0.00769257  0.36654725  1
  O  O203  1  0.25309390  0.00695179  0.86758257  1
  O  O204  1  0.26389263  0.49833042  0.37248186  1
  O  O205  1  0.25748683  0.49983795  0.86830812  1
  O  O206  1  0.75996656  0.00873737  0.37804117  1
  O  O207  1  0.76130087  -0.00618169  0.86923907  1
  O  O208  1  0.75230309  0.50413259  0.37001848  1
  O  O209  1  0.75478587  0.50131763  0.87113666  1
  O  O210  1  0.24939857  0.48860699  0.12553732  1
  O  O211  1  0.24270412  0.49333593  0.63147471  1
  O  O212  1  0.26072250  0.99353312  0.13414043  1
  O  O213  1  0.24438314  0.99647572  0.63080608  1
  O  O214  1  0.74220421  0.49129197  0.12934905  1
  O  O215  1  0.75311502  0.49007297  0.63617952  1
  O  O216  1  0.74068687  0.99913577  0.12413292  1
  O  O217  1  0.74398332  0.99424729  0.63162054  1
  O  O218  1  0.00453361  0.36913403  0.25578646  1
  O  O219  1  0.00571924  0.36663550  0.75268150  1
  O  O220  1  0.02320693  0.88728042  0.24142762  1
  O  O221  1  0.00682536  0.86451397  0.74961743  1
  O  O222  1  0.50447489  0.37005013  0.25386435  1
  O  O223  1  0.49621304  0.36928321  0.76027160  1
  O  O224  1  0.49690989  0.86508328  0.25440564  1
  O  O225  1  0.50676279  0.86952525  0.75545842  1
  O  O226  1  0.49378466  0.13202680  0.24900448  1
  O  O227  1  0.49552986  0.13136842  0.74243845  1
  O  O228  1  0.49085109  0.63175317  0.24469514  1
  O  O229  1  0.48850482  0.63094364  0.75508225  1
  O  O230  1  0.99706273  0.13310369  0.24944424  1
  O  O231  1  0.99390323  0.12938576  0.74447724  1
  O  O232  1  0.97853423  0.61599981  0.24740451  1
  O  O233  1  0.99753826  0.63776508  0.74849173  1
  O  O234  1  0.36945223  0.25274329  0.00566841  1
  O  O235  1  0.36987288  0.25469787  0.50459644  1
  O  O236  1  0.37070942  0.75475932  0.00396238  1
  O  O237  1  0.37623600  0.75674693  0.51017492  1
  O  O238  1  0.87035525  0.25322504  0.00546855  1
  O  O239  1  0.86893278  0.25403856  0.50737512  1
  O  O240  1  0.86672659  0.75840216  -0.00782516  1
  O  O241  1  0.87471762  0.75836899  0.51018481  1
  O  O242  1  0.13017613  0.24550030  0.49583258  1
  O  O243  1  0.13380961  0.25068097  0.99099883  1
  O  O244  1  0.12784830  0.74910343  0.49959320  1
  O  O245  1  0.12869079  0.74481465  0.99562779  1
  O  O246  1  0.63149264  0.24265901  0.49792229  1
  O  O247  1  0.63453301  0.24777370  0.99308876  1
  O  O248  1  0.62729568  0.74730644  0.49788855  1
  O  O249  1  0.63265756  0.74466702  0.99398044  1
  O  O250  1  0.49435314  0.25056255  0.12976940  1
  O  O251  1  0.49610526  0.24628947  0.62769095  1
  O  O252  1  0.49544873  0.74514356  0.13095995  1
  O  O253  1  0.48621604  0.75807501  0.63263575  1
  O  O254  1  0.98964522  0.25197975  0.12978685  1
  O  O255  1  0.99428203  0.24445176  0.63127627  1
  O  O256  1  1.00327315  0.75125562  0.13944530  1
  O  O257  1  0.98978484  0.75041732  0.63489032  1
  O  O258  1  0.00435536  0.25506687  0.37080109  1
  O  O259  1  0.00711546  0.24943524  0.86883948  1
  O  O260  1  0.00113047  0.75288013  0.36220714  1
  O  O261  1  0.00561312  0.75211456  0.86504990  1
  O  O262  1  0.50136013  0.25643194  0.36749307  1
  O  O263  1  0.50675578  0.25764822  0.86999117  1
  O  O264  1  0.49765050  0.75549278  0.36497329  1
  O  O265  1  0.50728667  0.75535225  0.86912386  1
  O  O266  1  0.24478585  0.13034991  0.49504951  1
  O  O267  1  0.25262869  0.13173115  0.99138820  1
  O  O268  1  0.24474318  0.62830289  0.49622079  1
  O  O269  1  0.24189845  0.63219932  0.99892136  1
  O  O270  1  0.74549848  0.12910438  0.49440871  1
  O  O271  1  0.75328786  0.13908675  1.00139897  1
  O  O272  1  0.74855608  0.62328926  0.48830389  1
  O  O273  1  0.74549424  0.63021567  0.99482829  1
  O  O274  1  0.25205582  0.37042250  0.00880425  1
  O  O275  1  0.25545531  0.36924852  0.50509843  1
  O  O276  1  0.25561387  0.87282707  0.00554381  1
  O  O277  1  0.25876543  0.87832440  0.50847705  1
  O  O278  1  0.75617300  0.36538633  0.00682866  1
  O  O279  1  0.75475854  0.36961874  0.50773184  1
  O  O280  1  0.75828999  0.86442623  0.00069628  1
  O  O281  1  0.76096977  0.87455903  0.50840791  1
  O  O282  1  0.12609967  0.49223241  0.24603150  1
  O  O283  1  0.12953721  0.49477649  0.74531030  1
  O  O284  1  0.14073048  0.99604411  0.25487474  1
  O  O285  1  0.12990647  0.99577861  0.74523276  1
  O  O286  1  0.62730812  0.49340439  0.24341791  1
  O  O287  1  0.63974513  0.49987205  0.75521053  1
  O  O288  1  0.62589246  0.99815638  0.23836100  1
  O  O289  1  0.62907413  0.99533526  0.74577344  1
  O  O290  1  0.36796872  0.00632701  0.25474525  1
  O  O291  1  0.36961368  0.00717198  0.74962647  1
  O  O292  1  0.37645144  0.50917181  0.25720613  1
  O  O293  1  0.37122581  0.50759069  0.75240618  1
  O  O294  1  0.87471978  0.00026597  0.26186614  1
  O  O295  1  0.87124113  0.00224092  0.75699009  1
  O  O296  1  0.86493592  0.50187170  0.25634018  1
  O  O297  1  0.86617654  0.49971864  0.75833503  1
  O  O298  1  0.11947749  0.37008383  0.37067770  1
  O  O299  1  0.12444086  0.36800679  0.86788365  1
  O  O300  1  0.13070656  0.88036051  0.36106309  1
  O  O301  1  0.12366083  0.86752357  0.86663718  1
  O  O302  1  0.61883270  0.37242406  0.36685610  1
  O  O303  1  0.61342031  0.36428770  0.88047619  1
  O  O304  1  0.61580592  0.87363393  0.37250557  1
  O  O305  1  0.62092857  0.86913915  0.86947325  1
  O  O306  1  0.37780850  0.13352914  0.13213380  1
  O  O307  1  0.38127360  0.13139496  0.62847462  1
  O  O308  1  0.38076373  0.63021863  0.13093013  1
  O  O309  1  0.36964929  0.63478497  0.63589341  1
  O  O310  1  0.87779526  0.13669522  0.12609238  1
  O  O311  1  0.88070864  0.12990548  0.63045084  1
  O  O312  1  0.86727440  0.61744784  0.14077474  1
  O  O313  1  0.87331841  0.63765534  0.62760518  1
  O  O314  1  0.25703700  0.26041536  0.11973483  1
  O  O315  1  0.25542364  0.25480640  0.61924882  1
  O  O316  1  0.25692338  0.76128681  0.11813358  1
  O  O317  1  0.26318018  0.75824911  0.62744898  1
  O  O318  1  0.75800735  0.25293534  0.11738247  1
  O  O319  1  0.75412103  0.25726298  0.62171126  1
  O  O320  1  0.74318544  0.74745764  0.10985547  1
  O  O321  1  0.75994176  0.75655032  0.62779504  1
  O  O322  1  0.24496004  0.24591436  0.38067289  1
  O  O323  1  0.24680896  0.24596775  0.87830377  1
  O  O324  1  0.24472244  0.74968548  0.37838305  1
  O  O325  1  0.24357429  0.74941626  0.88165966  1
  O  O326  1  0.75048198  0.23908380  0.38206370  1
  O  O327  1  0.74024175  0.25896668  0.88395816  1
  O  O328  1  0.74638849  0.73729555  0.37798278  1
  O  O329  1  0.74511901  0.74386415  0.88282190  1
  O  O330  1  0.00055758  0.10969728  -0.00114006  1
  O  O331  1  0.00587619  0.12020536  0.50711556  1
  O  O332  1  0.00584413  0.61922490  0.00206378  1
  O  O333  1  0.00262108  0.61997715  0.50416240  1
  O  O334  1  0.49955488  0.11180890  0.00023450  1
  O  O335  1  0.50521080  0.11995567  0.50466303  1
  O  O336  1  0.50626665  0.62068203  0.00404456  1
  O  O337  1  0.49597209  0.60947847  0.49439037  1
  O  O338  1  0.49305484  0.38194398  0.49267322  1
  O  O339  1  0.49826155  0.38226305  0.98973379  1
  O  O340  1  0.49364972  0.88226673  0.49434534  1
  O  O341  1  0.49660066  0.88186367  0.99482319  1
  O  O342  1  0.99144883  0.37473294  0.49364613  1
  O  O343  1  0.99536255  0.38342300  0.99905150  1
  O  O344  1  0.98584829  0.88314043  0.50969613  1
  O  O345  1  0.99325158  0.88438860  0.99882482  1
  O  O346  1  0.48863207  0.49445633  0.38127087  1
  O  O347  1  0.49750844  0.49280579  0.87785525  1
  O  O348  1  0.49470630  0.99645449  0.37984644  1
  O  O349  1  0.50117741  0.99350503  0.88363314  1
  O  O350  1  0.99027680  0.49021633  0.37566778  1
  O  O351  1  0.99427207  0.49985859  0.88742858  1
  O  O352  1  0.98730192  1.00812113  0.38395846  1
  O  O353  1  0.98958917  0.99668629  0.88332829  1
  O  O354  1  -0.00719955  0.00232990  0.10714538  1
  O  O355  1  0.00587985  0.00597516  0.62080714  1
  O  O356  1  -0.00132081  0.50099609  0.11109364  1
  O  O357  1  0.00935496  0.49977989  0.62708018  1
  O  O358  1  0.50812349  -0.00098552  0.11471894  1
  O  O359  1  0.50564242  0.00564632  0.61979673  1
  O  O360  1  0.50447370  0.50494949  0.11884307  1
  O  O361  1  0.49764243  0.49177058  0.60900734  1
  O  O362  1  0.24414245  0.37545776  0.24044043  1
  O  O363  1  0.24544805  0.38001433  0.74405611  1
  O  O364  1  0.24627300  0.88642721  0.24179100  1
  O  O365  1  0.24564088  0.88128622  0.74483625  1
  O  O366  1  0.74337592  0.37741227  0.24454176  1
  O  O367  1  0.75566922  0.38186656  0.74060964  1
  O  O368  1  0.74774138  0.87667080  0.24677458  1
  O  O369  1  0.74398549  0.88161416  0.74604215  1
  O  O370  1  0.25600789  0.12122415  0.25488863  1
  O  O371  1  0.25620313  0.12087509  0.75346983  1
  O  O372  1  0.26352378  0.62516364  0.24478177  1
  O  O373  1  0.26126536  0.61917121  0.75344027  1
  O  O374  1  0.75301343  0.12252338  0.26290574  1
  O  O375  1  0.75930274  0.11537756  0.74281750  1
  O  O376  1  0.75445812  0.61668494  0.25771232  1
  O  O377  1  0.75353577  0.61368107  0.75902417  1
  O  O378  1  0.36954779  0.12085963  0.36970193  1
  O  O379  1  0.36981181  0.12471349  0.86594524  1
  O  O380  1  0.37453816  0.61713469  0.36430154  1
  O  O381  1  0.37390349  0.61899254  0.86456381  1
  O  O382  1  0.86584177  0.11556141  0.37833373  1
  O  O383  1  0.87978797  0.11207294  0.86732582  1
  O  O384  1  0.86333268  0.61624549  0.36483535  1
  O  O385  1  0.86799520  0.61609536  0.87459675  1
  O  O386  1  0.13498250  0.37456815  0.13058342  1
  O  O387  1  0.12998405  0.38137214  0.63175034  1
  O  O388  1  0.14192347  0.87608296  0.12984235  1
  O  O389  1  0.13105813  0.88192226  0.63085625  1
  O  O390  1  0.62917257  0.37900776  0.12922324  1
  O  O391  1  0.63827832  0.38090060  0.61904745  1
  O  O392  1  0.62813836  0.88549530  0.12666811  1
  O  O393  1  0.62939330  0.88094884  0.63142439  1
  O  O394  1  0.11959941  0.25652422  0.25772340  1
  O  O395  1  0.12003345  0.25471242  0.75471462  1
  O  O396  1  0.13293660  0.77203577  0.25063990  1
  O  O397  1  0.11859919  0.75388823  0.75289724  1
  O  O398  1  0.61918998  0.25523281  0.24962737  1
  O  O399  1  0.61861070  0.24527366  0.75944605  1
  O  O400  1  0.61004367  0.74846540  0.24951860  1
  O  O401  1  0.62183532  0.75518997  0.75522415  1
  O  O402  1  0.38062813  0.24594517  0.24474373  1
  O  O403  1  0.38271977  0.24519510  0.74264072  1
  O  O404  1  0.38293717  0.74336766  0.24414026  1
  O  O405  1  0.38038842  0.74356658  0.74431135  1
  O  O406  1  0.87994944  0.24940303  0.24016247  1
  O  O407  1  0.87969229  0.24372374  0.74618833  1
  O  O408  1  0.86907090  0.73184719  0.25344170  1
  O  O409  1  0.88244873  0.75278420  0.74331760  1
  O  O410  1  0.38244727  0.49515655  0.49274291  1
  O  O411  1  0.38309638  0.50125317  0.99193136  1
  O  O412  1  0.38125369  0.99655524  0.49470172  1
  O  O413  1  0.38589187  0.99347572  0.99856324  1
  O  O414  1  0.87356406  0.49140040  0.49390634  1
  O  O415  1  0.88090057  0.49425895  0.99628365  1
  O  O416  1  0.87952460  0.99272595  0.49604719  1
  O  O417  1  0.88119141  0.99303889  0.99157789  1
  O  O418  1  0.10914588  -0.00274877  -0.00831203  1
  O  O419  1  0.12071577  0.00589224  0.50571984  1
  O  O420  1  0.11686930  0.50901216  0.00013169  1
  O  O421  1  0.12277910  0.49695248  0.51433717  1
  O  O422  1  0.61814770  -0.00051494  0.00544061  1
  O  O423  1  0.61982265  0.00444494  0.50680447  1
  O  O424  1  0.62075159  0.50527013  0.00463895  1
  O  O425  1  0.60601788  0.49890053  0.49534591  1
  O  O426  1  0.36599069  0.37030821  0.12410065  1
  O  O427  1  0.36833102  0.36877796  0.61947609  1
  O  O428  1  0.36766897  0.87014306  0.11857217  1
  O  O429  1  0.37069649  0.86878652  0.62081680  1
  O  O430  1  0.86894238  0.36475298  0.12023882  1
  O  O431  1  0.86653870  0.36765708  0.62021111  1
  O  O432  1  0.87217826  0.88150108  0.10981875  1
  O  O433  1  0.86941069  0.86815979  0.61955239  1
  O  O434  1  0.13093451  0.13133801  0.38162785  1
  O  O435  1  0.13378261  0.13153009  0.87707770  1
  O  O436  1  0.12825116  0.62684682  0.37358855  1
  O  O437  1  0.12639137  0.63118758  0.88725980  1
  O  O438  1  0.63534250  0.12360807  0.38164322  1
  O  O439  1  0.61937584  0.13969793  0.87939915  1
  O  O440  1  0.63427937  0.62423034  0.37562850  1
  O  O441  1  0.63084876  0.63067355  0.88149502  1
