# generated using pymatgen
data_V93Zn93O256
_symmetry_space_group_name_H-M   'P 1'
_cell_length_a   17.04920580
_cell_length_b   17.04488564
_cell_length_c   17.04703116
_cell_angle_alpha   89.96822711
_cell_angle_beta   90.00046787
_cell_angle_gamma   89.93855755
_symmetry_Int_Tables_number   1
_chemical_formula_structural   V93Zn93O256
_chemical_formula_sum   'V93 Zn93 O256'
_cell_volume   4953.89370367
_cell_formula_units_Z   1
loop_
 _symmetry_equiv_pos_site_id
 _symmetry_equiv_pos_as_xyz
  1  'x, y, z'
loop_
 _atom_site_type_symbol
 _atom_site_label
 _atom_site_symmetry_multiplicity
 _atom_site_fract_x
 _atom_site_fract_y
 _atom_site_fract_z
 _atom_site_occupancy
  V  V0  1  0.50080280  -0.00744055  0.49645397  1
  V  V1  1  0.87594866  0.74932499  0.62522561  1
  V  V2  1  0.12610021  0.37621579  0.25034324  1
  V  V3  1  0.24999468  0.12559443  0.37481297  1
  V  V4  1  0.74921275  0.00072487  0.74907418  1
  V  V5  1  0.62494836  -0.00006412  0.62323035  1
  V  V6  1  -0.00039237  0.00123751  0.00003250  1
  V  V7  1  0.62561406  0.49934958  0.12895587  1
  V  V8  1  0.75062867  0.87556796  0.62589019  1
  V  V9  1  0.12476368  0.25028928  0.37458259  1
  V  V10  1  0.37601190  0.62361848  0.75032153  1
  V  V11  1  0.49735240  0.49902475  -0.00101695  1
  V  V12  1  0.62261465  0.74975911  0.37685841  1
  V  V13  1  0.87414728  0.00074567  0.87459801  1
  V  V14  1  0.50316865  0.36851728  0.37595679  1
  V  V15  1  0.49518952  0.62449533  0.13149148  1
  V  V16  1  0.87273195  0.87491145  0.00004460  1
  V  V17  1  0.24971029  0.37526215  0.12492987  1
  V  V18  1  0.12551210  0.74957602  0.37518394  1
  V  V19  1  0.00021666  0.25082517  0.74943950  1
  V  V20  1  0.87493939  0.87531059  0.49985158  1
  V  V21  1  -0.00133040  0.12642524  0.62481367  1
  V  V22  1  0.61994351  0.87473344  0.25472047  1
  V  V23  1  0.49729851  0.75007574  0.25431006  1
  V  V24  1  0.25019538  0.12423538  0.87332304  1
  V  V25  1  0.62290153  0.00061253  0.12480145  1
  V  V26  1  0.49919720  -0.00098828  0.00009079  1
  V  V27  1  0.12498407  0.25133128  0.87418536  1
  V  V28  1  0.37457088  0.74817216  0.12848607  1
  V  V29  1  0.25357779  0.50617940  0.25063748  1
  V  V30  1  0.24806961  0.25101148  -0.00008751  1
  V  V31  1  0.50225230  0.49815030  0.50108394  1
  V  V32  1  0.74819171  0.00040838  0.25015081  1
  V  V33  1  -0.00013407  0.87574589  0.87375222  1
  V  V34  1  0.50123677  0.24930781  0.25093099  1
  V  V35  1  0.74974593  0.62553579  0.87647432  1
  V  V36  1  0.24838339  0.50083136  0.74770323  1
  V  V37  1  0.74919881  0.25157546  0.50461253  1
  V  V38  1  0.74940492  0.74953770  0.49963947  1
  V  V39  1  0.12465737  0.37957382  0.74594180  1
  V  V40  1  -0.00013454  0.00064923  0.49915705  1
  V  V41  1  0.87481864  0.12685133  0.74923119  1
  V  V42  1  0.50441328  0.36505873  0.87739328  1
  V  V43  1  0.62519497  0.74922783  0.87565107  1
  V  V44  1  0.12432487  0.62358093  -0.00008161  1
  V  V45  1  0.75147634  0.49550866  0.74717377  1
  V  V46  1  0.12438300  0.12557033  0.49913715  1
  V  V47  1  0.62512418  0.62596116  0.00144042  1
  V  V48  1  0.49889062  0.12399653  0.12452027  1
  V  V49  1  0.62609689  0.36895807  0.75586712  1
  V  V50  1  -0.00144086  0.74951510  0.24941405  1
  V  V51  1  0.87363218  0.00063555  0.37462507  1
  V  V52  1  0.25148094  0.87488330  0.62271414  1
  V  V53  1  0.24894202  0.37763256  0.62441172  1
  V  V54  1  0.49975456  0.87385253  0.87499403  1
  V  V55  1  0.62527237  0.37049693  0.25368567  1
  V  V56  1  0.74504310  0.13136548  0.37443210  1
  V  V57  1  0.00276837  0.62261563  0.62595553  1
  V  V58  1  0.50261883  0.62266095  0.62580734  1
  V  V59  1  0.37452412  0.12497135  0.25004694  1
  V  V60  1  0.25223009  0.74964111  0.50047022  1
  V  V61  1  0.87441088  0.25067090  0.12530895  1
  V  V62  1  0.37665906  0.50551405  0.37145563  1
  V  V63  1  0.37908725  -0.00703598  0.37495150  1
  V  V64  1  0.87367198  0.12650106  0.24919140  1
  V  V65  1  0.24934531  0.00028715  0.24945432  1
  V  V66  1  0.00284907  0.49985228  0.50263876  1
  V  V67  1  0.12365522  0.87505005  0.24897800  1
  V  V68  1  0.87350316  0.50059361  0.37522068  1
  V  V69  1  0.62998243  0.49303106  0.62534670  1
  V  V70  1  0.74220623  0.12913835  0.87488227  1
  V  V71  1  0.62254470  0.12966305  0.49680877  1
  V  V72  1  0.50115830  0.74914417  0.75010420  1
  V  V73  1  0.12728921  0.61979266  0.50301293  1
  V  V74  1  0.24970688  0.87447841  0.12395770  1
  V  V75  1  0.37505817  0.87478000  -0.00020493  1
  V  V76  1  0.74964557  0.87431469  0.12450960  1
  V  V77  1  0.37295665  0.25002817  0.12458659  1
  V  V78  1  0.87509773  0.62532448  0.24983345  1
  V  V79  1  0.74320211  0.25021679  -0.00340647  1
  V  V80  1  -0.00057602  0.87572170  0.37428999  1
  V  V81  1  0.87152173  0.37432372  0.50686974  1
  V  V82  1  0.87527765  0.37528972  0.00066550  1
  V  V83  1  0.12482387  0.87467847  0.74899942  1
  V  V84  1  0.37586000  0.37360050  0.50112769  1
  V  V85  1  -0.00158831  0.25065572  0.24969713  1
  V  V86  1  0.12761467  0.74996191  0.87428140  1
  V  V87  1  0.00023110  0.37487925  0.37609401  1
  V  V88  1  0.12307396  0.00045692  0.12318678  1
  V  V89  1  0.12499399  -0.00012214  0.62358053  1
  V  V90  1  0.25075040  0.25116386  0.50039073  1
  V  V91  1  0.25079208  0.00121574  0.74888250  1
  V  V92  1  0.87662241  0.50107696  0.87703412  1
  Zn  Zn93  1  0.00161256  0.50003579  0.00294383  1
  Zn  Zn94  1  0.50050523  0.24641783  0.75059237  1
  Zn  Zn95  1  0.12390303  0.50166197  0.12582850  1
  Zn  Zn96  1  0.12126997  0.12705919  0.00070620  1
  Zn  Zn97  1  0.74935449  0.49966777  0.25209464  1
  Zn  Zn98  1  0.87676877  0.62592872  0.75104811  1
  Zn  Zn99  1  0.25197236  0.62323574  0.87614426  1
  Zn  Zn100  1  0.62025050  0.12970386  -0.00278431  1
  Zn  Zn101  1  0.37858874  0.24803508  0.62881326  1
  Zn  Zn102  1  0.00119417  0.37593580  0.87467027  1
  Zn  Zn103  1  0.74905200  0.37356598  0.12793596  1
  Zn  Zn104  1  0.74900408  0.62453002  0.37622018  1
  Zn  Zn105  1  0.62807524  0.62242105  0.50057567  1
  Zn  Zn106  1  0.37615145  0.49833112  0.87467648  1
  Zn  Zn107  1  0.38018172  0.87133733  0.49705289  1
  Zn  Zn108  1  0.37897738  0.75176786  0.62323103  1
  Zn  Zn109  1  0.25400845  0.62622985  0.37251056  1
  Zn  Zn110  1  -0.00001622  0.62440700  0.12391445  1
  Zn  Zn111  1  0.25167036  0.74812157  -0.00019611  1
  Zn  Zn112  1  0.37417952  0.37471503  -0.00205913  1
  Zn  Zn113  1  0.62454092  0.87468740  0.75010449  1
  Zn  Zn114  1  0.49757668  0.12608849  0.62784080  1
  Zn  Zn115  1  0.37548232  -0.00110710  0.87207237  1
  Zn  Zn116  1  0.37876005  0.12586090  0.74674675  1
  Zn  Zn117  1  0.75075977  0.75012012  0.00097960  1
  Zn  Zn118  1  -0.00059929  0.12581413  0.12301949  1
  Zn  Zn119  1  0.87269049  0.25499354  0.62814606  1
  Zn  Zn120  1  -0.00059256  0.74949882  0.74887823  1
  Zn  Zn121  1  0.87405625  0.74857393  0.12282749  1
  Zn  Zn122  1  0.18545742  0.18692815  0.18624513  1
  Zn  Zn123  1  0.18845630  0.18974072  0.68688911  1
  Zn  Zn124  1  0.18608647  0.68710515  0.18637639  1
  Zn  Zn125  1  0.18796251  0.68801157  0.68598811  1
  Zn  Zn126  1  0.68709940  0.18867379  0.18377363  1
  Zn  Zn127  1  0.68645003  0.18630715  0.68367913  1
  Zn  Zn128  1  0.68936584  0.68720574  0.18902030  1
  Zn  Zn129  1  0.68872127  0.68411229  0.68901003  1
  Zn  Zn130  1  0.31438571  0.31545216  0.31264899  1
  Zn  Zn131  1  0.31818657  0.31207505  0.81416941  1
  Zn  Zn132  1  0.31043485  0.81200861  0.31166345  1
  Zn  Zn133  1  0.31339224  0.81237908  0.81044210  1
  Zn  Zn134  1  0.81146650  0.31379531  0.31521032  1
  Zn  Zn135  1  0.81245544  0.31288849  0.81432760  1
  Zn  Zn136  1  0.80978446  0.81170774  0.31260163  1
  Zn  Zn137  1  0.81267031  0.81140151  0.81152255  1
  Zn  Zn138  1  0.18929328  0.43824546  0.43554994  1
  Zn  Zn139  1  0.18904629  0.43827640  0.93438826  1
  Zn  Zn140  1  0.18876333  0.93715776  0.43608740  1
  Zn  Zn141  1  0.18756888  0.93723746  0.93845097  1
  Zn  Zn142  1  0.68820768  0.43493975  0.43799872  1
  Zn  Zn143  1  0.68799015  0.43789083  0.93732835  1
  Zn  Zn144  1  0.68705895  0.93765856  0.43699661  1
  Zn  Zn145  1  0.68546303  0.93853131  0.93750443  1
  Zn  Zn146  1  0.31096074  0.06262104  0.05971117  1
  Zn  Zn147  1  0.31491523  0.06275694  0.56197441  1
  Zn  Zn148  1  0.30958110  0.56356776  0.06401860  1
  Zn  Zn149  1  0.31569711  0.56066723  0.56332688  1
  Zn  Zn150  1  0.81143486  0.06341033  0.06193298  1
  Zn  Zn151  1  0.81198358  0.06423719  0.56252423  1
  Zn  Zn152  1  0.81085916  0.56268049  0.06415510  1
  Zn  Zn153  1  0.81372021  0.56435116  0.56281769  1
  Zn  Zn154  1  0.43561056  0.43525703  0.18844984  1
  Zn  Zn155  1  0.43921387  0.43446232  0.68907479  1
  Zn  Zn156  1  0.43645128  0.93594768  0.18748062  1
  Zn  Zn157  1  0.43679494  0.93873907  0.68516294  1
  Zn  Zn158  1  0.94040141  0.43938330  0.18535034  1
  Zn  Zn159  1  0.93944108  0.44094645  0.68801862  1
  Zn  Zn160  1  0.93591923  0.93820338  0.18565444  1
  Zn  Zn161  1  0.93737377  0.93841509  0.68790432  1
  Zn  Zn162  1  0.06123909  0.06367204  0.31040660  1
  Zn  Zn163  1  0.06349327  0.06323461  0.81226153  1
  Zn  Zn164  1  0.06377585  0.56298695  0.31472795  1
  Zn  Zn165  1  0.06278736  0.56281475  0.81353878  1
  Zn  Zn166  1  0.56103365  0.06279071  0.31352811  1
  Zn  Zn167  1  0.56132500  0.06008196  0.81135810  1
  Zn  Zn168  1  0.56142765  0.56273139  0.31441678  1
  Zn  Zn169  1  0.56476709  0.56009307  0.81296229  1
  Zn  Zn170  1  0.43632746  0.18521350  0.43925933  1
  Zn  Zn171  1  0.43359445  0.18610154  0.93809616  1
  Zn  Zn172  1  0.44081403  0.68480872  0.43959902  1
  Zn  Zn173  1  0.43849637  0.68690918  0.93869993  1
  Zn  Zn174  1  0.93465907  0.18849600  0.43663682  1
  Zn  Zn175  1  0.93577976  0.18814446  0.93562161  1
  Zn  Zn176  1  0.93881257  0.68767910  0.43802752  1
  Zn  Zn177  1  0.93944023  0.68924566  0.93779450  1
  Zn  Zn178  1  0.06218583  0.31401394  0.06342037  1
  Zn  Zn179  1  0.06236438  0.31313951  0.56367724  1
  Zn  Zn180  1  0.05953305  0.81064282  0.06152498  1
  Zn  Zn181  1  0.06343123  0.81028008  0.56175059  1
  Zn  Zn182  1  0.56081493  0.31309101  0.06555447  1
  Zn  Zn183  1  0.56390814  0.31002268  0.56593725  1
  Zn  Zn184  1  0.56301600  0.81282981  0.06355409  1
  Zn  Zn185  1  0.56416702  0.81245194  0.56463342  1
  O  O186  1  0.12122298  0.11657536  0.12275292  1
  O  O187  1  0.11931866  0.12008143  0.61837964  1
  O  O188  1  0.12470022  0.62527421  0.11227302  1
  O  O189  1  0.11598906  0.63192113  0.61287673  1
  O  O190  1  0.61646605  0.11787048  0.12485395  1
  O  O191  1  0.62704946  0.11673858  0.61104708  1
  O  O192  1  0.61603026  0.61740029  0.12352864  1
  O  O193  1  0.61986630  0.61150912  0.62621073  1
  O  O194  1  0.38462307  0.38359282  0.38036537  1
  O  O195  1  0.38819867  0.38021487  0.87886206  1
  O  O196  1  0.36806246  0.88948840  0.37554228  1
  O  O197  1  0.38149508  0.87354470  0.88216999  1
  O  O198  1  0.88103243  0.38295683  0.38267029  1
  O  O199  1  0.87509940  0.38441849  0.88401074  1
  O  O200  1  0.87901864  0.88092967  0.37977377  1
  O  O201  1  0.87939390  0.88155777  0.87895786  1
  O  O202  1  0.25639194  0.00629061  0.36927815  1
  O  O203  1  0.24780239  0.00836135  0.86868572  1
  O  O204  1  0.26034759  0.49930280  0.36815467  1
  O  O205  1  0.25548371  0.50102248  0.86058623  1
  O  O206  1  0.75449785  0.00857429  0.36998446  1
  O  O207  1  0.75508763  0.00797569  0.86982860  1
  O  O208  1  0.76277630  0.50076084  0.37569452  1
  O  O209  1  0.75803078  0.50587580  0.86965717  1
  O  O210  1  0.24974355  0.49420009  0.13496504  1
  O  O211  1  0.25454965  0.48884151  0.63480038  1
  O  O212  1  0.24475141  0.99435491  0.13042189  1
  O  O213  1  0.24254889  0.99481136  0.62720331  1
  O  O214  1  0.73545427  0.49795014  0.12741192  1
  O  O215  1  0.74332570  0.50541448  0.63594880  1
  O  O216  1  0.74297105  0.99598315  0.13183230  1
  O  O217  1  0.74599040  0.99529799  0.62875130  1
  O  O218  1  0.00503953  0.37010479  0.25683003  1
  O  O219  1  0.00983570  0.37161771  0.74828465  1
  O  O220  1  0.00405725  0.87111478  0.25576888  1
  O  O221  1  0.00720468  0.87520883  0.75566808  1
  O  O222  1  0.50576314  0.36990300  0.25732672  1
  O  O223  1  0.50951475  0.37645145  0.76172955  1
  O  O224  1  0.51093041  0.86399192  0.24317403  1
  O  O225  1  0.50026842  0.86760436  0.75586744  1
  O  O226  1  0.49431122  0.12981458  0.24531186  1
  O  O227  1  0.49935558  0.12814779  0.74886773  1
  O  O228  1  0.50482151  0.63468348  0.23954201  1
  O  O229  1  0.49366401  0.62718720  0.74634039  1
  O  O230  1  0.99114132  0.13283961  0.25030121  1
  O  O231  1  0.99495002  0.13040931  0.74475239  1
  O  O232  1  0.99090146  0.63074989  0.25279586  1
  O  O233  1  1.00081374  0.62561014  0.73817924  1
  O  O234  1  0.36605033  0.25064536  0.00800582  1
  O  O235  1  0.36665187  0.25747373  0.49769766  1
  O  O236  1  0.37618547  0.75510371  0.01219195  1
  O  O237  1  0.36559990  0.75020452  0.49900786  1
  O  O238  1  0.86744584  0.25820869  0.00414000  1
  O  O239  1  0.86913558  0.25848841  0.50100862  1
  O  O240  1  0.87248779  0.75909514  0.00097879  1
  O  O241  1  0.87032638  0.75687990  0.50394623  1
  O  O242  1  0.12983115  0.24533375  0.49365025  1
  O  O243  1  0.13008026  0.25110668  0.99252836  1
  O  O244  1  0.13382375  0.74219692  0.49460188  1
  O  O245  1  0.12640362  0.74366059  0.99058637  1
  O  O246  1  0.63410829  0.23902710  0.50289103  1
  O  O247  1  0.63922713  0.25044053  1.00769834  1
  O  O248  1  0.62872992  0.75064966  0.49017153  1
  O  O249  1  0.62456295  0.74287922  0.99447377  1
  O  O250  1  0.49302263  0.24370975  0.13039833  1
  O  O251  1  0.49787390  0.24597552  0.62866120  1
  O  O252  1  0.49448237  0.74299104  0.13308714  1
  O  O253  1  0.50126511  0.74166768  0.63097977  1
  O  O254  1  0.99239376  0.24983181  0.13230350  1
  O  O255  1  0.99886881  0.24334686  0.63124736  1
  O  O256  1  0.99558352  0.74768107  0.13462416  1
  O  O257  1  0.99478845  0.74077809  0.62374504  1
  O  O258  1  0.00465436  0.25515820  0.37005964  1
  O  O259  1  0.00567585  0.25226880  0.86663848  1
  O  O260  1  0.00555130  0.75725369  0.37080581  1
  O  O261  1  0.01118965  0.75677797  0.87212158  1
  O  O262  1  0.49314177  0.26197446  0.36920760  1
  O  O263  1  0.49960366  0.26236587  0.88001403  1
  O  O264  1  0.50779489  0.74312408  0.36421372  1
  O  O265  1  0.50574852  0.75366388  0.87012075  1
  O  O266  1  0.24297344  0.13021472  0.49368414  1
  O  O267  1  0.24574063  0.13080219  0.99049471  1
  O  O268  1  0.24384283  0.63186320  0.50154095  1
  O  O269  1  0.24118194  0.62812421  0.99623263  1
  O  O270  1  0.74382737  0.12966322  0.49164751  1
  O  O271  1  0.74953070  0.13302137  0.99167959  1
  O  O272  1  0.74806768  0.63392174  0.49776603  1
  O  O273  1  0.74237866  0.62538350  0.99475729  1
  O  O274  1  0.25124413  0.36987783  0.00610592  1
  O  O275  1  0.25350881  0.37235060  0.50704810  1
  O  O276  1  0.25618054  0.87202337  0.00717300  1
  O  O277  1  0.24826107  0.86358112  0.50358892  1
  O  O278  1  0.75868618  0.36777326  -0.00019110  1
  O  O279  1  0.75995961  0.36279827  0.49014906  1
  O  O280  1  0.75490619  0.87580497  0.00643611  1
  O  O281  1  0.75598210  0.87064950  0.50520616  1
  O  O282  1  0.13497449  0.49295047  0.25371892  1
  O  O283  1  0.13493677  0.49016621  0.75547790  1
  O  O284  1  0.12952088  0.99457103  0.24501626  1
  O  O285  1  0.12975264  0.99444571  0.74267174  1
  O  O286  1  0.62267692  0.49168515  0.24331230  1
  O  O287  1  0.63310277  0.49325195  0.74445374  1
  O  O288  1  0.62714434  0.99196648  0.24693302  1
  O  O289  1  0.63258724  0.99830730  0.74126705  1
  O  O290  1  0.37018014  0.00457142  0.25580228  1
  O  O291  1  0.36466230  0.00153189  0.75210273  1
  O  O292  1  0.36621834  0.49257950  0.25999999  1
  O  O293  1  0.36846608  0.50844979  0.74940708  1
  O  O294  1  0.86769723  0.00546444  0.25534275  1
  O  O295  1  0.86918230  0.00670030  0.75474633  1
  O  O296  1  0.87572220  0.50608026  0.26008038  1
  O  O297  1  0.86788552  0.49929990  0.75944551  1
  O  O298  1  0.11974669  0.36912494  0.37132922  1
  O  O299  1  0.12464375  0.36969707  0.86300078  1
  O  O300  1  0.11958584  0.87052070  0.36868739  1
  O  O301  1  0.12044958  0.86817734  0.86996085  1
  O  O302  1  0.61346796  0.38210365  0.36534851  1
  O  O303  1  0.61618051  0.38293467  0.86727966  1
  O  O304  1  0.62933735  0.86526826  0.36361912  1
  O  O305  1  0.61791104  0.86787577  0.87367419  1
  O  O306  1  0.37869401  0.12913264  0.13125561  1
  O  O307  1  0.37735072  0.12876108  0.62624429  1
  O  O308  1  0.38536168  0.63508849  0.12078218  1
  O  O309  1  0.38346870  0.62452676  0.63480976  1
  O  O310  1  0.87456003  0.13159684  0.13267112  1
  O  O311  1  0.88184392  0.12526913  0.63161033  1
  O  O312  1  0.87540715  0.62455945  0.13804533  1
  O  O313  1  0.88572193  0.63141129  0.62475724  1
  O  O314  1  0.25365490  0.25476729  0.12055376  1
  O  O315  1  0.25001802  0.26179387  0.61788923  1
  O  O316  1  0.26038254  0.75532472  0.12764850  1
  O  O317  1  0.25121103  0.75510437  0.61430275  1
  O  O318  1  0.75713793  0.25177058  0.11540302  1
  O  O319  1  0.75525666  0.24314442  0.60890066  1
  O  O320  1  0.75126717  0.75847372  0.12328368  1
  O  O321  1  0.75475378  0.75495180  0.62017205  1
  O  O322  1  0.24471844  0.24587870  0.37928094  1
  O  O323  1  0.24447144  0.24374194  0.87945427  1
  O  O324  1  0.24568925  0.74721777  0.38270932  1
  O  O325  1  0.23819735  0.74928238  0.87541668  1
  O  O326  1  0.75597288  0.23714708  0.38422750  1
  O  O327  1  0.75668154  0.24001130  0.88481570  1
  O  O328  1  0.73947152  0.74945255  0.38081732  1
  O  O329  1  0.74342930  0.74278400  0.87567882  1
  O  O330  1  -0.00003218  0.11728814  0.00072740  1
  O  O331  1  0.00445975  0.12018313  0.50301865  1
  O  O332  1  0.01150648  0.62426749  0.00017438  1
  O  O333  1  0.00823422  0.62126734  0.50599186  1
  O  O334  1  0.50009529  0.11869911  0.00603471  1
  O  O335  1  0.51099508  0.11663579  0.49643918  1
  O  O336  1  0.50519040  0.61760251  0.01079417  1
  O  O337  1  0.50446588  0.61579863  0.50765967  1
  O  O338  1  0.49807304  0.37821780  0.49227260  1
  O  O339  1  0.50141124  0.38403858  0.99545158  1
  O  O340  1  0.50137581  0.88826986  0.50118331  1
  O  O341  1  0.49461368  0.87924937  0.99623079  1
  O  O342  1  0.99354084  0.37932432  0.49509889  1
  O  O343  1  0.98648099  0.37583751  0.99734250  1
  O  O344  1  0.99548475  0.88083664  0.49404213  1
  O  O345  1  0.99345865  0.88116788  0.99297541  1
  O  O346  1  0.49445607  0.49110880  0.37930559  1
  O  O347  1  0.50133693  0.49560351  0.88823655  1
  O  O348  1  0.48930332  1.00539447  0.38221424  1
  O  O349  1  0.49852902  0.99191420  0.88231787  1
  O  O350  1  0.99138638  0.49482607  0.38166811  1
  O  O351  1  0.98726606  0.49853198  0.87654245  1
  O  O352  1  0.99397732  0.99552845  0.37938891  1
  O  O353  1  0.99420791  0.99539645  0.87878121  1
  O  O354  1  0.00521301  0.00082117  0.11851990  1
  O  O355  1  0.00538372  0.00564190  0.61825407  1
  O  O356  1  0.00593366  0.50534259  0.12120312  1
  O  O357  1  -0.00498075  0.51322651  0.61719813  1
  O  O358  1  0.50303613  0.00481374  0.12107147  1
  O  O359  1  0.50683876  0.00225022  0.61352591  1
  O  O360  1  0.50550593  0.50596402  0.12147310  1
  O  O361  1  0.50885696  0.50252038  0.62069648  1
  O  O362  1  0.24508364  0.38210281  0.24559760  1
  O  O363  1  0.24448126  0.38133464  0.74329150  1
  O  O364  1  0.24311557  0.88094048  0.24405000  1
  O  O365  1  0.24401112  0.88031407  0.74302363  1
  O  O366  1  0.73868413  0.37717585  0.25088406  1
  O  O367  1  0.74251075  0.38837179  0.76043856  1
  O  O368  1  0.74039874  0.88077007  0.24570709  1
  O  O369  1  0.74984877  0.88303183  0.74346131  1
  O  O370  1  0.25481610  0.11972682  0.25497387  1
  O  O371  1  0.24617136  0.11908725  0.75898816  1
  O  O372  1  0.24415818  0.61078860  0.25240767  1
  O  O373  1  0.25763433  0.61659482  0.74635810  1
  O  O374  1  0.75196783  0.12157719  0.25721264  1
  O  O375  1  0.75413264  0.12192116  0.75623642  1
  O  O376  1  0.76108373  0.62158202  0.25459867  1
  O  O377  1  0.75208120  0.61230930  0.75797274  1
  O  O378  1  0.36871637  0.11652495  0.36912086  1
  O  O379  1  0.35949795  0.12235325  0.87449823  1
  O  O380  1  0.37573932  0.60896434  0.38044558  1
  O  O381  1  0.37455925  0.62369723  0.86280270  1
  O  O382  1  0.86558491  0.11954588  0.36979348  1
  O  O383  1  0.86601891  0.11957997  0.86808581  1
  O  O384  1  0.87645598  0.61565013  0.36882755  1
  O  O385  1  0.87037720  0.61573860  0.87588407  1
  O  O386  1  0.13218854  0.37656730  0.13261068  1
  O  O387  1  0.13530713  0.37126402  0.63518814  1
  O  O388  1  0.12958446  0.87924082  0.13015169  1
  O  O389  1  0.12990244  0.88011951  0.62841975  1
  O  O390  1  0.62246543  0.38475656  0.13549705  1
  O  O391  1  0.62088158  0.38837677  0.63528629  1
  O  O392  1  0.62924380  0.87998081  0.13500171  1
  O  O393  1  0.63365429  0.88203324  0.62584154  1
  O  O394  1  0.11951981  0.25547087  0.25599057  1
  O  O395  1  0.12072947  0.25973865  0.75417417  1
  O  O396  1  0.11997486  0.75540679  0.25550940  1
  O  O397  1  0.12463802  0.75578569  0.75774434  1
  O  O398  1  0.61766405  0.26253302  0.24214017  1
  O  O399  1  0.62939776  0.26671791  0.74279986  1
  O  O400  1  0.61796343  0.75595497  0.25666579  1
  O  O401  1  0.61886572  0.74950039  0.75717113  1
  O  O402  1  0.37993471  0.24413704  0.24508282  1
  O  O403  1  0.37923801  0.24609908  0.74790149  1
  O  O404  1  0.38512777  0.75862895  0.24008807  1
  O  O405  1  0.38072091  0.73923213  0.74721761  1
  O  O406  1  0.87832407  0.24703472  0.24586982  1
  O  O407  1  0.88062233  0.24639202  0.74794480  1
  O  O408  1  0.87950174  0.74020805  0.25322537  1
  O  O409  1  0.87837567  0.74664700  0.74198352  1
  O  O410  1  0.38179856  0.49246210  0.49303689  1
  O  O411  1  0.38776518  0.50050808  1.00235956  1
  O  O412  1  0.38328990  0.99935707  0.49060654  1
  O  O413  1  0.38125648  0.99225606  0.99894333  1
  O  O414  1  0.87972194  0.49371871  0.49278033  1
  O  O415  1  0.87179265  0.49197525  0.99264375  1
  O  O416  1  0.88018680  0.99541474  0.49441714  1
  O  O417  1  0.87920764  0.99502352  0.99382933  1
  O  O418  1  0.11724664  -0.00028375  0.00592446  1
  O  O419  1  0.11940762  0.00556998  0.50307782  1
  O  O420  1  0.12490655  0.51117625  -0.00304329  1
  O  O421  1  0.11990187  0.51165316  0.49232140  1
  O  O422  1  0.61675522  0.00116093  0.00826200  1
  O  O423  1  0.61913450  0.00693780  0.50159370  1
  O  O424  1  0.61647532  0.50394669  0.01078060  1
  O  O425  1  0.62205431  0.49785211  0.50908633  1
  O  O426  1  0.36845201  0.36708351  0.12373305  1
  O  O427  1  0.36564891  0.37460570  0.61866763  1
  O  O428  1  0.37040795  0.86693455  0.12012470  1
  O  O429  1  0.36672350  0.87219943  0.61893286  1
  O  O430  1  0.87149948  0.37172501  0.11649383  1
  O  O431  1  0.87974460  0.37725690  0.61010657  1
  O  O432  1  0.86644900  0.87552436  0.11887713  1
  O  O433  1  0.87098971  0.87070245  0.61856749  1
  O  O434  1  0.12984971  0.13019256  0.37914316  1
  O  O435  1  0.13403642  0.13230062  0.87521201  1
  O  O436  1  0.12656190  0.63211432  0.38646571  1
  O  O437  1  0.12639938  0.63429915  0.88037933  1
  O  O438  1  0.63548853  0.11891567  0.38333634  1
  O  O439  1  0.63936355  0.11967328  0.87710225  1
  O  O440  1  0.62719022  0.63605198  0.37606553  1
  O  O441  1  0.62942659  0.62867932  0.88186129  1
