# generated using pymatgen
data_V93Zn93O256
_symmetry_space_group_name_H-M   'P 1'
_cell_length_a   17.06011892
_cell_length_b   17.06432897
_cell_length_c   17.06302592
_cell_angle_alpha   90.01008511
_cell_angle_beta   90.00142006
_cell_angle_gamma   90.13587422
_symmetry_Int_Tables_number   1
_chemical_formula_structural   V93Zn93O256
_chemical_formula_sum   'V93 Zn93 O256'
_cell_volume   4967.36521134
_cell_formula_units_Z   1
loop_
 _symmetry_equiv_pos_site_id
 _symmetry_equiv_pos_as_xyz
  1  'x, y, z'
loop_
 _atom_site_type_symbol
 _atom_site_label
 _atom_site_symmetry_multiplicity
 _atom_site_fract_x
 _atom_site_fract_y
 _atom_site_fract_z
 _atom_site_occupancy
  V  V0  1  0.24894336  0.50023163  0.74910886  1
  V  V1  1  0.37527002  0.87442874  0.00060727  1
  V  V2  1  0.00295611  0.87283365  0.37370382  1
  V  V3  1  -0.00235476  0.24818858  0.74988454  1
  V  V4  1  0.87115588  0.49892071  0.37198157  1
  V  V5  1  0.74979273  0.62214797  0.37277088  1
  V  V6  1  0.25072817  0.12455699  0.87621787  1
  V  V7  1  0.62886506  0.50437075  0.13215851  1
  V  V8  1  0.23972251  0.88150769  0.62779118  1
  V  V9  1  0.50089045  0.87375333  0.87490100  1
  V  V10  1  0.88162314  0.88416986  -0.00583427  1
  V  V11  1  0.87467211  0.24702186  0.62969909  1
  V  V12  1  0.87483023  0.49989546  0.87472355  1
  V  V13  1  0.24906990  0.62606322  0.87407974  1
  V  V14  1  0.62499271  0.12590817  0.00163336  1
  V  V15  1  -0.00045209  0.37520336  0.87516870  1
  V  V16  1  0.87434711  0.37552208  0.00131812  1
  V  V17  1  0.75057862  0.74990793  0.49989713  1
  V  V18  1  0.74987387  0.37440096  0.62588843  1
  V  V19  1  0.62466423  0.37458631  0.75111708  1
  V  V20  1  0.24936796  -0.00063637  0.24988304  1
  V  V21  1  0.62364659  0.25209309  0.37348486  1
  V  V22  1  0.12031756  -0.00026422  0.12130070  1
  V  V23  1  0.62391946  0.00012250  0.12606791  1
  V  V24  1  0.62468428  0.62338989  0.50000936  1
  V  V25  1  0.24957973  0.74904353  0.49885336  1
  V  V26  1  0.25042443  0.25055974  0.00056077  1
  V  V27  1  -0.00105407  0.62650727  0.12531505  1
  V  V28  1  0.12540725  0.25089938  0.37325802  1
  V  V29  1  0.37517747  0.74877413  0.62425432  1
  V  V30  1  0.37494057  0.25016739  0.12523842  1
  V  V31  1  0.49956792  0.87409002  0.37408197  1
  V  V32  1  0.50165079  -0.00013756  0.50277654  1
  V  V33  1  0.62441770  0.25119603  0.87574511  1
  V  V34  1  0.62425738  0.75075173  0.87222623  1
  V  V35  1  -0.00361849  0.12497508  0.62768978  1
  V  V36  1  0.75021527  0.24858171  0.50061114  1
  V  V37  1  0.75020196  0.87471541  0.12394725  1
  V  V38  1  0.12418917  0.37384125  0.75007115  1
  V  V39  1  0.24940728  0.12545578  0.37545391  1
  V  V40  1  0.12549611  0.49936383  0.62440483  1
  V  V41  1  0.62573057  0.12380662  0.50083596  1
  V  V42  1  0.50053462  0.25133481  0.75042067  1
  V  V43  1  0.87361966  0.87300768  0.50280322  1
  V  V44  1  0.25267774  0.62461269  0.36734433  1
  V  V45  1  0.37499529  0.62518188  0.74812631  1
  V  V46  1  0.00355476  0.75894077  0.75063402  1
  V  V47  1  0.00293254  -0.00014412  0.50486426  1
  V  V48  1  0.37544427  0.12586321  0.24994671  1
  V  V49  1  0.37479228  0.00050591  0.37463065  1
  V  V50  1  -0.00027472  0.50090352  -0.00044952  1
  V  V51  1  0.62446693  0.50023174  0.62470405  1
  V  V52  1  0.24944558  0.87554986  0.12632050  1
  V  V53  1  0.24951991  0.74986020  -0.00069523  1
  V  V54  1  0.00007672  0.49995480  0.49969837  1
  V  V55  1  0.37456913  -0.00094926  0.87424161  1
  V  V56  1  0.37682073  0.49792122  0.87657730  1
  V  V57  1  0.49956838  0.62430930  0.62419090  1
  V  V58  1  0.62548724  0.87458708  0.24997255  1
  V  V59  1  0.37061498  0.24934556  0.62521123  1
  V  V60  1  0.87480433  0.25046735  0.12646855  1
  V  V61  1  0.12564794  0.75712437  0.87067727  1
  V  V62  1  0.12485999  0.24956792  0.87593379  1
  V  V63  1  0.87626268  0.37513006  0.49975346  1
  V  V64  1  0.12338773  0.12413862  0.50074584  1
  V  V65  1  0.87517974  -0.00007252  0.37374023  1
  V  V66  1  0.24948574  0.37182397  0.62524550  1
  V  V67  1  0.74972455  0.62477799  0.87557504  1
  V  V68  1  0.12083111  0.12316012  -0.00022873  1
  V  V69  1  0.49900703  0.12595585  0.12622649  1
  V  V70  1  0.12586346  0.62450202  0.49832984  1
  V  V71  1  0.12586221  0.37564721  0.24938813  1
  V  V72  1  0.75481412  0.12054699  0.86855211  1
  V  V73  1  0.00029063  0.62531167  0.62570621  1
  V  V74  1  0.12457899  0.49955292  0.12484188  1
  V  V75  1  0.75018864  0.50014720  0.75065710  1
  V  V76  1  0.75130138  0.74917032  0.00003423  1
  V  V77  1  -0.00008512  0.12300382  0.12211881  1
  V  V78  1  0.37791050  0.50210667  0.36774067  1
  V  V79  1  0.87683358  0.62557512  0.74981607  1
  V  V80  1  0.87537628  0.12399389  0.24967773  1
  V  V81  1  0.25055676  0.37507264  0.12439435  1
  V  V82  1  0.75068305  -0.00060902  0.25018535  1
  V  V83  1  0.74905619  0.37859247  0.13377553  1
  V  V84  1  0.62433406  0.74827145  0.37401508  1
  V  V85  1  0.37509515  0.87441198  0.50034713  1
  V  V86  1  0.00051226  0.25020648  0.25067500  1
  V  V87  1  0.87088553  0.62205207  0.24900235  1
  V  V88  1  0.49572315  0.74377742  0.24757442  1
  V  V89  1  0.74904211  0.25056624  0.00168280  1
  V  V90  1  0.37624348  0.12192356  0.75175370  1
  V  V91  1  0.49958429  -0.00023639  0.00057433  1
  V  V92  1  0.37405611  0.74269750  0.12829134  1
  Zn  Zn93  1  0.75111279  0.12449545  0.37434806  1
  Zn  Zn94  1  0.75624420  -0.00387811  0.74451061  1
  Zn  Zn95  1  0.50070562  0.25278780  0.25012602  1
  Zn  Zn96  1  0.12332592  0.62605471  -0.00100177  1
  Zn  Zn97  1  0.00826826  0.88504017  0.87539970  1
  Zn  Zn98  1  0.49304655  0.61812750  0.12523792  1
  Zn  Zn99  1  0.49754133  0.37352855  0.37585262  1
  Zn  Zn100  1  0.62943434  -0.00149681  0.62834494  1
  Zn  Zn101  1  0.62526692  0.37944023  0.25461765  1
  Zn  Zn102  1  0.49744093  0.49656851  0.50075464  1
  Zn  Zn103  1  0.89563404  0.01596085  0.86689834  1
  Zn  Zn104  1  0.37787864  0.37503521  0.00091430  1
  Zn  Zn105  1  0.62064277  0.62249878  -0.00056917  1
  Zn  Zn106  1  0.22882579  -0.01309120  0.75459615  1
  Zn  Zn107  1  0.49936762  0.12497582  0.62580087  1
  Zn  Zn108  1  0.62514413  0.88108735  0.74765863  1
  Zn  Zn109  1  0.74516783  0.87399468  0.62845651  1
  Zn  Zn110  1  0.00180175  0.37592015  0.37502170  1
  Zn  Zn111  1  0.37482131  0.37576938  0.49904324  1
  Zn  Zn112  1  0.50050173  0.37576481  0.87770348  1
  Zn  Zn113  1  0.87564808  0.75230577  0.12621411  1
  Zn  Zn114  1  0.12380885  0.87409455  0.24986287  1
  Zn  Zn115  1  0.25477063  0.50475648  0.24470250  1
  Zn  Zn116  1  0.87406353  0.74966642  0.62757810  1
  Zn  Zn117  1  0.00070379  0.75007583  0.25043834  1
  Zn  Zn118  1  0.12596713  0.74839853  0.37170662  1
  Zn  Zn119  1  0.50261685  0.49882537  0.00170864  1
  Zn  Zn120  1  0.24969646  0.25031153  0.49997029  1
  Zn  Zn121  1  0.50026150  0.75208996  0.74856431  1
  Zn  Zn122  1  0.18821379  0.18694747  0.18757714  1
  Zn  Zn123  1  0.17624178  0.16430112  0.69846752  1
  Zn  Zn124  1  0.18286583  0.69060023  0.18852415  1
  Zn  Zn125  1  0.18775444  0.69003725  0.68640790  1
  Zn  Zn126  1  0.68888037  0.18746785  0.18853399  1
  Zn  Zn127  1  0.68566645  0.18622542  0.68722950  1
  Zn  Zn128  1  0.68841426  0.68806882  0.18890997  1
  Zn  Zn129  1  0.68926039  0.68911489  0.68653396  1
  Zn  Zn130  1  0.31151200  0.31450940  0.31071255  1
  Zn  Zn131  1  0.31205108  0.31145196  0.81090379  1
  Zn  Zn132  1  0.31204179  0.81235929  0.31194706  1
  Zn  Zn133  1  0.31295882  0.81234453  0.80980513  1
  Zn  Zn134  1  0.81206632  0.31072827  0.31479701  1
  Zn  Zn135  1  0.81033440  0.31096519  0.81386464  1
  Zn  Zn136  1  0.81504000  0.80939918  0.31270643  1
  Zn  Zn137  1  0.81408370  0.81562970  0.81044656  1
  Zn  Zn138  1  0.19197677  0.43725808  0.43694727  1
  Zn  Zn139  1  0.18808247  0.43764541  0.93896049  1
  Zn  Zn140  1  0.18740640  0.93785576  0.44017259  1
  Zn  Zn141  1  0.18932814  0.93855911  0.94032537  1
  Zn  Zn142  1  0.68877930  0.43634767  0.44035452  1
  Zn  Zn143  1  0.68625550  0.43777682  0.94263529  1
  Zn  Zn144  1  0.68835784  0.93641614  0.43681099  1
  Zn  Zn145  1  0.68790261  0.93663286  0.93813674  1
  Zn  Zn146  1  0.31051181  0.06295136  0.06228072  1
  Zn  Zn147  1  0.31273909  0.06295975  0.56216008  1
  Zn  Zn148  1  0.30908668  0.56228428  0.05880018  1
  Zn  Zn149  1  0.31307443  0.56055705  0.55735863  1
  Zn  Zn150  1  0.81189106  0.06260962  0.06072347  1
  Zn  Zn151  1  0.81290725  0.06019804  0.56257373  1
  Zn  Zn152  1  0.81101277  0.56175118  0.06224441  1
  Zn  Zn153  1  0.81258456  0.56319961  0.56170848  1
  Zn  Zn154  1  0.44249060  0.43314915  0.19067930  1
  Zn  Zn155  1  0.43803367  0.43678979  0.68900837  1
  Zn  Zn156  1  0.43659691  0.93492235  0.18799304  1
  Zn  Zn157  1  0.43604295  0.93426151  0.68826364  1
  Zn  Zn158  1  0.93873882  0.43809888  0.18877598  1
  Zn  Zn159  1  0.93768084  0.43670185  0.68698148  1
  Zn  Zn160  1  0.93649770  0.93659570  0.18529092  1
  Zn  Zn161  1  0.93310211  0.94170742  0.69033990  1
  Zn  Zn162  1  0.06201509  0.06086345  0.31127731  1
  Zn  Zn163  1  0.06540665  0.05545448  0.80615450  1
  Zn  Zn164  1  0.06224197  0.56122069  0.31161130  1
  Zn  Zn165  1  0.06339996  0.56641560  0.81225560  1
  Zn  Zn166  1  0.56223547  0.06421014  0.31375390  1
  Zn  Zn167  1  0.56554674  0.06150336  0.81246287  1
  Zn  Zn168  1  0.56186752  0.56245706  0.30995391  1
  Zn  Zn169  1  0.56156553  0.56487898  0.81077984  1
  Zn  Zn170  1  0.43832100  0.18752509  0.43867310  1
  Zn  Zn171  1  0.43833969  0.18835342  0.93867188  1
  Zn  Zn172  1  0.43687308  0.68452591  0.43796851  1
  Zn  Zn173  1  0.43895686  0.68366132  0.94089797  1
  Zn  Zn174  1  0.93748898  0.18801071  0.43686898  1
  Zn  Zn175  1  0.93788180  0.18978299  0.94056976  1
  Zn  Zn176  1  0.93760500  0.68707460  0.43739283  1
  Zn  Zn177  1  0.93761873  0.69161867  0.93625272  1
  Zn  Zn178  1  0.06264684  0.31124700  0.06302069  1
  Zn  Zn179  1  0.06291012  0.31110117  0.56073977  1
  Zn  Zn180  1  0.06410071  0.81138267  0.06080810  1
  Zn  Zn181  1  0.06264402  0.80929877  0.56190858  1
  Zn  Zn182  1  0.56114026  0.31702802  0.06215459  1
  Zn  Zn183  1  0.55795718  0.31344842  0.56103069  1
  Zn  Zn184  1  0.56209879  0.81113389  0.06179707  1
  Zn  Zn185  1  0.56342687  0.81140935  0.56336030  1
  O  O186  1  0.12064727  0.11834838  0.12049263  1
  O  O187  1  0.10852893  0.13924921  0.60613202  1
  O  O188  1  0.11415875  0.61898012  0.12379114  1
  O  O189  1  0.12090692  0.61832595  0.61920532  1
  O  O190  1  0.61966923  0.11942329  0.12127623  1
  O  O191  1  0.62129750  0.12530610  0.61097180  1
  O  O192  1  0.63017225  0.61135813  0.12485828  1
  O  O193  1  0.62065037  0.61978989  0.62033814  1
  O  O194  1  0.37133597  0.38930640  0.37642488  1
  O  O195  1  0.37382191  0.38707427  0.87312832  1
  O  O196  1  0.37967883  0.88100671  0.38062123  1
  O  O197  1  0.37948173  0.87903870  0.88096935  1
  O  O198  1  0.87547216  0.38318176  0.38048019  1
  O  O199  1  0.87968009  0.37968886  0.88059199  1
  O  O200  1  0.88333706  0.87920654  0.38360782  1
  O  O201  1  0.87654086  0.87226475  0.89044089  1
  O  O202  1  0.25551372  0.00524787  0.37105332  1
  O  O203  1  0.25610279  0.00544996  0.87230213  1
  O  O204  1  0.25966560  0.50801306  0.37230409  1
  O  O205  1  0.25523317  0.50526591  0.86862020  1
  O  O206  1  0.75698195  0.00015737  0.36757662  1
  O  O207  1  0.74548713  0.01833364  0.87995266  1
  O  O208  1  0.76376486  0.50570942  0.38253374  1
  O  O209  1  0.75543626  0.50436053  0.87037346  1
  O  O210  1  0.24324739  0.49496992  0.12513931  1
  O  O211  1  0.24442768  0.49385658  0.63023013  1
  O  O212  1  0.24274568  0.99544939  0.13059822  1
  O  O213  1  0.25696986  0.98250550  0.62120984  1
  O  O214  1  0.74036344  0.49032691  0.12039332  1
  O  O215  1  0.74533549  0.49444445  0.63084093  1
  O  O216  1  0.74324171  0.99462686  0.13055418  1
  O  O217  1  0.74806307  0.99450183  0.62417917  1
  O  O218  1  0.00714435  0.36770453  0.25070352  1
  O  O219  1  0.00513957  0.36975055  0.75572988  1
  O  O220  1  -0.00224831  0.87569213  0.26278462  1
  O  O221  1  -0.00421234  0.86090350  0.74948517  1
  O  O222  1  0.50747199  0.36901776  0.25850648  1
  O  O223  1  0.50812781  0.36887344  0.75274099  1
  O  O224  1  0.50627114  0.86790571  0.25526981  1
  O  O225  1  0.50130989  0.87153790  0.76037779  1
  O  O226  1  0.49289272  0.12536014  0.24361409  1
  O  O227  1  0.49060892  0.13099835  0.75013993  1
  O  O228  1  0.50471460  0.64096511  0.24538235  1
  O  O229  1  0.49263743  0.62796850  0.74179548  1
  O  O230  1  0.99442566  0.13028775  0.24320453  1
  O  O231  1  1.00156710  0.13377191  0.73381322  1
  O  O232  1  0.99079481  0.62390878  0.24041700  1
  O  O233  1  0.99489799  0.63151416  0.74476861  1
  O  O234  1  0.36735135  0.24930949  0.00687538  1
  O  O235  1  0.37222387  0.24789773  0.51340093  1
  O  O236  1  0.36967465  0.75587310  0.00800590  1
  O  O237  1  0.36965245  0.75469945  0.50411072  1
  O  O238  1  0.86999876  0.25754658  0.00827375  1
  O  O239  1  0.87089758  0.25573823  0.50768539  1
  O  O240  1  0.86294339  0.75697132  0.00108917  1
  O  O241  1  0.86970076  0.75791210  0.49905734  1
  O  O242  1  0.12451430  0.24139917  0.49055225  1
  O  O243  1  0.13081988  0.24517827  0.99499919  1
  O  O244  1  0.13182965  0.74167282  0.49673931  1
  O  O245  1  0.13171392  0.74761863  0.99062174  1
  O  O246  1  0.62946277  0.24222524  0.49439721  1
  O  O247  1  0.62960321  0.24565576  0.99646593  1
  O  O248  1  0.62978580  0.74325564  0.49196151  1
  O  O249  1  0.63561936  0.74959995  0.99220792  1
  O  O250  1  0.49377267  0.24250207  0.12537235  1
  O  O251  1  0.48893346  0.24830925  0.63179820  1
  O  O252  1  0.49086000  0.75158684  0.13191501  1
  O  O253  1  0.49275732  0.74184851  0.62476274  1
  O  O254  1  0.99367962  0.24484075  0.13140069  1
  O  O255  1  0.99108072  0.24585233  0.62834000  1
  O  O256  1  0.99766028  0.73655562  0.12376717  1
  O  O257  1  0.99996549  0.74278746  0.63339873  1
  O  O258  1  0.00626180  0.25174202  0.36789249  1
  O  O259  1  0.00379803  0.25597973  0.87000131  1
  O  O260  1  0.00139055  0.76171982  0.37686046  1
  O  O261  1  0.00941614  0.75221229  0.86767499  1
  O  O262  1  0.51210089  0.24873926  0.37541375  1
  O  O263  1  0.50712186  0.25040751  0.86849922  1
  O  O264  1  0.50305512  0.75395471  0.36705102  1
  O  O265  1  0.50936863  0.75451157  0.87779373  1
  O  O266  1  0.23883882  0.12394735  0.49498063  1
  O  O267  1  0.24323161  0.13090228  0.99492114  1
  O  O268  1  0.24428077  0.63001913  0.49177754  1
  O  O269  1  0.24744965  0.63339237  0.99159762  1
  O  O270  1  0.74118559  0.12994564  0.49824118  1
  O  O271  1  0.74273543  0.13241207  0.99683457  1
  O  O272  1  0.74481360  0.63020625  0.49324836  1
  O  O273  1  0.75102303  0.63478231  0.99399297  1
  O  O274  1  0.25116691  0.36777875  0.00678949  1
  O  O275  1  0.25111959  0.37017429  0.51116138  1
  O  O276  1  0.25662804  0.86918427  0.00676777  1
  O  O277  1  0.25613845  0.86990350  0.50684587  1
  O  O278  1  0.75635834  0.36929182  0.00941838  1
  O  O279  1  0.75631767  0.36833579  0.50823907  1
  O  O280  1  0.75749432  0.86731828  0.00398988  1
  O  O281  1  0.76095258  0.86811856  0.49538024  1
  O  O282  1  0.12524328  0.49290403  0.24176560  1
  O  O283  1  0.12907767  0.49437131  0.74470382  1
  O  O284  1  0.13195172  0.99962213  0.23976636  1
  O  O285  1  0.14537955  1.05385534  0.73228054  1
  O  O286  1  0.62612174  0.49963560  0.23699934  1
  O  O287  1  0.63183220  0.49534024  0.74503719  1
  O  O288  1  0.62953206  0.99441386  0.24591573  1
  O  O289  1  0.63250861  1.00085085  0.74675175  1
  O  O290  1  0.37002851  0.00514092  0.25540796  1
  O  O291  1  0.37722719  0.00999596  0.75645486  1
  O  O292  1  0.37407646  0.49886863  0.26325462  1
  O  O293  1  0.36779125  0.50532396  0.75622893  1
  O  O294  1  0.86986342  0.00459635  0.25368289  1
  O  O295  1  0.86844461  -0.00378610  0.75979034  1
  O  O296  1  0.88106384  0.50894323  0.26146111  1
  O  O297  1  0.86985315  0.50383663  0.75558479  1
  O  O298  1  0.12536639  0.36941088  0.36800648  1
  O  O299  1  0.11906639  0.36971181  0.87005164  1
  O  O300  1  0.11374451  0.87611447  0.37576285  1
  O  O301  1  0.12757101  0.86188170  0.87937127  1
  O  O302  1  0.62842885  0.36355814  0.37566761  1
  O  O303  1  0.62740442  0.36870646  0.86829946  1
  O  O304  1  0.61928696  0.86796635  0.36949229  1
  O  O305  1  0.61879412  0.86503354  0.87802727  1
  O  O306  1  0.37929969  0.12930236  0.13025408  1
  O  O307  1  0.37514761  0.13161814  0.63413521  1
  O  O308  1  0.37110039  0.63975852  0.12214764  1
  O  O309  1  0.37848542  0.62874699  0.62829476  1
  O  O310  1  0.87945840  0.13025606  0.12926373  1
  O  O311  1  0.88450627  0.13826942  0.61408537  1
  O  O312  1  0.88157654  0.62207990  0.13341368  1
  O  O313  1  0.88237914  0.62443152  0.63161905  1
  O  O314  1  0.25482090  0.25427974  0.11957223  1
  O  O315  1  0.25959481  0.25251089  0.62916648  1
  O  O316  1  0.25559374  0.75540884  0.12093534  1
  O  O317  1  0.25585418  0.75845559  0.61878149  1
  O  O318  1  0.75521683  0.25725110  0.12053344  1
  O  O319  1  0.75727583  0.25367833  0.62143704  1
  O  O320  1  0.74923878  0.75566636  0.11557702  1
  O  O321  1  0.75425509  0.75121048  0.61455971  1
  O  O322  1  0.24386711  0.24204858  0.37586374  1
  O  O323  1  0.24459155  0.24536453  0.88087080  1
  O  O324  1  0.25156360  0.74185471  0.38108389  1
  O  O325  1  0.24439388  0.74626894  0.87816837  1
  O  O326  1  0.74270348  0.24685315  0.38322173  1
  O  O327  1  0.74478356  0.24287479  0.88239925  1
  O  O328  1  0.74343598  0.74317311  0.37927643  1
  O  O329  1  0.74298399  0.74502521  0.88266412  1
  O  O330  1  0.00859457  0.13336985  0.00988904  1
  O  O331  1  0.00403255  0.11755783  0.50337262  1
  O  O332  1  -0.00310664  0.61922339  0.00920178  1
  O  O333  1  0.00509224  0.61946310  0.50551347  1
  O  O334  1  0.50536846  0.11879643  0.00612870  1
  O  O335  1  0.50789348  0.11513147  0.49967262  1
  O  O336  1  0.50331284  0.61945930  0.00811366  1
  O  O337  1  0.50806247  0.62279748  0.50648698  1
  O  O338  1  0.49466050  0.37887350  0.49385426  1
  O  O339  1  0.49493716  0.38026562  0.99455845  1
  O  O340  1  0.49546967  0.88160211  0.49262670  1
  O  O341  1  0.49437799  0.88069361  0.99565221  1
  O  O342  1  0.99411531  0.38188110  0.49874712  1
  O  O343  1  0.99415457  0.37987203  0.99480674  1
  O  O344  1  0.99488216  0.88188697  0.49447404  1
  O  O345  1  0.98330166  0.86817389  1.00138635  1
  O  O346  1  0.48642593  0.50407698  0.37498485  1
  O  O347  1  0.48715749  0.50029832  0.87226867  1
  O  O348  1  0.49498207  0.99445377  0.38244994  1
  O  O349  1  0.49495383  0.99455276  0.88263008  1
  O  O350  1  0.98892739  0.49955879  0.38191473  1
  O  O351  1  0.99481225  0.49499907  0.87893675  1
  O  O352  1  0.99487665  0.99289420  0.38341817  1
  O  O353  1  1.00656062  0.99772239  0.87654300  1
  O  O354  1  0.01246585  0.00667185  0.13195194  1
  O  O355  1  -0.00871233  0.01041221  0.61243630  1
  O  O356  1  0.00337640  0.50753885  0.11895641  1
  O  O357  1  0.00605049  0.50479382  0.62032017  1
  O  O358  1  0.50429953  0.00462319  0.12039417  1
  O  O359  1  0.49830179  0.00052523  0.61011494  1
  O  O360  1  0.51458499  0.49975758  0.12653427  1
  O  O361  1  0.50725608  0.50638984  0.62595862  1
  O  O362  1  0.24199445  0.37709456  0.24077971  1
  O  O363  1  0.24219242  0.37989944  0.74492028  1
  O  O364  1  0.24910994  0.88249858  0.24409844  1
  O  O365  1  0.25378556  0.87592877  0.73413701  1
  O  O366  1  0.74959667  0.36925277  0.23678539  1
  O  O367  1  0.74504614  0.38029260  0.74485269  1
  O  O368  1  0.74558806  0.87871204  0.24504061  1
  O  O369  1  0.74410545  0.87460546  0.74729702  1
  O  O370  1  0.25545802  0.11876167  0.25584803  1
  O  O371  1  0.27120561  0.13563070  0.76048763  1
  O  O372  1  0.24417889  0.62531202  0.26326233  1
  O  O373  1  0.25484680  0.61933586  0.75370441  1
  O  O374  1  0.75772729  0.11695339  0.25017263  1
  O  O375  1  0.74643083  0.12997573  0.76767619  1
  O  O376  1  0.76260246  0.62984607  0.25660998  1
  O  O377  1  0.75633889  0.61945608  0.75541912  1
  O  O378  1  0.36947334  0.11982842  0.37072740  1
  O  O379  1  0.37201350  0.11867291  0.87120289  1
  O  O380  1  0.36510535  0.61322476  0.38007370  1
  O  O381  1  0.36872955  0.61814809  0.86858196  1
  O  O382  1  0.87474151  0.11815182  0.36802575  1
  O  O383  1  0.85834127  0.12825481  0.88575941  1
  O  O384  1  0.87123959  0.61781353  0.36855055  1
  O  O385  1  0.87030125  0.61894887  0.86975281  1
  O  O386  1  0.12991156  0.37971542  0.12916372  1
  O  O387  1  0.12866326  0.37914753  0.63096811  1
  O  O388  1  0.13010176  0.88405539  0.12424764  1
  O  O389  1  0.14104430  0.87239085  0.61782707  1
  O  O390  1  0.63405827  0.38416876  0.12672622  1
  O  O391  1  0.63110491  0.37902018  0.63068739  1
  O  O392  1  0.62964868  0.88059591  0.13011230  1
  O  O393  1  0.62560798  0.87844928  0.62678348  1
  O  O394  1  0.11984393  0.25444223  0.25411584  1
  O  O395  1  0.11768892  0.25395024  0.75657799  1
  O  O396  1  0.11811033  0.75663175  0.25422765  1
  O  O397  1  0.11607624  0.74377093  0.75949520  1
  O  O398  1  0.62612900  0.24726906  0.26377536  1
  O  O399  1  0.61967287  0.25491796  0.75441786  1
  O  O400  1  0.61737890  0.75593385  0.25417040  1
  O  O401  1  0.62397281  0.74868054  0.76444590  1
  O  O402  1  0.37483166  0.24194508  0.24346711  1
  O  O403  1  0.38208528  0.24370095  0.74453157  1
  O  O404  1  0.38502626  0.75878760  0.23985691  1
  O  O405  1  0.37579999  0.74177657  0.74290970  1
  O  O406  1  0.87993002  0.24408782  0.24528218  1
  O  O407  1  0.87994118  0.25793897  0.73660882  1
  O  O408  1  0.87972952  0.73770124  0.24742160  1
  O  O409  1  0.88530922  0.74254348  0.75051564  1
  O  O410  1  0.37642832  0.49710952  0.48722824  1
  O  O411  1  0.37326110  0.49922732  0.98663613  1
  O  O412  1  0.38367555  0.99642747  0.49337336  1
  O  O413  1  0.37954043  0.99477912  0.99506954  1
  O  O414  1  0.88036132  0.49531343  0.49314065  1
  O  O415  1  0.87955772  0.49442387  0.99378310  1
  O  O416  1  0.88392800  0.99218300  0.49312202  1
  O  O417  1  0.86922600  0.98637027  0.99615870  1
  O  O418  1  0.13289725  0.00732532  0.01397719  1
  O  O419  1  0.11282459  0.01133708  0.49388058  1
  O  O420  1  0.11714576  0.50207878  0.00583621  1
  O  O421  1  0.12028660  0.50417497  0.50537781  1
  O  O422  1  0.61883499  0.00474162  0.00730825  1
  O  O423  1  0.61608878  0.00773742  0.49539129  1
  O  O424  1  0.62470729  0.50221890  0.01307620  1
  O  O425  1  0.62526184  0.50653883  0.50745481  1
  O  O426  1  0.36790582  0.36826651  0.12543406  1
  O  O427  1  0.36741721  0.36471626  0.62904825  1
  O  O428  1  0.36912963  0.86768202  0.11922061  1
  O  O429  1  0.37070110  0.86714885  0.61736431  1
  O  O430  1  0.86870106  0.37158298  0.12117795  1
  O  O431  1  0.86999982  0.36745806  0.61938413  1
  O  O432  1  0.86832879  0.87368360  0.11439131  1
  O  O433  1  0.87819285  0.87277187  0.60872352  1
  O  O434  1  0.12847187  0.12972399  0.38166615  1
  O  O435  1  0.13141840  0.13333471  0.88307926  1
  O  O436  1  0.13357689  0.62280686  0.38156215  1
  O  O437  1  0.13144320  0.63508540  0.87674871  1
  O  O438  1  0.62692984  0.13190101  0.38543304  1
  O  O439  1  0.63345109  0.13259036  0.88321972  1
  O  O440  1  0.63002217  0.62870230  0.37882678  1
  O  O441  1  0.63165701  0.63320895  0.87650321  1
