# generated using pymatgen
data_V93Zn93O256
_symmetry_space_group_name_H-M   'P 1'
_cell_length_a   17.04751614
_cell_length_b   17.04310709
_cell_length_c   17.04632559
_cell_angle_alpha   90.01557247
_cell_angle_beta   90.00322468
_cell_angle_gamma   89.99385840
_symmetry_Int_Tables_number   1
_chemical_formula_structural   V93Zn93O256
_chemical_formula_sum   'V93 Zn93 O256'
_cell_volume   4952.68427432
_cell_formula_units_Z   1
loop_
 _symmetry_equiv_pos_site_id
 _symmetry_equiv_pos_as_xyz
  1  'x, y, z'
loop_
 _atom_site_type_symbol
 _atom_site_label
 _atom_site_symmetry_multiplicity
 _atom_site_fract_x
 _atom_site_fract_y
 _atom_site_fract_z
 _atom_site_occupancy
  V  V0  1  0.25186797  0.62566894  0.87764290  1
  V  V1  1  0.87684441  0.62077273  0.25495936  1
  V  V2  1  0.12774041  0.61965834  0.50473935  1
  V  V3  1  0.37688386  0.62506176  0.75202335  1
  V  V4  1  0.87572783  -0.00640843  0.87632883  1
  V  V5  1  -0.00359428  -0.00782487  -0.00234515  1
  V  V6  1  0.50056202  0.37637835  0.87550818  1
  V  V7  1  0.75273642  0.62227502  0.37605113  1
  V  V8  1  0.75115090  0.00175058  0.74892035  1
  V  V9  1  0.75031221  0.62532847  0.87668199  1
  V  V10  1  0.87506210  0.49895562  0.87512731  1
  V  V11  1  0.37435827  0.12668713  0.24862345  1
  V  V12  1  0.62594931  0.87471061  0.75149276  1
  V  V13  1  0.37419946  0.12589173  0.75016267  1
  V  V14  1  0.12414363  0.37606980  0.24866588  1
  V  V15  1  0.75420460  0.49818493  0.25452493  1
  V  V16  1  0.12450390  0.12309159  -0.00151941  1
  V  V17  1  0.49950722  0.37536710  0.37529282  1
  V  V18  1  0.37153898  0.25202783  0.62441075  1
  V  V19  1  0.62420847  0.37586319  0.24982651  1
  V  V20  1  -0.00031988  0.74839638  0.25015732  1
  V  V21  1  -0.00010334  0.37294013  0.87223678  1
  V  V22  1  0.12262669  0.25058921  0.37369433  1
  V  V23  1  0.37542117  0.62737141  0.25160528  1
  V  V24  1  -0.00401444  0.37624225  0.37409277  1
  V  V25  1  0.50124102  0.50049201  0.00060259  1
  V  V26  1  0.49945415  0.49992990  0.50076354  1
  V  V27  1  0.12408222  0.25002072  0.87192607  1
  V  V28  1  0.37638994  0.75167412  0.12652370  1
  V  V29  1  0.24745910  -0.00000578  0.24803148  1
  V  V30  1  0.74876448  0.12046070  0.36717338  1
  V  V31  1  0.75532018  0.88363884  0.12382873  1
  V  V32  1  0.62388945  0.75065145  0.37365105  1
  V  V33  1  0.87479154  0.87345761  0.50002795  1
  V  V34  1  0.37395005  0.37574199  0.49987914  1
  V  V35  1  0.37694126  -0.00103146  0.37628670  1
  V  V36  1  0.25036935  0.12559257  0.87405771  1
  V  V37  1  -0.00016820  0.24814693  0.74854244  1
  V  V38  1  0.49952171  0.25236528  0.24858647  1
  V  V39  1  0.49936688  0.12540801  0.62426865  1
  V  V40  1  0.12505163  0.75192627  0.87569964  1
  V  V41  1  0.74949226  0.24899934  0.49850248  1
  V  V42  1  0.24434033  0.49774941  0.74536493  1
  V  V43  1  0.24979274  0.25078666  -0.00083297  1
  V  V44  1  0.87537382  0.24878613  0.62399263  1
  V  V45  1  0.62194533  0.11767206  -0.00129966  1
  V  V46  1  0.36792814  0.75631056  0.62451051  1
  V  V47  1  0.12509135  0.87503368  0.25059243  1
  V  V48  1  0.87616480  0.62486739  0.74961725  1
  V  V49  1  0.74996308  0.87399634  0.62468085  1
  V  V50  1  0.74988777  0.49899852  0.74988915  1
  V  V51  1  -0.00011742  0.12353776  0.12311962  1
  V  V52  1  0.62517208  0.37461790  0.74899272  1
  V  V53  1  0.49852860  0.25119514  0.74993030  1
  V  V54  1  0.50125515  0.62698534  0.12735950  1
  V  V55  1  -0.00186506  0.24864502  0.24836853  1
  V  V56  1  0.87454280  0.37273813  -0.00072584  1
  V  V57  1  0.12221083  0.12523073  0.49868151  1
  V  V58  1  0.62640606  0.62501266  0.50143748  1
  V  V59  1  0.37668338  0.50132127  0.87717151  1
  V  V60  1  0.37430222  0.25109001  0.12365379  1
  V  V61  1  0.62322215  0.12338957  0.49985452  1
  V  V62  1  -0.00020933  -0.00031363  0.49965903  1
  V  V63  1  0.74909174  0.37488242  0.62383738  1
  V  V64  1  -0.00079799  0.87412657  0.37534923  1
  V  V65  1  0.00290980  0.50104599  0.00107250  1
  V  V66  1  0.37976123  0.88081694  0.00247370  1
  V  V67  1  0.24817113  0.12708493  0.37316930  1
  V  V68  1  0.37655494  0.00050564  0.87684965  1
  V  V69  1  -0.00070611  0.12368506  0.62339805  1
  V  V70  1  0.49974449  0.11728919  0.12078773  1
  V  V71  1  0.24830807  0.25162335  0.49949773  1
  V  V72  1  0.12814305  0.87381634  0.74257703  1
  V  V73  1  0.62761438  0.62642668  0.00151322  1
  V  V74  1  0.75156646  0.74961803  0.50114200  1
  V  V75  1  0.00293274  0.62043091  0.62674434  1
  V  V76  1  0.87393700  0.75009958  0.12008446  1
  V  V77  1  0.50163207  0.62687932  0.62708597  1
  V  V78  1  0.87267531  0.24912577  0.12282764  1
  V  V79  1  0.00006337  0.49857372  0.49805325  1
  V  V80  1  0.62599656  0.50087502  0.12645920  1
  V  V81  1  0.12496806  0.74874576  0.37588026  1
  V  V82  1  0.87301295  0.37982819  0.49299038  1
  V  V83  1  0.63053884  0.88430558  0.25229109  1
  V  V84  1  0.25213303  0.75158160  0.00049519  1
  V  V85  1  0.87050003  -0.00069711  0.36734668  1
  V  V86  1  0.50228111  0.88050592  0.88025672  1
  V  V87  1  0.25032490  0.62646404  0.37630830  1
  V  V88  1  0.62569245  0.24835184  0.87543441  1
  V  V89  1  0.62585453  0.75063787  0.87765587  1
  V  V90  1  0.24944760  0.50121029  0.25004301  1
  V  V91  1  0.24964885  -0.00425360  0.74299417  1
  V  V92  1  0.24905603  0.37555607  0.12462134  1
  Zn  Zn93  1  0.24385239  0.76008966  0.50568002  1
  Zn  Zn94  1  -0.00041904  0.75189852  0.74904690  1
  Zn  Zn95  1  0.12295228  -0.00271782  0.12197629  1
  Zn  Zn96  1  0.62502154  0.49978381  0.62590294  1
  Zn  Zn97  1  0.87507249  0.12409145  0.74983883  1
  Zn  Zn98  1  0.49779618  -0.00262122  0.50263005  1
  Zn  Zn99  1  0.50008116  0.87587930  0.37754659  1
  Zn  Zn100  1  0.37504242  0.50239040  0.37592723  1
  Zn  Zn101  1  0.11980254  0.37848201  0.74174248  1
  Zn  Zn102  1  0.86986184  0.12066778  0.24512671  1
  Zn  Zn103  1  -0.00319749  0.87106347  0.87543304  1
  Zn  Zn104  1  0.49962742  0.75221104  0.75172482  1
  Zn  Zn105  1  0.87619363  0.74926520  0.62670540  1
  Zn  Zn106  1  0.62479328  0.24877541  0.37257578  1
  Zn  Zn107  1  0.24109934  0.38179893  0.61843865  1
  Zn  Zn108  1  0.75523445  0.75396313  -0.00050110  1
  Zn  Zn109  1  0.62200242  -0.00212273  0.62498050  1
  Zn  Zn110  1  0.74870427  0.24924566  -0.00219896  1
  Zn  Zn111  1  0.37510354  0.37613749  0.00051597  1
  Zn  Zn112  1  0.50081076  0.75244356  0.25135938  1
  Zn  Zn113  1  0.74862158  0.37405738  0.12377317  1
  Zn  Zn114  1  0.37072079  0.87975531  0.50434984  1
  Zn  Zn115  1  0.24982215  0.87559367  0.12438396  1
  Zn  Zn116  1  0.75178520  0.12487868  0.87628268  1
  Zn  Zn117  1  0.12537410  0.50312341  0.12452395  1
  Zn  Zn118  1  0.12618362  0.62646522  0.00322719  1
  Zn  Zn119  1  0.12822105  -0.00617741  0.61977005  1
  Zn  Zn120  1  0.62699447  0.00043563  0.12597814  1
  Zn  Zn121  1  0.00189036  0.62494308  0.12582535  1
  Zn  Zn122  1  0.18480348  0.18780724  0.18488076  1
  Zn  Zn123  1  0.18528125  0.18688728  0.68524070  1
  Zn  Zn124  1  0.18781139  0.68708457  0.18575811  1
  Zn  Zn125  1  0.18723505  0.68418361  0.69057465  1
  Zn  Zn126  1  0.68437070  0.18810656  0.18506080  1
  Zn  Zn127  1  0.68672568  0.18736594  0.68590327  1
  Zn  Zn128  1  0.69096938  0.68957372  0.18881243  1
  Zn  Zn129  1  0.68841049  0.68942674  0.68993765  1
  Zn  Zn130  1  0.31284575  0.31506410  0.31272359  1
  Zn  Zn131  1  0.31324796  0.31523015  0.81387815  1
  Zn  Zn132  1  0.31048536  0.81294030  0.31480422  1
  Zn  Zn133  1  0.31338979  0.81310504  0.81213529  1
  Zn  Zn134  1  0.81008348  0.30836812  0.31115171  1
  Zn  Zn135  1  0.81234038  0.31078123  0.81141997  1
  Zn  Zn136  1  0.81108142  0.81073366  0.30931968  1
  Zn  Zn137  1  0.81265791  0.81112235  0.81165089  1
  Zn  Zn138  1  0.18587796  0.43894357  0.43489678  1
  Zn  Zn139  1  0.18662600  0.43580342  0.93400950  1
  Zn  Zn140  1  0.19019126  0.93577731  0.43889314  1
  Zn  Zn141  1  0.18882992  0.93707889  0.93446922  1
  Zn  Zn142  1  0.68423626  0.43788980  0.43657616  1
  Zn  Zn143  1  0.68816255  0.43642609  0.93869766  1
  Zn  Zn144  1  0.68801218  0.93806602  0.43868754  1
  Zn  Zn145  1  0.69149229  0.93764201  0.93954970  1
  Zn  Zn146  1  0.31243660  0.06341393  0.06211644  1
  Zn  Zn147  1  0.31097020  0.06633408  0.56128639  1
  Zn  Zn148  1  0.31348146  0.56355295  0.06445317  1
  Zn  Zn149  1  0.31512900  0.56628119  0.56323502  1
  Zn  Zn150  1  0.81209850  0.06414506  0.05685114  1
  Zn  Zn151  1  0.81228047  0.06069072  0.55955757  1
  Zn  Zn152  1  0.81416571  0.56264855  0.06565192  1
  Zn  Zn153  1  0.81466739  0.56099474  0.56408022  1
  Zn  Zn154  1  0.43554807  0.44003134  0.18771337  1
  Zn  Zn155  1  0.43363871  0.43823084  0.68701537  1
  Zn  Zn156  1  0.44009673  0.93485226  0.19372102  1
  Zn  Zn157  1  0.44065197  0.93907094  0.69200208  1
  Zn  Zn158  1  0.93711141  0.43605569  0.18526872  1
  Zn  Zn159  1  0.93688277  0.43689371  0.68398236  1
  Zn  Zn160  1  0.93872784  0.93564315  0.18556299  1
  Zn  Zn161  1  0.93951223  0.93551169  0.68827048  1
  Zn  Zn162  1  0.05912948  0.06257432  0.31177466  1
  Zn  Zn163  1  0.06271453  0.06110816  0.81097938  1
  Zn  Zn164  1  0.06307571  0.56102169  0.31553462  1
  Zn  Zn165  1  0.06323273  0.56445821  0.81608218  1
  Zn  Zn166  1  0.56069867  0.06484521  0.31097406  1
  Zn  Zn167  1  0.56291563  0.06230857  0.81203704  1
  Zn  Zn168  1  0.56297547  0.56259120  0.31360687  1
  Zn  Zn169  1  0.56454431  0.56258698  0.81300698  1
  Zn  Zn170  1  0.43683308  0.18866315  0.43631899  1
  Zn  Zn171  1  0.43876261  0.18843404  0.93853872  1
  Zn  Zn172  1  0.43750672  0.68771497  0.44086663  1
  Zn  Zn173  1  0.44025430  0.69080749  0.93982018  1
  Zn  Zn174  1  0.93413347  0.18763637  0.43624220  1
  Zn  Zn175  1  0.93708702  0.18156234  0.93512389  1
  Zn  Zn176  1  0.93866673  0.68616098  0.43841897  1
  Zn  Zn177  1  0.93922753  0.68563349  0.93660239  1
  Zn  Zn178  1  0.06239596  0.31247509  0.06099425  1
  Zn  Zn179  1  0.06342729  0.31338644  0.56449973  1
  Zn  Zn180  1  0.06400338  0.81218957  0.06536171  1
  Zn  Zn181  1  0.06078384  0.80784439  0.56296082  1
  Zn  Zn182  1  0.56317471  0.31062193  0.06190620  1
  Zn  Zn183  1  0.56159670  0.31071727  0.56189135  1
  Zn  Zn184  1  0.56609449  0.81360974  0.06514490  1
  Zn  Zn185  1  0.55907965  0.81524231  0.56090237  1
  O  O186  1  0.11762804  0.12290640  0.11660196  1
  O  O187  1  0.11677266  0.12335786  0.61518793  1
  O  O188  1  0.11985233  0.62211738  0.12082098  1
  O  O189  1  0.11638833  0.62962172  0.61532686  1
  O  O190  1  0.61701291  0.12305136  0.11809530  1
  O  O191  1  0.61849520  0.12504471  0.61520067  1
  O  O192  1  0.62148638  0.62089353  0.12202707  1
  O  O193  1  0.61659071  0.62596109  0.62108730  1
  O  O194  1  0.38187064  0.37744366  0.38193729  1
  O  O195  1  0.38364530  0.38208967  0.87760849  1
  O  O196  1  0.37676816  0.88944070  0.37093132  1
  O  O197  1  0.38356671  0.87885127  0.88267123  1
  O  O198  1  0.87921846  0.36665457  0.38598699  1
  O  O199  1  0.88025192  0.37933825  0.87951936  1
  O  O200  1  0.87807991  0.88034823  0.37873668  1
  O  O201  1  0.87696609  0.88795394  0.86954499  1
  O  O202  1  0.25598727  0.00777350  0.36471200  1
  O  O203  1  0.25639743  0.00722071  0.86594647  1
  O  O204  1  0.25137070  0.50824453  0.36815730  1
  O  O205  1  0.25757804  0.50590622  0.86956935  1
  O  O206  1  0.76034534  0.00840871  0.38193140  1
  O  O207  1  0.75757708  -0.00102574  0.86559719  1
  O  O208  1  0.74389321  0.50580227  0.36221316  1
  O  O209  1  0.75564291  0.50474429  0.86962510  1
  O  O210  1  0.24879770  0.49367698  0.13142534  1
  O  O211  1  0.25715462  0.50376175  0.64276610  1
  O  O212  1  0.24896169  1.00076484  0.13822416  1
  O  O213  1  0.24864447  1.00748295  0.63906453  1
  O  O214  1  0.74449770  0.49916673  0.13722338  1
  O  O215  1  0.74860685  0.49290564  0.63169711  1
  O  O216  1  0.75427331  0.98650266  0.12412095  1
  O  O217  1  0.74911211  0.99319076  0.63314569  1
  O  O218  1  0.00350336  0.36955161  0.25465691  1
  O  O219  1  -0.00197254  0.36809283  0.75506666  1
  O  O220  1  0.00492771  0.86891100  0.25633914  1
  O  O221  1  0.01231963  0.87260101  0.75391994  1
  O  O222  1  0.50411189  0.37236500  0.25477713  1
  O  O223  1  0.50447883  0.37071777  0.75448296  1
  O  O224  1  0.51360059  0.87063426  0.25559192  1
  O  O225  1  0.50769558  0.87355441  0.76186884  1
  O  O226  1  0.49425612  0.13286673  0.24150026  1
  O  O227  1  0.49384244  0.13157219  0.74532544  1
  O  O228  1  0.49440298  0.62707553  0.24490857  1
  O  O229  1  0.49672379  0.62634323  0.74264626  1
  O  O230  1  0.99721518  0.13128592  0.24193875  1
  O  O231  1  0.99911100  0.12969466  0.74106773  1
  O  O232  1  0.99171718  0.62839224  0.25220921  1
  O  O233  1  0.99627990  0.62170572  0.74114296  1
  O  O234  1  0.36747895  0.25178876  0.00547535  1
  O  O235  1  0.36803759  0.25521718  0.50410199  1
  O  O236  1  0.37160054  0.76053504  0.00565688  1
  O  O237  1  0.37393597  0.74748552  0.51718584  1
  O  O238  1  0.87666648  0.25340646  0.00779870  1
  O  O239  1  0.86948650  0.25867895  0.50472341  1
  O  O240  1  0.87671216  0.74239973  0.01549543  1
  O  O241  1  0.86859853  0.75605912  0.49921597  1
  O  O242  1  0.12808735  0.24489022  0.49160043  1
  O  O243  1  0.12967360  0.24365005  0.99237028  1
  O  O244  1  0.12371181  0.73771548  0.49400189  1
  O  O245  1  0.13253418  0.75241466  0.99102411  1
  O  O246  1  0.63011986  0.23955550  0.49756371  1
  O  O247  1  0.62546478  0.24135542  0.99276435  1
  O  O248  1  0.63158404  0.74527299  0.49259422  1
  O  O249  1  0.62704346  0.74266269  0.99483365  1
  O  O250  1  0.49337465  0.24289071  0.13025746  1
  O  O251  1  0.49199273  0.24569039  0.63093663  1
  O  O252  1  0.49471568  0.74377965  0.12669904  1
  O  O253  1  0.49313902  0.73895291  0.62739717  1
  O  O254  1  0.99158938  0.24439116  0.12782709  1
  O  O255  1  0.99369615  0.24358917  0.62843678  1
  O  O256  1  0.99120374  0.75071135  0.13262547  1
  O  O257  1  0.99661288  0.73422027  0.62641490  1
  O  O258  1  0.00327967  0.25523402  0.36868429  1
  O  O259  1  0.00376262  0.25318585  0.86870391  1
  O  O260  1  0.00511100  0.75489777  0.36994470  1
  O  O261  1  0.01162931  0.74998323  0.87383559  1
  O  O262  1  0.50041889  0.25643595  0.36636914  1
  O  O263  1  0.50486029  0.25616474  0.86853505  1
  O  O264  1  0.51459230  0.74909290  0.37728466  1
  O  O265  1  0.50660010  0.76204990  0.87453390  1
  O  O266  1  0.24231362  0.13181909  0.49207530  1
  O  O267  1  0.24520601  0.13037503  0.99369980  1
  O  O268  1  0.24060401  0.62559248  0.49636412  1
  O  O269  1  0.25113127  0.63321616  0.99431393  1
  O  O270  1  0.74121126  0.12916814  0.49294968  1
  O  O271  1  0.73804618  0.12931492  0.99723416  1
  O  O272  1  0.74668877  0.62828683  0.49623510  1
  O  O273  1  0.74490622  0.62386916  0.99370036  1
  O  O274  1  0.25039872  0.36828972  0.00541463  1
  O  O275  1  0.25519500  0.36973209  0.49768342  1
  O  O276  1  0.26205129  0.87024160  0.00002812  1
  O  O277  1  0.25721134  0.87191670  0.49920579  1
  O  O278  1  0.75851646  0.37143631  0.00278528  1
  O  O279  1  0.75523766  0.37100200  0.50206686  1
  O  O280  1  0.74354749  0.87118368  0.01900495  1
  O  O281  1  0.75497699  0.86957990  0.50544010  1
  O  O282  1  0.13050685  0.49300292  0.24966852  1
  O  O283  1  0.14186474  0.50198174  0.75793460  1
  O  O284  1  0.13326863  0.99529819  0.25131876  1
  O  O285  1  0.13344691  0.99103390  0.74900696  1
  O  O286  1  0.63316760  0.49620249  0.24530600  1
  O  O287  1  0.63196466  0.49262845  0.74920572  1
  O  O288  1  0.62343651  0.98880520  0.25024345  1
  O  O289  1  0.63529385  0.99351538  0.75001574  1
  O  O290  1  0.36641615  0.00665784  0.25622050  1
  O  O291  1  0.36766109  0.00555419  0.75610783  1
  O  O292  1  0.36780900  0.50912756  0.25213180  1
  O  O293  1  0.36845457  0.50631368  0.75827989  1
  O  O294  1  0.88081965  0.00059730  0.26390603  1
  O  O295  1  0.86589612  0.00019694  0.75517290  1
  O  O296  1  0.86621512  0.50853658  0.24371900  1
  O  O297  1  0.86970830  0.50398689  0.75569020  1
  O  O298  1  0.11701717  0.36897386  0.36876352  1
  O  O299  1  0.11751577  0.36714049  0.86903340  1
  O  O300  1  0.11815913  0.86896000  0.37008602  1
  O  O301  1  0.12608422  0.86411293  0.86627316  1
  O  O302  1  0.61735338  0.37235345  0.36811341  1
  O  O303  1  0.61970401  0.36937861  0.86875301  1
  O  O304  1  0.62867550  0.86673608  0.36932456  1
  O  O305  1  0.61932607  0.87173568  0.87398285  1
  O  O306  1  0.38109414  0.13082169  0.12855896  1
  O  O307  1  0.37955356  0.13229786  0.63078419  1
  O  O308  1  0.38144868  0.63208403  0.13119741  1
  O  O309  1  0.38512231  0.63322968  0.63155431  1
  O  O310  1  0.87987010  0.13279091  0.12459980  1
  O  O311  1  0.88088180  0.13122903  0.62266375  1
  O  O312  1  0.87695985  0.63225876  0.13762650  1
  O  O313  1  0.88448052  0.62463504  0.63123123  1
  O  O314  1  0.25476361  0.25470517  0.11929199  1
  O  O315  1  0.25611107  0.24851211  0.61650783  1
  O  O316  1  0.25876834  0.75292335  0.11907688  1
  O  O317  1  0.26557974  0.74224550  0.62768453  1
  O  O318  1  0.76220643  0.25051886  0.12428864  1
  O  O319  1  0.75502135  0.25545423  0.61830722  1
  O  O320  1  0.75931090  0.75606087  0.12397812  1
  O  O321  1  0.75199182  0.75558968  0.61854034  1
  O  O322  1  0.24301084  0.24603019  0.37849283  1
  O  O323  1  0.24548439  0.24486828  0.87870084  1
  O  O324  1  0.24191230  0.74233584  0.37638531  1
  O  O325  1  0.24489264  0.74551405  0.88010151  1
  O  O326  1  0.74818370  0.23868517  0.38119801  1
  O  O327  1  0.74051050  0.24628359  0.87370894  1
  O  O328  1  0.74220725  0.74340760  0.38073544  1
  O  O329  1  0.74532901  0.74402694  0.87916447  1
  O  O330  1  0.00622553  0.11563300  0.00390976  1
  O  O331  1  0.00342495  0.12025384  0.50252144  1
  O  O332  1  0.00104052  0.61132850  0.00033706  1
  O  O333  1  0.00554264  0.61674261  0.50514025  1
  O  O334  1  0.50813213  0.13127526  0.01087862  1
  O  O335  1  0.50847330  0.12680905  0.50497549  1
  O  O336  1  0.50727202  0.62005893  0.00664566  1
  O  O337  1  0.50594703  0.62034555  0.50910531  1
  O  O338  1  0.49442103  0.37961729  0.49595532  1
  O  O339  1  0.50071040  0.38275388  0.99354752  1
  O  O340  1  0.49113456  0.87986321  0.49544143  1
  O  O341  1  0.49146351  0.87179115  0.99231163  1
  O  O342  1  0.99217684  0.38047445  0.49551201  1
  O  O343  1  0.99479417  0.38138138  0.99233728  1
  O  O344  1  0.99531325  0.87855749  0.49402997  1
  O  O345  1  1.00676226  0.88871591  0.99778928  1
  O  O346  1  0.49892986  0.49434985  0.38297927  1
  O  O347  1  0.49658453  0.49628037  0.88071303  1
  O  O348  1  0.48624923  1.00424983  0.37538453  1
  O  O349  1  0.49335411  0.98827654  0.86965529  1
  O  O350  1  1.00208023  0.49216304  0.38861520  1
  O  O351  1  0.99432765  0.49422051  0.88121830  1
  O  O352  1  0.99165406  0.99402471  0.38043002  1
  O  O353  1  0.99312173  0.99912336  0.88113542  1
  O  O354  1  -0.00103844  0.00485643  0.11547487  1
  O  O355  1  0.00099118  0.00552521  0.61631186  1
  O  O356  1  0.00084978  0.49896966  0.11245030  1
  O  O357  1  -0.00399739  0.50936157  0.61230621  1
  O  O358  1  0.49942801  0.01492147  0.13203568  1
  O  O359  1  0.50100898  0.01014627  0.62461227  1
  O  O360  1  0.50605687  0.50705087  0.12080445  1
  O  O361  1  0.49983943  0.51161424  0.62128866  1
  O  O362  1  0.24392364  0.38049745  0.24531760  1
  O  O363  1  0.25179567  0.39112437  0.75140242  1
  O  O364  1  0.24407566  0.88586951  0.25079096  1
  O  O365  1  0.24273583  0.88634273  0.75731834  1
  O  O366  1  0.74515530  0.38321554  0.24958305  1
  O  O367  1  0.74511999  0.37940765  0.74359543  1
  O  O368  1  0.74043901  0.86845102  0.23806104  1
  O  O369  1  0.74549067  0.88257832  0.74496296  1
  O  O370  1  0.25325695  0.11963377  0.25349601  1
  O  O371  1  0.25493561  0.11856615  0.75559334  1
  O  O372  1  0.25523267  0.62093597  0.25611147  1
  O  O373  1  0.25643017  0.61534806  0.75784374  1
  O  O374  1  0.74845630  0.12870340  0.26312864  1
  O  O375  1  0.74923077  0.11210764  0.74948294  1
  O  O376  1  0.75755804  0.61737621  0.25548447  1
  O  O377  1  0.75508741  0.61881526  0.75644217  1
  O  O378  1  0.36779641  0.12054513  0.36778928  1
  O  O379  1  0.37120764  0.12085726  0.86973195  1
  O  O380  1  0.36867914  0.62617468  0.37049868  1
  O  O381  1  0.37248325  0.62225749  0.87161858  1
  O  O382  1  0.86574041  0.11639296  0.37426130  1
  O  O383  1  0.87208294  0.11181909  0.86964434  1
  O  O384  1  0.86899446  0.63105353  0.36279595  1
  O  O385  1  0.87010786  0.61826620  0.86968342  1
  O  O386  1  0.13112119  0.37509886  0.13153957  1
  O  O387  1  0.12924152  0.37388465  0.62940153  1
  O  O388  1  0.12920929  0.87806997  0.13491789  1
  O  O389  1  0.12253239  0.87266981  0.63741517  1
  O  O390  1  0.62561619  0.38231159  0.13172289  1
  O  O391  1  0.63095744  0.37487715  0.63083934  1
  O  O392  1  0.63507432  0.87760040  0.13386855  1
  O  O393  1  0.63094831  0.87550470  0.63200807  1
  O  O394  1  0.11845353  0.25561458  0.25447222  1
  O  O395  1  0.11756635  0.24860672  0.75652409  1
  O  O396  1  0.11927638  0.75445652  0.25596157  1
  O  O397  1  0.12753121  0.75624754  0.75918210  1
  O  O398  1  0.61757615  0.25800137  0.24956769  1
  O  O399  1  0.61803890  0.25467900  0.75449071  1
  O  O400  1  0.62669425  0.75553869  0.26202780  1
  O  O401  1  0.62523150  0.75734041  0.76000144  1
  O  O402  1  0.37842207  0.24533516  0.24365334  1
  O  O403  1  0.37878434  0.24535064  0.74575939  1
  O  O404  1  0.37655210  0.74555628  0.24488516  1
  O  O405  1  0.37709356  0.74328353  0.74197601  1
  O  O406  1  0.88043012  0.24812805  0.23905176  1
  O  O407  1  0.88104681  0.24750770  0.74183736  1
  O  O408  1  0.87974634  0.74051575  0.24311482  1
  O  O409  1  0.87849149  0.74013808  0.74920845  1
  O  O410  1  0.38141264  0.49472866  0.49978283  1
  O  O411  1  0.38348691  0.49995141  0.99494135  1
  O  O412  1  0.37337106  1.00460351  0.48749777  1
  O  O413  1  0.36837038  0.98911681  0.99334849  1
  O  O414  1  0.88245176  0.48767512  0.50258547  1
  O  O415  1  0.88249122  0.49403949  0.99505886  1
  O  O416  1  0.88048385  0.99284497  0.49003833  1
  O  O417  1  0.88533909  1.00542995  0.98909447  1
  O  O418  1  0.11800181  0.00597691  -0.00166353  1
  O  O419  1  0.11806872  0.00670076  0.49839300  1
  O  O420  1  0.11382855  0.50015495  -0.00199484  1
  O  O421  1  0.11572013  0.51075616  0.49628237  1
  O  O422  1  0.62861450  0.01364610  0.00215945  1
  O  O423  1  0.62285068  0.01236177  0.50171314  1
  O  O424  1  0.62093664  0.50618921  0.00614999  1
  O  O425  1  0.61843407  0.50727635  0.50349861  1
  O  O426  1  0.36791640  0.36879932  0.12383967  1
  O  O427  1  0.36983903  0.36902621  0.61809070  1
  O  O428  1  0.37662541  0.87190018  0.11756274  1
  O  O429  1  0.38293362  0.85772744  0.63123519  1
  O  O430  1  0.87518729  0.36354873  0.11821904  1
  O  O431  1  0.86887034  0.36897507  0.61404897  1
  O  O432  1  0.86190856  0.86535727  0.13463710  1
  O  O433  1  0.86920040  0.87257976  0.61778652  1
  O  O434  1  0.12807808  0.13142599  0.37833949  1
  O  O435  1  0.13098169  0.13014224  0.87903735  1
  O  O436  1  0.12944305  0.62959254  0.38434437  1
  O  O437  1  0.13211824  0.63711826  0.87723487  1
  O  O438  1  0.63156782  0.12481064  0.38251401  1
  O  O439  1  0.62233044  0.13074356  0.88289771  1
  O  O440  1  0.63186501  0.63234959  0.38114027  1
  O  O441  1  0.63064288  0.63031013  0.88092261  1
