# generated using pymatgen
data_V93Zn93O256
_symmetry_space_group_name_H-M   'P 1'
_cell_length_a   17.04776197
_cell_length_b   17.04606003
_cell_length_c   17.05371228
_cell_angle_alpha   90.02235943
_cell_angle_beta   90.01202885
_cell_angle_gamma   90.00035829
_symmetry_Int_Tables_number   1
_chemical_formula_structural   V93Zn93O256
_chemical_formula_sum   'V93 Zn93 O256'
_cell_volume   4955.76010699
_cell_formula_units_Z   1
loop_
 _symmetry_equiv_pos_site_id
 _symmetry_equiv_pos_as_xyz
  1  'x, y, z'
loop_
 _atom_site_type_symbol
 _atom_site_label
 _atom_site_symmetry_multiplicity
 _atom_site_fract_x
 _atom_site_fract_y
 _atom_site_fract_z
 _atom_site_occupancy
  V  V0  1  0.62517749  0.12577625  0.00067534  1
  V  V1  1  0.25170928  -0.00194039  0.24991824  1
  V  V2  1  0.25001820  0.49977559  0.24855146  1
  V  V3  1  0.74930985  0.62520773  0.87489302  1
  V  V4  1  0.74981470  0.87425983  0.62596965  1
  V  V5  1  0.74991595  -0.00085377  0.25041096  1
  V  V6  1  0.62414194  0.75033754  0.37446101  1
  V  V7  1  0.12651533  0.24932061  0.37539304  1
  V  V8  1  0.50024121  0.62459926  0.12408697  1
  V  V9  1  0.00102181  0.12325043  0.62541689  1
  V  V10  1  0.62593090  0.25153047  0.37520624  1
  V  V11  1  0.75139878  0.12645102  0.87554074  1
  V  V12  1  0.49543221  0.75293733  0.75347944  1
  V  V13  1  0.37619124  0.37665196  -0.00048076  1
  V  V14  1  0.74886388  0.61775887  0.37087281  1
  V  V15  1  0.37578474  0.37526462  0.49979931  1
  V  V16  1  0.37781617  0.87188647  -0.00454497  1
  V  V17  1  0.74949962  0.00010974  0.74963110  1
  V  V18  1  0.23532535  0.74440345  -0.00601807  1
  V  V19  1  0.87371833  0.87671330  0.00001535  1
  V  V20  1  0.62518202  0.25286978  0.87565702  1
  V  V21  1  0.25145570  0.24810408  -0.00054427  1
  V  V22  1  0.37017568  0.62877780  0.74871433  1
  V  V23  1  0.25557162  0.74942999  0.50369366  1
  V  V24  1  0.62440102  0.37521650  0.75218379  1
  V  V25  1  0.74990849  0.37594594  0.62565851  1
  V  V26  1  0.62203162  0.75163621  0.87514418  1
  V  V27  1  0.25102114  0.24767139  0.49980725  1
  V  V28  1  0.12131485  0.50129798  0.11910323  1
  V  V29  1  0.75050209  0.12521266  0.37588492  1
  V  V30  1  0.00082324  0.25072174  0.75165557  1
  V  V31  1  0.62421335  0.62556051  0.00078534  1
  V  V32  1  0.00230361  0.37906087  0.87896892  1
  V  V33  1  0.25184536  0.12451915  0.37528426  1
  V  V34  1  0.87948301  0.38199843  0.50082894  1
  V  V35  1  0.11988733  0.62074543  0.49754696  1
  V  V36  1  0.87577010  0.12572359  0.25017984  1
  V  V37  1  0.37658747  0.25030458  0.12522608  1
  V  V38  1  0.62348935  0.50139559  0.62652986  1
  V  V39  1  0.00317891  0.86905506  0.87475322  1
  V  V40  1  0.62502661  0.12471069  0.50152198  1
  V  V41  1  0.24955755  0.37513013  0.62534607  1
  V  V42  1  0.75169821  0.37819240  0.12793697  1
  V  V43  1  0.37702314  -0.00228648  0.87527161  1
  V  V44  1  0.63084339  0.37936815  0.25159609  1
  V  V45  1  0.75028777  0.87567965  0.12537023  1
  V  V46  1  0.37673435  0.12413518  0.24999926  1
  V  V47  1  0.87842937  0.24980228  0.12693552  1
  V  V48  1  0.87084023  0.61633561  0.25042730  1
  V  V49  1  0.37237889  0.50307313  0.87518071  1
  V  V50  1  0.87634449  0.74968478  0.62622935  1
  V  V51  1  0.75160189  0.25083622  0.00109277  1
  V  V52  1  0.37494650  0.25031264  0.62645589  1
  V  V53  1  0.37425273  0.74928645  0.12249499  1
  V  V54  1  0.87570582  0.12532238  0.75104783  1
  V  V55  1  0.25059273  0.37520223  0.12501874  1
  V  V56  1  -0.00208614  0.74870841  0.25051469  1
  V  V57  1  -0.00420801  0.61967675  0.61791238  1
  V  V58  1  0.12453600  0.74760527  0.37387345  1
  V  V59  1  0.12558788  0.87446926  0.24892602  1
  V  V60  1  0.87602918  -0.00003203  0.87573737  1
  V  V61  1  0.74941616  0.50145075  0.75194796  1
  V  V62  1  0.49941054  0.75181175  0.25001693  1
  V  V63  1  0.49422855  0.62962522  0.62550100  1
  V  V64  1  0.00099362  -0.00156220  0.49997565  1
  V  V65  1  0.62046401  0.87588332  0.75473930  1
  V  V66  1  0.00077151  0.38029147  0.37856800  1
  V  V67  1  0.63028325  0.50154857  0.12850066  1
  V  V68  1  0.00077565  0.62028381  0.12123598  1
  V  V69  1  0.62312388  0.62515922  0.50050206  1
  V  V70  1  0.74865682  0.75040038  0.50024149  1
  V  V71  1  0.75094545  0.25032587  0.50063827  1
  V  V72  1  0.25035766  0.12416652  0.87503803  1
  V  V73  1  0.87662107  0.50170561  0.87896183  1
  V  V74  1  0.50113264  0.12402817  0.62508970  1
  V  V75  1  0.74788842  0.75244742  0.00031609  1
  V  V76  1  0.50057330  0.12579422  0.12492747  1
  V  V77  1  0.37414240  0.62533383  0.24830181  1
  V  V78  1  0.12131546  0.49527762  0.61860408  1
  V  V79  1  0.62480600  0.87498728  0.25030972  1
  V  V80  1  0.12436363  0.86700946  0.75260216  1
  V  V81  1  0.12519514  0.12158669  0.00112762  1
  V  V82  1  0.12504757  0.37308762  0.25057071  1
  V  V83  1  0.87524337  -0.00089396  0.37566206  1
  V  V84  1  0.24925791  -0.00242559  0.74913381  1
  V  V85  1  0.37479764  0.12478237  0.75026120  1
  V  V86  1  0.37513415  0.49893732  0.37434925  1
  V  V87  1  0.87871691  0.37976549  0.00165179  1
  V  V88  1  0.24922866  0.62413612  0.37403128  1
  V  V89  1  0.50058898  -0.00339356  -0.00382420  1
  V  V90  1  0.87543958  0.25038839  0.62568404  1
  V  V91  1  0.50107972  0.37566926  0.37580211  1
  V  V92  1  0.25536708  0.87006817  0.62473178  1
  Zn  Zn93  1  0.12677765  0.37328083  0.75109408  1
  Zn  Zn94  1  0.87468821  0.87446722  0.49864099  1
  Zn  Zn95  1  0.24836713  0.50050429  0.74913052  1
  Zn  Zn96  1  0.62506886  0.00100170  0.12537056  1
  Zn  Zn97  1  0.23050419  0.62880598  0.87184806  1
  Zn  Zn98  1  0.24902948  0.87365619  0.12234143  1
  Zn  Zn99  1  0.12287200  -0.00027099  0.12582865  1
  Zn  Zn100  1  0.12607381  -0.00142472  0.62394338  1
  Zn  Zn101  1  0.50182457  0.24944613  0.25015690  1
  Zn  Zn102  1  0.00162642  0.24775990  0.25223071  1
  Zn  Zn103  1  -0.00194284  0.87412926  0.37626729  1
  Zn  Zn104  1  0.00461910  0.74367279  0.75394459  1
  Zn  Zn105  1  0.49839900  0.87612918  0.37883587  1
  Zn  Zn106  1  0.06696575  0.57063362  -0.04397567  1
  Zn  Zn107  1  0.50034342  0.49975119  -0.00061383  1
  Zn  Zn108  1  0.00162725  -0.00110520  0.00170320  1
  Zn  Zn109  1  0.12578993  0.25058384  0.87413470  1
  Zn  Zn110  1  0.49935190  0.25205096  0.75309791  1
  Zn  Zn111  1  0.37873763  0.87404334  0.50057534  1
  Zn  Zn112  1  0.87409202  0.62450477  0.75014130  1
  Zn  Zn113  1  0.49996561  -0.00459424  0.49875581  1
  Zn  Zn114  1  0.62481423  -0.00110179  0.62454057  1
  Zn  Zn115  1  0.12703389  0.12289697  0.50107333  1
  Zn  Zn116  1  0.49951209  0.37586395  0.87542869  1
  Zn  Zn117  1  0.87604124  0.49957021  0.37642186  1
  Zn  Zn118  1  0.37899471  -0.00326969  0.37851722  1
  Zn  Zn119  1  0.87351612  0.74859362  0.12567377  1
  Zn  Zn120  1  0.49802968  0.50150033  0.50159713  1
  Zn  Zn121  1  0.00187744  0.12205043  0.12612262  1
  Zn  Zn122  1  0.18936645  0.18686824  0.18736518  1
  Zn  Zn123  1  0.18580097  0.18645608  0.68755667  1
  Zn  Zn124  1  0.18733596  0.68732372  0.18200222  1
  Zn  Zn125  1  0.18519333  0.68599915  0.68410427  1
  Zn  Zn126  1  0.68814436  0.18902783  0.18842485  1
  Zn  Zn127  1  0.68718224  0.18940245  0.68881526  1
  Zn  Zn128  1  0.68788519  0.68943282  0.18800025  1
  Zn  Zn129  1  0.68481863  0.68845360  0.68827701  1
  Zn  Zn130  1  0.31372549  0.31108560  0.31149011  1
  Zn  Zn131  1  0.31202848  0.31335286  0.81195356  1
  Zn  Zn132  1  0.31353694  0.81264375  0.31531177  1
  Zn  Zn133  1  0.31042366  0.81177196  0.81552539  1
  Zn  Zn134  1  0.81342166  0.31328387  0.31389059  1
  Zn  Zn135  1  0.81403317  0.31469121  0.81369275  1
  Zn  Zn136  1  0.81207108  0.81069654  0.31358295  1
  Zn  Zn137  1  0.81218340  0.81279840  0.81204694  1
  Zn  Zn138  1  0.18907526  0.43554662  0.43756861  1
  Zn  Zn139  1  0.19273830  0.43561665  0.93487837  1
  Zn  Zn140  1  0.18768224  0.93555914  0.43591360  1
  Zn  Zn141  1  0.18960426  0.93413749  0.93643249  1
  Zn  Zn142  1  0.68698105  0.43844981  0.44163028  1
  Zn  Zn143  1  0.68937160  0.43841859  0.94053101  1
  Zn  Zn144  1  0.68489550  0.93793808  0.43879278  1
  Zn  Zn145  1  0.68729287  0.93875490  0.93630431  1
  Zn  Zn146  1  0.31259507  0.06072843  0.06475317  1
  Zn  Zn147  1  0.31454262  0.05827946  0.56236585  1
  Zn  Zn148  1  0.30882348  0.56417597  0.06000380  1
  Zn  Zn149  1  0.31032134  0.56151396  0.56220417  1
  Zn  Zn150  1  0.81300000  0.06201440  0.06341818  1
  Zn  Zn151  1  0.81373995  0.06120507  0.56323698  1
  Zn  Zn152  1  0.81305179  0.56390595  0.06208828  1
  Zn  Zn153  1  0.80816697  0.56304788  0.56087879  1
  Zn  Zn154  1  0.44197640  0.43745563  0.18773204  1
  Zn  Zn155  1  0.43767694  0.43991726  0.68998709  1
  Zn  Zn156  1  0.43749372  0.93666677  0.18423966  1
  Zn  Zn157  1  0.43640904  0.93787880  0.68586621  1
  Zn  Zn158  1  0.94079338  0.43571495  0.19030776  1
  Zn  Zn159  1  0.93742227  0.43817103  0.69080434  1
  Zn  Zn160  1  0.93795265  0.93897819  0.18534028  1
  Zn  Zn161  1  0.93800614  0.93631799  0.68816254  1
  Zn  Zn162  1  0.06285383  0.06341315  0.31383057  1
  Zn  Zn163  1  0.06385327  0.05780523  0.81390326  1
  Zn  Zn164  1  0.06167766  0.55996594  0.30783762  1
  Zn  Zn165  1  0.05971932  0.55856757  0.79434122  1
  Zn  Zn166  1  0.56240720  0.06085983  0.31385550  1
  Zn  Zn167  1  0.56268905  0.06461613  0.81320165  1
  Zn  Zn168  1  0.56087633  0.56268195  0.31168410  1
  Zn  Zn169  1  0.55910195  0.56334686  0.81325436  1
  Zn  Zn170  1  0.43859651  0.18689107  0.43725015  1
  Zn  Zn171  1  0.43875231  0.18726355  0.93728751  1
  Zn  Zn172  1  0.43761864  0.68802040  0.43550081  1
  Zn  Zn173  1  0.43565419  0.68602657  0.93513738  1
  Zn  Zn174  1  0.93933608  0.18891473  0.43825430  1
  Zn  Zn175  1  0.94043343  0.18993315  0.93867110  1
  Zn  Zn176  1  0.93393729  0.68775118  0.43663440  1
  Zn  Zn177  1  0.93118463  0.69219514  0.93772082  1
  Zn  Zn178  1  0.06475167  0.31093578  0.06049098  1
  Zn  Zn179  1  0.06180628  0.30880837  0.56027148  1
  Zn  Zn180  1  0.05763619  0.81258211  0.06472309  1
  Zn  Zn181  1  0.06551544  0.81219680  0.56422136  1
  Zn  Zn182  1  0.56164483  0.31393834  0.06202659  1
  Zn  Zn183  1  0.56133853  0.31188766  0.56364570  1
  Zn  Zn184  1  0.56220520  0.81396994  0.06481805  1
  Zn  Zn185  1  0.56221011  0.81153746  0.56621489  1
  O  O186  1  0.12552140  0.12502392  0.11395169  1
  O  O187  1  0.11637522  0.12034101  0.62258121  1
  O  O188  1  0.11348752  0.61337065  0.13261873  1
  O  O189  1  0.11606958  0.61722990  0.61540890  1
  O  O190  1  0.62046455  0.12521909  0.11799000  1
  O  O191  1  0.61697950  0.12671694  0.62135522  1
  O  O192  1  0.62176154  0.61868340  0.12196085  1
  O  O193  1  0.61637352  0.62090867  0.62090197  1
  O  O194  1  0.38038264  0.37946086  0.37907135  1
  O  O195  1  0.37386124  0.38521047  0.88043416  1
  O  O196  1  0.37884834  0.87614863  0.37938112  1
  O  O197  1  0.37142441  0.88171961  0.88726708  1
  O  O198  1  0.88209670  0.37576617  0.38270948  1
  O  O199  1  0.88240247  0.38150849  0.88116546  1
  O  O200  1  0.87699542  0.88222894  0.37743922  1
  O  O201  1  0.88003993  0.88108734  0.87918668  1
  O  O202  1  0.25024494  0.00496610  0.36341277  1
  O  O203  1  0.25774939  0.00409957  0.86884955  1
  O  O204  1  0.25482597  0.50425596  0.36810490  1
  O  O205  1  0.26029603  0.50463408  0.87191729  1
  O  O206  1  0.75525901  0.00618506  0.37066116  1
  O  O207  1  0.75553823  0.00712587  0.86910863  1
  O  O208  1  0.74940186  0.51474986  0.37983898  1
  O  O209  1  0.75502389  0.50614672  0.87102365  1
  O  O210  1  0.24223219  0.49557789  0.13000652  1
  O  O211  1  0.23921737  0.49333320  0.62315695  1
  O  O212  1  0.24697412  0.99723993  0.13861337  1
  O  O213  1  0.24817428  0.98970445  0.63194554  1
  O  O214  1  0.73775512  0.49527972  0.12106562  1
  O  O215  1  0.74362730  0.49556655  0.63117812  1
  O  O216  1  0.74912848  0.99389933  0.13244419  1
  O  O217  1  0.74981183  0.99375032  0.63307200  1
  O  O218  1  0.00661006  0.36985324  0.26005652  1
  O  O219  1  -0.00037407  0.36951689  0.76129207  1
  O  O220  1  0.00676351  0.86412416  0.25041000  1
  O  O221  1  0.00775291  0.87352981  0.75660550  1
  O  O222  1  0.51248363  0.37329588  0.25652838  1
  O  O223  1  0.50905927  0.37344458  0.75240632  1
  O  O224  1  0.50741040  0.86759785  0.24716711  1
  O  O225  1  0.50821402  0.86491423  0.74164423  1
  O  O226  1  0.49529808  0.12592473  0.24232805  1
  O  O227  1  0.49412254  0.12697618  0.74196720  1
  O  O228  1  0.49353199  0.63111937  0.24385913  1
  O  O229  1  0.49189475  0.63233405  0.74362009  1
  O  O230  1  0.99177116  0.12859692  0.24823594  1
  O  O231  1  0.99415683  0.12905612  0.74678471  1
  O  O232  1  0.99230690  0.63110123  0.24407197  1
  O  O233  1  0.99353025  0.62790214  0.73161691  1
  O  O234  1  0.37022986  0.25511036  0.00558283  1
  O  O235  1  0.37018721  0.25565237  0.50626128  1
  O  O236  1  0.37423313  0.75794609  0.00338820  1
  O  O237  1  0.35786627  0.74681129  0.49533251  1
  O  O238  1  0.87068893  0.25650153  0.00904654  1
  O  O239  1  0.86950642  0.25839689  0.50629648  1
  O  O240  1  0.86464617  0.75912339  0.00320171  1
  O  O241  1  0.86821457  0.75099587  0.50964871  1
  O  O242  1  0.13357389  0.24747362  0.49309714  1
  O  O243  1  0.13365639  0.24003607  0.99824259  1
  O  O244  1  0.13072778  0.73890289  0.49358286  1
  O  O245  1  0.13736798  0.75504706  1.00566114  1
  O  O246  1  0.63241259  0.24638888  0.49522037  1
  O  O247  1  0.63250010  0.24606209  0.99628758  1
  O  O248  1  0.62978969  0.74308965  0.49516375  1
  O  O249  1  0.62819114  0.74631879  0.99485434  1
  O  O250  1  0.49397819  0.24360814  0.12547181  1
  O  O251  1  0.49393540  0.24057569  0.62787322  1
  O  O252  1  0.49477309  0.74350056  0.13032912  1
  O  O253  1  0.50534032  0.73695197  0.63820548  1
  O  O254  1  0.98723613  0.25025429  0.12611711  1
  O  O255  1  0.99395993  0.24431090  0.63083868  1
  O  O256  1  0.99924796  0.73980202  0.13678359  1
  O  O257  1  0.99096422  0.74020964  0.62255154  1
  O  O258  1  0.00750567  0.25965681  0.37486260  1
  O  O259  1  0.00031872  0.26050771  0.86865551  1
  O  O260  1  0.00516771  0.74767256  0.36442362  1
  O  O261  1  -0.01021999  0.76450656  0.87069065  1
  O  O262  1  0.50852734  0.25758009  0.37437060  1
  O  O263  1  0.50944533  0.25241794  0.87399574  1
  O  O264  1  0.50732252  0.74833344  0.36644417  1
  O  O265  1  0.50730100  0.74328388  0.86197205  1
  O  O266  1  0.25086279  0.13053862  0.49363666  1
  O  O267  1  0.24565357  0.12833294  0.99525253  1
  O  O268  1  0.24007573  0.63066271  0.49524942  1
  O  O269  1  0.25083049  0.64036355  0.99771264  1
  O  O270  1  0.74621547  0.13116607  0.49602508  1
  O  O271  1  0.74573765  0.13085839  0.99480495  1
  O  O272  1  0.74290947  0.63092301  0.49210880  1
  O  O273  1  0.74361980  0.63245158  0.99522514  1
  O  O274  1  0.25674589  0.36825516  0.00630614  1
  O  O275  1  0.25695252  0.36797657  0.50484084  1
  O  O276  1  0.25896030  0.86447424  0.00163582  1
  O  O277  1  0.24570794  0.86496868  0.50829767  1
  O  O278  1  0.75764304  0.36941700  0.00810614  1
  O  O279  1  0.75730113  0.36932090  0.50604279  1
  O  O280  1  0.75316672  0.87159788  0.00473083  1
  O  O281  1  0.74882471  0.86788045  0.50817882  1
  O  O282  1  0.13134635  0.49253837  0.24131779  1
  O  O283  1  0.12815287  0.49382484  0.72987360  1
  O  O284  1  0.13263737  0.99037177  0.25206724  1
  O  O285  1  0.13248933  0.98842214  0.74897031  1
  O  O286  1  0.62096985  0.49164392  0.24035294  1
  O  O287  1  0.63009895  0.49568540  0.74624595  1
  O  O288  1  0.63351367  0.99375326  0.24864886  1
  O  O289  1  0.62989386  0.99189859  0.75090727  1
  O  O290  1  0.36561061  0.00481712  0.24864866  1
  O  O291  1  0.37004047  0.00424027  0.75600298  1
  O  O292  1  0.36963910  0.50505818  0.25380693  1
  O  O293  1  0.37280550  0.51025725  0.75769484  1
  O  O294  1  0.86947158  0.00570246  0.25596577  1
  O  O295  1  0.86938390  0.00583665  0.75566403  1
  O  O296  1  0.87955398  0.51286879  0.25337728  1
  O  O297  1  0.86694674  0.50147599  0.75911549  1
  O  O298  1  0.11965295  0.36997010  0.37150282  1
  O  O299  1  0.11531154  0.37497926  0.87403580  1
  O  O300  1  0.12294182  0.86658567  0.36333644  1
  O  O301  1  0.11404283  0.88023794  0.86603373  1
  O  O302  1  0.62281835  0.37291441  0.36938467  1
  O  O303  1  0.62635441  0.37060852  0.87056873  1
  O  O304  1  0.62615779  0.86635835  0.36749455  1
  O  O305  1  0.62999236  0.86904800  0.86183268  1
  O  O306  1  0.38035370  0.13068538  0.12971414  1
  O  O307  1  0.38213616  0.13040289  0.63069251  1
  O  O308  1  0.38008751  0.62842172  0.12977058  1
  O  O309  1  0.38325683  0.61794641  0.63533027  1
  O  O310  1  0.87370660  0.13577629  0.13043524  1
  O  O311  1  0.87990402  0.13115957  0.63167522  1
  O  O312  1  0.88164225  0.62526644  0.13412410  1
  O  O313  1  0.88097919  0.63114834  0.62037421  1
  O  O314  1  0.25698821  0.25610005  0.11972259  1
  O  O315  1  0.25563350  0.25442183  0.61960395  1
  O  O316  1  0.25693807  0.74972039  0.11332172  1
  O  O317  1  0.24134590  0.75710571  0.61340756  1
  O  O318  1  0.75958436  0.25675355  0.12074572  1
  O  O319  1  0.75616780  0.25628499  0.62082565  1
  O  O320  1  0.75018283  0.75718997  0.11801398  1
  O  O321  1  0.75672783  0.75272285  0.62043721  1
  O  O322  1  0.24628464  0.24523456  0.38029945  1
  O  O323  1  0.25011772  0.24250691  0.88182953  1
  O  O324  1  0.24260471  0.74218314  0.38119079  1
  O  O325  1  0.25031522  0.74888535  0.89002844  1
  O  O326  1  0.74578999  0.24512030  0.38131626  1
  O  O327  1  0.74704801  0.24579757  0.88176797  1
  O  O328  1  0.74417498  0.74035446  0.38085677  1
  O  O329  1  0.74317470  0.74514017  0.88019496  1
  O  O330  1  0.01282165  0.12394351  -0.00033868  1
  O  O331  1  -0.00029366  0.11543625  0.50627744  1
  O  O332  1  -0.00762704  0.63146786  0.01600997  1
  O  O333  1  0.00986671  0.62927551  0.50501172  1
  O  O334  1  0.50502699  0.11745989  0.00572221  1
  O  O335  1  0.50696293  0.12800478  0.51119800  1
  O  O336  1  0.50700522  0.62528216  0.00705784  1
  O  O337  1  0.50342046  0.62657879  0.50970983  1
  O  O338  1  0.49365880  0.37735164  0.49449446  1
  O  O339  1  0.49121025  0.37874589  0.99816483  1
  O  O340  1  0.49764466  0.87439874  0.50117006  1
  O  O341  1  0.49134107  0.88576862  1.00559326  1
  O  O342  1  0.98918801  0.36825203  0.49192737  1
  O  O343  1  0.99408265  0.36891619  0.98789572  1
  O  O344  1  0.99925379  0.88466712  0.49863013  1
  O  O345  1  0.99330552  0.87491142  0.99174948  1
  O  O346  1  0.49278359  0.49459033  0.37678793  1
  O  O347  1  0.48662006  0.49972464  0.87772098  1
  O  O348  1  0.49862872  0.99596858  0.37878390  1
  O  O349  1  0.49340079  1.00794898  0.88857338  1
  O  O350  1  1.00081755  0.48440282  0.37162663  1
  O  O351  1  0.99437913  0.49253917  0.87344548  1
  O  O352  1  0.99379459  0.99977436  0.38398205  1
  O  O353  1  0.99240081  0.98900892  0.87694480  1
  O  O354  1  0.00462414  0.00369795  0.11997670  1
  O  O355  1  -0.00156216  0.00480675  0.61571997  1
  O  O356  1  0.00929222  0.50767171  0.13050303  1
  O  O357  1  0.00669499  0.50866603  0.62565242  1
  O  O358  1  0.50117389  0.00733033  0.11320543  1
  O  O359  1  0.50163111  0.01431199  0.62597666  1
  O  O360  1  0.51144945  0.50676647  0.12365374  1
  O  O361  1  0.50565759  0.51232534  0.62565962  1
  O  O362  1  0.24566064  0.38041835  0.24426319  1
  O  O363  1  0.24715882  0.37713235  0.74006523  1
  O  O364  1  0.24169946  0.88048319  0.24931424  1
  O  O365  1  0.24342749  0.87621088  0.74498833  1
  O  O366  1  0.73842998  0.37207062  0.24569691  1
  O  O367  1  0.74538736  0.38130741  0.74455711  1
  O  O368  1  0.74541777  0.87893455  0.24528706  1
  O  O369  1  0.74177272  0.87992130  0.74570931  1
  O  O370  1  0.25557441  0.11664907  0.25446758  1
  O  O371  1  0.25538174  0.11830297  0.75448393  1
  O  O372  1  0.25423619  0.61995078  0.25413199  1
  O  O373  1  0.25892423  0.62606238  0.74940571  1
  O  O374  1  0.75528199  0.11995686  0.25634291  1
  O  O375  1  0.75596100  0.12092886  0.75576633  1
  O  O376  1  0.75978475  0.63304138  0.25943498  1
  O  O377  1  0.74925405  0.61932152  0.75683787  1
  O  O378  1  0.36876578  0.12552312  0.36676681  1
  O  O379  1  0.36956685  0.11868423  0.87013331  1
  O  O380  1  0.36859760  0.61913070  0.36808612  1
  O  O381  1  0.37285009  0.61729204  0.86490385  1
  O  O382  1  0.86902966  0.12103512  0.37045449  1
  O  O383  1  0.87059692  0.12144450  0.87072398  1
  O  O384  1  0.86684225  0.62235171  0.36919841  1
  O  O385  1  0.86802324  0.61959198  0.87395737  1
  O  O386  1  0.12980980  0.38066185  0.12990737  1
  O  O387  1  0.12907803  0.38256353  0.61899218  1
  O  O388  1  0.12595814  0.87398191  0.13921456  1
  O  O389  1  0.13332385  0.87734234  0.63447239  1
  O  O390  1  0.63017421  0.38199869  0.13226526  1
  O  O391  1  0.63085880  0.38033893  0.63025700  1
  O  O392  1  0.63263845  0.87738800  0.13196020  1
  O  O393  1  0.63187247  0.87485463  0.63862839  1
  O  O394  1  0.12690704  0.25656092  0.25672501  1
  O  O395  1  0.11644005  0.25247692  0.75258952  1
  O  O396  1  0.11815905  0.75397078  0.25358600  1
  O  O397  1  0.12286173  0.76242048  0.74497970  1
  O  O398  1  0.62494432  0.26076072  0.25657568  1
  O  O399  1  0.62642761  0.25788326  0.75826127  1
  O  O400  1  0.61933037  0.75482974  0.25484230  1
  O  O401  1  0.61733182  0.75707898  0.75563603  1
  O  O402  1  0.37713122  0.24331239  0.24224990  1
  O  O403  1  0.37550720  0.24260983  0.74398017  1
  O  O404  1  0.37809044  0.74375883  0.24290375  1
  O  O405  1  0.38341461  0.74055186  0.75831892  1
  O  O406  1  0.87331142  0.24516388  0.24093372  1
  O  O407  1  0.87981564  0.24518965  0.74489482  1
  O  O408  1  0.88455801  0.74043987  0.25025054  1
  O  O409  1  0.87457926  0.74703224  0.73591840  1
  O  O410  1  0.37438900  0.49378124  0.49197647  1
  O  O411  1  0.37367940  0.49582266  0.99199041  1
  O  O412  1  0.37949730  0.99455053  0.49753096  1
  O  O413  1  0.38082362  0.99234957  0.99645002  1
  O  O414  1  0.86889145  0.48532115  0.49945023  1
  O  O415  1  0.86916231  0.49243713  0.99171266  1
  O  O416  1  0.88370075  0.99856911  0.49438545  1
  O  O417  1  0.87431736  0.99403916  0.99246241  1
  O  O418  1  0.12878213  0.01001161  0.00171648  1
  O  O419  1  0.11342209  0.00109960  0.49914426  1
  O  O420  1  0.13001131  0.49507846  0.01465828  1
  O  O421  1  0.13044047  0.51069873  0.50608946  1
  O  O422  1  0.61655065  0.00607094  -0.00059061  1
  O  O423  1  0.62414159  0.01031808  0.50517914  1
  O  O424  1  0.62391614  0.50669296  0.01034889  1
  O  O425  1  0.62188032  0.50754696  0.50841668  1
  O  O426  1  0.36996709  0.37164106  0.12093730  1
  O  O427  1  0.37051221  0.37103950  0.62009760  1
  O  O428  1  0.37266534  0.86806352  0.11357594  1
  O  O429  1  0.35852698  0.87465433  0.62710020  1
  O  O430  1  0.87173955  0.36953150  0.12312318  1
  O  O431  1  0.87082667  0.37068296  0.61922842  1
  O  O432  1  0.86811478  0.87270151  0.11889238  1
  O  O433  1  0.86899557  0.86494892  0.62421400  1
  O  O434  1  0.13384513  0.13214820  0.37585501  1
  O  O435  1  0.13254644  0.12446377  0.88374181  1
  O  O436  1  0.12873250  0.62590130  0.38005304  1
  O  O437  1  0.11807965  0.61629468  0.86959714  1
  O  O438  1  0.63178035  0.13225961  0.38051064  1
  O  O439  1  0.63246134  0.13187388  0.88079030  1
  O  O440  1  0.63062500  0.62972695  0.37842848  1
  O  O441  1  0.62989592  0.63020329  0.88106193  1
