# generated using pymatgen
data_V93Zn93O256
_symmetry_space_group_name_H-M   'P 1'
_cell_length_a   17.05292032
_cell_length_b   17.05217670
_cell_length_c   17.05322214
_cell_angle_alpha   90.03111113
_cell_angle_beta   90.00713117
_cell_angle_gamma   90.00768047
_symmetry_Int_Tables_number   1
_chemical_formula_structural   V93Zn93O256
_chemical_formula_sum   'V93 Zn93 O256'
_cell_volume   4958.89560104
_cell_formula_units_Z   1
loop_
 _symmetry_equiv_pos_site_id
 _symmetry_equiv_pos_as_xyz
  1  'x, y, z'
loop_
 _atom_site_type_symbol
 _atom_site_label
 _atom_site_symmetry_multiplicity
 _atom_site_fract_x
 _atom_site_fract_y
 _atom_site_fract_z
 _atom_site_occupancy
  V  V0  1  0.49898705  0.37353801  0.87538500  1
  V  V1  1  0.12473575  0.00040878  0.12361135  1
  V  V2  1  0.50162253  0.12506722  0.62329778  1
  V  V3  1  0.62495802  0.24883615  0.87344507  1
  V  V4  1  0.49924145  0.50051818  0.00235507  1
  V  V5  1  0.25044004  0.12639149  0.37373382  1
  V  V6  1  0.12592049  0.62577912  -0.00001761  1
  V  V7  1  0.24974306  0.50083421  0.25199379  1
  V  V8  1  0.36770963  0.87133990  0.50190315  1
  V  V9  1  0.00011979  0.62550812  0.12644759  1
  V  V10  1  0.37531247  0.12482895  0.24874249  1
  V  V11  1  0.24956629  0.12367620  0.87283389  1
  V  V12  1  0.50131165  0.25099577  0.25041599  1
  V  V13  1  0.49953883  0.87969720  0.37634440  1
  V  V14  1  0.24357917  0.49639955  0.75328847  1
  V  V15  1  0.00368613  0.25568256  0.74850143  1
  V  V16  1  0.74944982  0.75163196  0.50044881  1
  V  V17  1  0.62440626  0.37509972  0.74839221  1
  V  V18  1  0.62081268  0.62702389  0.50894229  1
  V  V19  1  0.74966072  0.50066861  0.25060975  1
  V  V20  1  0.87322755  0.11957533  0.74740545  1
  V  V21  1  0.62880058  0.87920614  0.74922019  1
  V  V22  1  0.74997040  0.62592157  0.37653702  1
  V  V23  1  0.87417739  0.37523944  0.50026380  1
  V  V24  1  0.49961464  0.87355825  0.87199437  1
  V  V25  1  0.87513601  0.50065586  0.37626729  1
  V  V26  1  0.24408250  0.37366286  0.62857537  1
  V  V27  1  0.25046881  0.25010279  0.50001164  1
  V  V28  1  0.25114077  0.87392279  0.12463842  1
  V  V29  1  0.74982118  0.75060121  0.00037713  1
  V  V30  1  0.74730470  0.37595487  0.62578068  1
  V  V31  1  0.87641310  0.25345961  0.11794044  1
  V  V32  1  0.87727272  0.12710250  0.24803684  1
  V  V33  1  0.62587600  0.75130254  0.37557651  1
  V  V34  1  0.12474634  0.37541573  0.25183286  1
  V  V35  1  0.12291198  0.49775306  0.62973818  1
  V  V36  1  0.37405798  0.24987654  0.62424495  1
  V  V37  1  0.00633035  0.00036111  0.50317363  1
  V  V38  1  0.12558872  0.87503446  0.24994555  1
  V  V39  1  0.75024541  0.87888831  0.62665823  1
  V  V40  1  0.62651374  0.87694796  0.24881708  1
  V  V41  1  0.12402704  0.25533870  0.87085106  1
  V  V42  1  0.49920960  0.75015809  0.24715551  1
  V  V43  1  0.62672423  0.12553359  -0.00080095  1
  V  V44  1  0.49985247  0.50466758  0.50788016  1
  V  V45  1  0.37458922  0.12280416  0.74862578  1
  V  V46  1  0.37550050  0.62645651  0.25084973  1
  V  V47  1  0.12498511  0.87792675  0.74390978  1
  V  V48  1  0.62376062  0.50146763  0.12552719  1
  V  V49  1  -0.00699678  0.49204449  -0.00148178  1
  V  V50  1  -0.00023363  0.50016798  0.50256195  1
  V  V51  1  0.37486364  -0.00199379  0.87233248  1
  V  V52  1  0.24969015  0.63000253  0.38276335  1
  V  V53  1  0.24660706  -0.00316081  0.73774132  1
  V  V54  1  0.00024735  0.75091692  0.25153084  1
  V  V55  1  0.00090985  0.37506787  0.37578381  1
  V  V56  1  -0.00100764  0.62391693  0.62773516  1
  V  V57  1  0.62549437  0.37548640  0.25061199  1
  V  V58  1  0.87557373  0.87602253  0.50043907  1
  V  V59  1  0.75049788  0.00057530  0.24777827  1
  V  V60  1  0.38109625  0.62510152  0.74657394  1
  V  V61  1  0.62567389  0.25126236  0.37445846  1
  V  V62  1  0.12536716  0.25036778  0.37575410  1
  V  V63  1  0.87517884  0.62643968  0.25180439  1
  V  V64  1  0.12475836  0.12323837  -0.00071680  1
  V  V65  1  0.12708061  0.74963679  0.37957329  1
  V  V66  1  0.25083859  0.00081351  0.24992889  1
  V  V67  1  0.87467294  0.62229955  0.75402691  1
  V  V68  1  0.49841995  0.24985716  0.74892246  1
  V  V69  1  0.00021339  0.87592776  0.37638574  1
  V  V70  1  0.87595141  0.87604909  -0.00085630  1
  V  V71  1  0.50170885  0.12551005  0.12286311  1
  V  V72  1  0.00741128  0.12099430  0.62382947  1
  V  V73  1  0.12375285  0.75075659  0.87417930  1
  V  V74  1  0.37446387  0.87308456  -0.00110709  1
  V  V75  1  0.75045082  0.12733340  0.37405456  1
  V  V76  1  0.37488649  0.25019620  0.12414033  1
  V  V77  1  0.12488331  0.49981363  0.12608625  1
  V  V78  1  0.12679029  0.62836406  0.50367517  1
  V  V79  1  0.62986590  0.00179253  0.62592527  1
  V  V80  1  0.75020805  0.12245983  0.86958680  1
  V  V81  1  0.37633282  0.49883059  0.37759271  1
  V  V82  1  0.87424848  0.75167774  0.12540022  1
  V  V83  1  0.25043531  0.37458341  0.12561041  1
  V  V84  1  0.87410283  -0.00105988  0.87222895  1
  V  V85  1  0.74961991  0.62413810  0.87654950  1
  V  V86  1  0.37431345  0.37363140  0.00117394  1
  V  V87  1  0.87437065  0.74932509  0.62646764  1
  V  V88  1  0.87521417  0.24917019  0.62393721  1
  V  V89  1  0.75464797  0.37553675  0.11727064  1
  V  V90  1  0.62422424  0.75154910  0.87419779  1
  V  V91  1  0.37241736  0.49790916  0.87668477  1
  V  V92  1  0.74938213  0.25027355  0.49849065  1
  Zn  Zn93  1  0.00079009  0.25049813  0.24921578  1
  Zn  Zn94  1  0.62121099  0.62773147  0.00165856  1
  Zn  Zn95  1  0.00085438  0.75160604  0.75037931  1
  Zn  Zn96  1  0.49903171  0.62543648  0.12295637  1
  Zn  Zn97  1  0.74902428  0.87625079  0.12443373  1
  Zn  Zn98  1  -0.00011237  -0.00045385  0.00055414  1
  Zn  Zn99  1  0.24948103  0.74875680  0.00187978  1
  Zn  Zn100  1  0.50098439  0.37551762  0.37680401  1
  Zn  Zn101  1  0.37504940  0.73886491  0.61385557  1
  Zn  Zn102  1  0.12930220  0.12090677  0.50169284  1
  Zn  Zn103  1  0.24248520  0.86060836  0.61642393  1
  Zn  Zn104  1  0.87617939  0.00165378  0.37505639  1
  Zn  Zn105  1  0.00061948  0.87608587  0.87263379  1
  Zn  Zn106  1  0.62153557  0.50446083  0.63006787  1
  Zn  Zn107  1  0.24924722  0.62435853  0.87522727  1
  Zn  Zn108  1  0.74750500  0.49811286  0.75099596  1
  Zn  Zn109  1  0.50038221  0.00186377  0.50002991  1
  Zn  Zn110  1  0.24918841  0.25005877  -0.00162646  1
  Zn  Zn111  1  0.37741925  0.37558930  0.50197646  1
  Zn  Zn112  1  0.62505971  -0.00038553  0.12213274  1
  Zn  Zn113  1  0.75836726  0.25605851  -0.00730614  1
  Zn  Zn114  1  0.86544516  0.48436077  0.88219370  1
  Zn  Zn115  1  0.00071958  0.12580501  0.12436061  1
  Zn  Zn116  1  0.37553046  0.00203914  0.37506842  1
  Zn  Zn117  1  0.50093684  -0.00034167  -0.00071107  1
  Zn  Zn118  1  -0.00816802  0.36917761  0.87846067  1
  Zn  Zn119  1  0.50325867  0.74441870  0.74022736  1
  Zn  Zn120  1  0.37367322  0.74820838  0.12315410  1
  Zn  Zn121  1  0.62467095  0.12452846  0.49865447  1
  Zn  Zn122  1  0.18802758  0.18883386  0.18755957  1
  Zn  Zn123  1  0.18783923  0.18634811  0.68835973  1
  Zn  Zn124  1  0.18915733  0.68844286  0.19002307  1
  Zn  Zn125  1  0.19357606  0.68797262  0.68781479  1
  Zn  Zn126  1  0.69008245  0.19042677  0.18522433  1
  Zn  Zn127  1  0.68788315  0.18879201  0.68680314  1
  Zn  Zn128  1  0.68653088  0.68770739  0.18671841  1
  Zn  Zn129  1  0.68988610  0.69200061  0.69023782  1
  Zn  Zn130  1  0.31264489  0.31237753  0.31170885  1
  Zn  Zn131  1  0.31103952  0.31164118  0.81198673  1
  Zn  Zn132  1  0.31371066  0.81338467  0.31433236  1
  Zn  Zn133  1  0.30701293  0.81017464  0.81214387  1
  Zn  Zn134  1  0.81286054  0.31353940  0.30922452  1
  Zn  Zn135  1  0.81455111  0.31026992  0.81043647  1
  Zn  Zn136  1  0.81333324  0.81461800  0.31400360  1
  Zn  Zn137  1  0.81055864  0.81089658  0.81183776  1
  Zn  Zn138  1  0.18792354  0.43829079  0.44223910  1
  Zn  Zn139  1  0.18415220  0.43586780  0.93994580  1
  Zn  Zn140  1  0.18731915  0.93969392  0.43456673  1
  Zn  Zn141  1  0.18994962  0.93717499  0.93335331  1
  Zn  Zn142  1  0.68574523  0.43909829  0.43924043  1
  Zn  Zn143  1  0.68272879  0.43912658  0.93767872  1
  Zn  Zn144  1  0.68737813  0.94041608  0.43770861  1
  Zn  Zn145  1  0.68968614  0.93894665  0.93516677  1
  Zn  Zn146  1  0.31199708  0.06096826  0.06101512  1
  Zn  Zn147  1  0.31676337  0.05937407  0.55766635  1
  Zn  Zn148  1  0.31366489  0.56218588  0.06487414  1
  Zn  Zn149  1  0.31064859  0.55995754  0.56551488  1
  Zn  Zn150  1  0.81178189  0.06522438  0.06059170  1
  Zn  Zn151  1  0.81436970  0.06205489  0.56033853  1
  Zn  Zn152  1  0.81106432  0.56497004  0.06444986  1
  Zn  Zn153  1  0.80904463  0.56204679  0.56489562  1
  Zn  Zn154  1  0.43783094  0.43765395  0.18906415  1
  Zn  Zn155  1  0.43335701  0.43752509  0.68842912  1
  Zn  Zn156  1  0.43857281  0.93998907  0.18480332  1
  Zn  Zn157  1  0.44123315  0.93652481  0.68519187  1
  Zn  Zn158  1  0.93762400  0.43763306  0.18771446  1
  Zn  Zn159  1  0.93312458  0.43775192  0.68983323  1
  Zn  Zn160  1  0.93890267  0.93955188  0.18573202  1
  Zn  Zn161  1  0.94070341  0.93674563  0.68674686  1
  Zn  Zn162  1  0.06308235  0.06224393  0.31408206  1
  Zn  Zn163  1  0.06179099  0.06241836  0.81183003  1
  Zn  Zn164  1  0.06316134  0.56293591  0.31500533  1
  Zn  Zn165  1  0.06069733  0.56142013  0.81548127  1
  Zn  Zn166  1  0.56491191  0.06488948  0.30995599  1
  Zn  Zn167  1  0.56120087  0.06005816  0.81036182  1
  Zn  Zn168  1  0.56288424  0.56375308  0.31592965  1
  Zn  Zn169  1  0.56276551  0.55974425  0.81655225  1
  Zn  Zn170  1  0.43790775  0.18749503  0.43754164  1
  Zn  Zn171  1  0.43731471  0.18653328  0.93707239  1
  Zn  Zn172  1  0.43972594  0.68918089  0.43593960  1
  Zn  Zn173  1  0.43766647  0.68657356  0.93215463  1
  Zn  Zn174  1  0.93825108  0.18733342  0.43665133  1
  Zn  Zn175  1  0.94034474  0.18535386  0.93568823  1
  Zn  Zn176  1  0.93942773  0.68836344  0.43998309  1
  Zn  Zn177  1  0.93902848  0.68643313  0.93827944  1
  Zn  Zn178  1  0.06391953  0.30866182  0.06394313  1
  Zn  Zn179  1  0.06322754  0.31022860  0.56182458  1
  Zn  Zn180  1  0.06134002  0.81321381  0.06251777  1
  Zn  Zn181  1  0.06026763  0.80978418  0.56331521  1
  Zn  Zn182  1  0.56523734  0.31254148  0.06253997  1
  Zn  Zn183  1  0.56142002  0.31530955  0.55987524  1
  Zn  Zn184  1  0.56331748  0.81509736  0.06173208  1
  Zn  Zn185  1  0.55566736  0.81071152  0.56570343  1
  O  O186  1  0.12736229  0.12017812  0.11525606  1
  O  O187  1  0.11090783  0.12962763  0.62257524  1
  O  O188  1  0.12004610  0.62065490  0.11980699  1
  O  O189  1  0.11861770  0.61862793  0.62290746  1
  O  O190  1  0.62187906  0.12792876  0.11379110  1
  O  O191  1  0.62136484  0.11719972  0.62626290  1
  O  O192  1  0.62191031  0.61733964  0.12321644  1
  O  O193  1  0.63286461  0.62608788  0.61228339  1
  O  O194  1  0.37325209  0.38942175  0.37617417  1
  O  O195  1  0.37973429  0.37752503  0.88073063  1
  O  O196  1  0.38342053  0.87824697  0.38112129  1
  O  O197  1  0.37831839  0.87773383  0.88013266  1
  O  O198  1  0.87961460  0.38133119  0.38007278  1
  O  O199  1  0.87827011  0.37287269  0.87564968  1
  O  O200  1  0.88298820  0.87575316  0.38253554  1
  O  O201  1  0.87276754  0.88266434  0.88047875  1
  O  O202  1  0.25006206  0.00857160  0.36602676  1
  O  O203  1  0.25691183  0.00516969  0.86439253  1
  O  O204  1  0.25693636  0.50830070  0.37199060  1
  O  O205  1  0.25251915  0.49513599  0.86767347  1
  O  O206  1  0.75223874  0.00698971  0.36411805  1
  O  O207  1  0.76187420  0.01147114  0.87650747  1
  O  O208  1  0.75591028  0.50590632  0.37084552  1
  O  O209  1  0.74924768  0.51172730  0.87575875  1
  O  O210  1  0.24458485  0.49478168  0.13245443  1
  O  O211  1  0.24334290  0.49156167  0.63311445  1
  O  O212  1  0.24447744  0.99387517  0.13087702  1
  O  O213  1  0.25375339  0.99812481  0.63623948  1
  O  O214  1  0.74626102  0.49451451  0.13085368  1
  O  O215  1  0.74567888  0.49070476  0.62802317  1
  O  O216  1  0.74935670  1.00076845  0.13682165  1
  O  O217  1  0.73983198  0.99453861  0.61903572  1
  O  O218  1  0.00701373  0.37674883  0.25834523  1
  O  O219  1  -0.00496050  0.35786144  0.74709951  1
  O  O220  1  0.00534869  0.87045276  0.25546374  1
  O  O221  1  0.00946667  0.87300126  0.75284280  1
  O  O222  1  0.50720140  0.36873661  0.25193807  1
  O  O223  1  0.50274356  0.36906232  0.75559903  1
  O  O224  1  0.50426859  0.86893813  0.25659137  1
  O  O225  1  0.51123470  0.87380498  0.75552826  1
  O  O226  1  0.49559259  0.13164720  0.24314091  1
  O  O227  1  0.49414818  0.13064316  0.74420859  1
  O  O228  1  0.49530773  0.63643125  0.25370184  1
  O  O229  1  0.48418837  0.62070676  0.75842864  1
  O  O230  1  0.98830652  0.12559007  0.24926022  1
  O  O231  1  0.99258270  0.13001719  0.74140919  1
  O  O232  1  0.99510305  0.63037380  0.24683547  1
  O  O233  1  0.98983799  0.62434573  0.74648433  1
  O  O234  1  0.37357011  0.25578524  0.00589464  1
  O  O235  1  0.36822651  0.25181310  0.50666600  1
  O  O236  1  0.37334800  0.76140969  -0.00097382  1
  O  O237  1  0.37884447  0.76738962  0.49290008  1
  O  O238  1  0.87582115  0.24163946  0.01321425  1
  O  O239  1  0.87014675  0.25634043  0.50425035  1
  O  O240  1  0.87103117  0.75733295  0.00445758  1
  O  O241  1  0.86974512  0.75528673  0.50626763  1
  O  O242  1  0.13279178  0.24793059  0.49288155  1
  O  O243  1  0.12627319  0.23923760  0.99189946  1
  O  O244  1  0.11785303  0.74096428  0.49206743  1
  O  O245  1  0.12288184  0.74093047  0.99435121  1
  O  O246  1  0.63226815  0.24972594  0.49276850  1
  O  O247  1  0.62666616  0.24015354  0.99151349  1
  O  O248  1  0.62927641  0.74506352  0.49536545  1
  O  O249  1  0.63161636  0.75087317  0.99266090  1
  O  O250  1  0.49513006  0.24558749  0.13035982  1
  O  O251  1  0.49427925  0.24600318  0.63003689  1
  O  O252  1  0.49935896  0.75075392  0.13793197  1
  O  O253  1  0.48720038  0.75150436  0.62905689  1
  O  O254  1  0.99126623  0.24798875  0.12955086  1
  O  O255  1  0.99480947  0.24151929  0.62922779  1
  O  O256  1  0.99449392  0.74529489  0.13190134  1
  O  O257  1  0.99131586  0.74077887  0.62748868  1
  O  O258  1  0.00627228  0.25800058  0.37402138  1
  O  O259  1  0.00715373  0.24606212  0.86475225  1
  O  O260  1  0.00557793  0.75550708  0.37023910  1
  O  O261  1  0.01137645  0.75054793  0.87335440  1
  O  O262  1  0.50644241  0.25190423  0.36776808  1
  O  O263  1  0.50426655  0.25419750  0.86809156  1
  O  O264  1  0.50606897  0.75987768  0.36523528  1
  O  O265  1  0.50756875  0.75668219  0.86994110  1
  O  O266  1  0.24981132  0.13075755  0.49348029  1
  O  O267  1  0.24124154  0.12540601  0.99224557  1
  O  O268  1  0.24391611  0.61690756  0.48959086  1
  O  O269  1  0.23606940  0.62314013  1.00084518  1
  O  O270  1  0.75120037  0.13298106  0.49219327  1
  O  O271  1  0.74268473  0.12833085  0.98821046  1
  O  O272  1  0.74315156  0.63159881  0.49500261  1
  O  O273  1  0.74978188  0.63171745  0.99102583  1
  O  O274  1  0.25608168  0.37386683  0.00784301  1
  O  O275  1  0.25346657  0.37034995  0.51113632  1
  O  O276  1  0.25914335  0.87459809  0.00496312  1
  O  O277  1  0.26350089  0.88228586  0.49782473  1
  O  O278  1  0.74478474  0.37533055  0.01325696  1
  O  O279  1  0.75551400  0.37021136  0.50479462  1
  O  O280  1  0.76070840  0.87020896  -0.00030479  1
  O  O281  1  0.75551463  0.87029002  0.50460035  1
  O  O282  1  0.12963714  0.49598589  0.24595481  1
  O  O283  1  0.13437370  0.50486143  0.74591395  1
  O  O284  1  0.13059140  0.99420593  0.24459964  1
  O  O285  1  0.13433208  0.98950654  0.75798799  1
  O  O286  1  0.63067698  0.49642127  0.24670110  1
  O  O287  1  0.62537943  0.49139458  0.74872740  1
  O  O288  1  0.63611818  0.99642988  0.24815836  1
  O  O289  1  0.62250945  0.99015240  0.73968591  1
  O  O290  1  0.36856400  0.00717827  0.24992289  1
  O  O291  1  0.36781815  0.00310024  0.75289117  1
  O  O292  1  0.37072106  0.50585945  0.25949757  1
  O  O293  1  0.36645467  0.50528468  0.75735415  1
  O  O294  1  0.86754394  0.00905559  0.24992178  1
  O  O295  1  0.88101240  0.01126276  0.75701752  1
  O  O296  1  0.87016481  0.50707348  0.25635786  1
  O  O297  1  0.87173869  0.51228080  0.75516687  1
  O  O298  1  0.12099350  0.37178297  0.37167631  1
  O  O299  1  0.11824035  0.35814928  0.88355488  1
  O  O300  1  0.12000771  0.86932341  0.36941471  1
  O  O301  1  0.12372185  0.86649114  0.86792809  1
  O  O302  1  0.62599893  0.36956105  0.36761878  1
  O  O303  1  0.61873128  0.36838034  0.86954933  1
  O  O304  1  0.61877442  0.87079121  0.36976399  1
  O  O305  1  0.62219421  0.87287317  0.86708174  1
  O  O306  1  0.38038216  0.13040020  0.12826512  1
  O  O307  1  0.38083749  0.12987330  0.63001543  1
  O  O308  1  0.37770612  0.62784194  0.13485546  1
  O  O309  1  0.37116156  0.61757112  0.64361569  1
  O  O310  1  0.87426029  0.13346325  0.13313548  1
  O  O311  1  0.88152621  0.12918169  0.63116619  1
  O  O312  1  0.88009657  0.63163776  0.13275456  1
  O  O313  1  0.87724876  0.62873289  0.63431913  1
  O  O314  1  0.25715259  0.25725352  0.12377476  1
  O  O315  1  0.25334518  0.25586404  0.62189539  1
  O  O316  1  0.25257638  0.75800407  0.12356899  1
  O  O317  1  0.26273490  0.74990479  0.62700552  1
  O  O318  1  0.75839589  0.25993825  0.12201462  1
  O  O319  1  0.75607778  0.25494753  0.61881935  1
  O  O320  1  0.75726095  0.75126226  0.11920685  1
  O  O321  1  0.75563096  0.75783952  0.61871217  1
  O  O322  1  0.24579085  0.24618164  0.37990322  1
  O  O323  1  0.24069784  0.24274490  0.87308294  1
  O  O324  1  0.24390468  0.73673608  0.36824566  1
  O  O325  1  0.23559449  0.74613884  0.88035064  1
  O  O326  1  0.74581683  0.24715675  0.37864378  1
  O  O327  1  0.74427188  0.23895461  0.87467564  1
  O  O328  1  0.74543380  0.74616034  0.38073245  1
  O  O329  1  0.74477842  0.74246898  0.88072125  1
  O  O330  1  0.01372385  0.12213571  0.00081326  1
  O  O331  1  -0.00097703  0.11751927  0.50723640  1
  O  O332  1  0.00911350  0.61746978  0.00660586  1
  O  O333  1  0.00419018  0.61815058  0.50779931  1
  O  O334  1  0.51046710  0.12473218  0.00292105  1
  O  O335  1  0.50351001  0.12415748  0.50797734  1
  O  O336  1  0.50012062  0.61682518  0.00102579  1
  O  O337  1  0.51093933  0.61843191  0.49252594  1
  O  O338  1  0.49712310  0.38718034  0.49500237  1
  O  O339  1  0.49437639  0.37893532  0.99511516  1
  O  O340  1  0.49462307  0.87630851  0.48684739  1
  O  O341  1  0.49115148  0.87663388  0.99234994  1
  O  O342  1  0.99387159  0.38063996  0.49628892  1
  O  O343  1  1.00433436  0.39053278  1.00571535  1
  O  O344  1  0.99561018  0.88197106  0.49718581  1
  O  O345  1  0.98669116  0.87553454  0.99624320  1
  O  O346  1  0.48969624  0.50102175  0.38276606  1
  O  O347  1  0.49333596  0.49126789  0.88253728  1
  O  O348  1  0.50168566  0.98899094  0.37155755  1
  O  O349  1  0.49229347  0.99250294  0.87487442  1
  O  O350  1  0.99472879  0.49573705  0.38258518  1
  O  O351  1  1.00084406  0.49699279  0.89117051  1
  O  O352  1  0.99790811  0.99402800  0.38359185  1
  O  O353  1  0.98568926  1.00020389  0.87785461  1
  O  O354  1  0.00940279  0.00372858  0.12151539  1
  O  O355  1  -0.00662520  0.01034798  0.61522434  1
  O  O356  1  0.00470133  0.50579917  0.11786545  1
  O  O357  1  0.00309119  0.50358899  0.62218972  1
  O  O358  1  0.50450033  0.00991356  0.12091102  1
  O  O359  1  0.51188958  0.00718631  0.62446366  1
  O  O360  1  0.50582074  0.50026536  0.12032429  1
  O  O361  1  0.49945115  0.49615119  0.61182752  1
  O  O362  1  0.24460266  0.38190696  0.24567709  1
  O  O363  1  0.25537452  0.38471281  0.74028098  1
  O  O364  1  0.24479657  0.88010909  0.24587287  1
  O  O365  1  0.24263179  0.88262531  0.74843563  1
  O  O366  1  0.74515497  0.38229390  0.24159305  1
  O  O367  1  0.74237204  0.37308853  0.74328590  1
  O  O368  1  0.74640050  0.88481358  0.25047064  1
  O  O369  1  0.73743437  0.86971546  0.74312543  1
  O  O370  1  0.25605939  0.12085074  0.25360464  1
  O  O371  1  0.25495846  0.11624711  0.75272481  1
  O  O372  1  0.25418408  0.61873471  0.26023714  1
  O  O373  1  0.25760226  0.60966445  0.75415533  1
  O  O374  1  0.75774024  0.11968561  0.25327109  1
  O  O375  1  0.76200231  0.13154782  0.75796167  1
  O  O376  1  0.75557201  0.62104868  0.25669061  1
  O  O377  1  0.75747755  0.62558758  0.76010249  1
  O  O378  1  0.36898356  0.12528725  0.36614151  1
  O  O379  1  0.37014890  0.11975238  0.86793792  1
  O  O380  1  0.36754697  0.61819410  0.37219380  1
  O  O381  1  0.36888808  0.61414913  0.86980743  1
  O  O382  1  0.86918149  0.12671367  0.36345963  1
  O  O383  1  0.86909937  0.11929768  0.86763692  1
  O  O384  1  0.87041429  0.62077160  0.37171460  1
  O  O385  1  0.86561290  0.62640511  0.86889566  1
  O  O386  1  0.13079864  0.37997152  0.13136081  1
  O  O387  1  0.13628613  0.37999310  0.62057006  1
  O  O388  1  0.13017243  0.87967713  0.13019386  1
  O  O389  1  0.12535969  0.86720434  0.63909217  1
  O  O390  1  0.63422481  0.38023580  0.13138204  1
  O  O391  1  0.63040847  0.37487108  0.63148557  1
  O  O392  1  0.62892422  0.87900034  0.13222441  1
  O  O393  1  0.62925413  0.88218583  0.63068126  1
  O  O394  1  0.12438702  0.25791920  0.25697044  1
  O  O395  1  0.11499588  0.24012059  0.75976990  1
  O  O396  1  0.11874359  0.75516982  0.25720765  1
  O  O397  1  0.12533326  0.75629072  0.75961586  1
  O  O398  1  0.62121301  0.25542489  0.25435797  1
  O  O399  1  0.61776866  0.25433935  0.75473794  1
  O  O400  1  0.61867053  0.75576877  0.25571088  1
  O  O401  1  0.62361901  0.76002169  0.75586491  1
  O  O402  1  0.38079946  0.24526367  0.24367690  1
  O  O403  1  0.37895680  0.24292822  0.74443962  1
  O  O404  1  0.38530040  0.74578951  0.25159070  1
  O  O405  1  0.37172333  0.72881365  0.75970876  1
  O  O406  1  0.87476673  0.24129336  0.24050596  1
  O  O407  1  0.88437531  0.23736216  0.74355572  1
  O  O408  1  0.88053918  0.74583417  0.24635744  1
  O  O409  1  0.87532448  0.73940848  0.74540036  1
  O  O410  1  0.38232682  0.50314851  0.49247919  1
  O  O411  1  0.37871776  0.49264184  0.99663673  1
  O  O412  1  0.38209530  0.98943035  0.49297113  1
  O  O413  1  0.37491332  0.98912871  0.99193689  1
  O  O414  1  0.87966541  0.49549441  0.49593756  1
  O  O415  1  0.89038327  0.50794565  1.00183212  1
  O  O416  1  0.88480753  0.99366004  0.49698804  1
  O  O417  1  0.87431625  0.99257480  0.99195996  1
  O  O418  1  0.12635387  0.00785317  0.00324839  1
  O  O419  1  0.11067857  0.00070286  0.49668169  1
  O  O420  1  0.11602675  0.50790957  0.00634005  1
  O  O421  1  0.11832423  0.50655592  0.50843066  1
  O  O422  1  0.62569377  0.01340791  -0.00127701  1
  O  O423  1  0.62214863  0.00252218  0.51088511  1
  O  O424  1  0.61628465  0.50190748  0.00743906  1
  O  O425  1  0.61678204  0.51016314  0.50026029  1
  O  O426  1  0.36977085  0.37031428  0.12124794  1
  O  O427  1  0.36313906  0.36831035  0.62465951  1
  O  O428  1  0.37069366  0.87494768  0.11465619  1
  O  O429  1  0.37728236  0.87977564  0.60578905  1
  O  O430  1  0.86528830  0.36635037  0.13317062  1
  O  O431  1  0.86882883  0.36891749  0.61954461  1
  O  O432  1  0.87372743  0.87038856  0.11564227  1
  O  O433  1  0.87023884  0.87009679  0.62089574  1
  O  O434  1  0.13238243  0.13264032  0.37542757  1
  O  O435  1  0.12964751  0.13037443  0.88185149  1
  O  O436  1  0.13224313  0.62853290  0.38183381  1
  O  O437  1  0.12433801  0.63144805  0.88488484  1
  O  O438  1  0.63289662  0.13337152  0.37461763  1
  O  O439  1  0.63197567  0.12764132  0.87745645  1
  O  O440  1  0.63199207  0.63189028  0.38352311  1
  O  O441  1  0.63511680  0.63156425  0.87523296  1
