# generated using pymatgen
data_V93Zn93O256
_symmetry_space_group_name_H-M   'P 1'
_cell_length_a   17.05032644
_cell_length_b   17.04842158
_cell_length_c   17.05270958
_cell_angle_alpha   90.05747715
_cell_angle_beta   89.97788880
_cell_angle_gamma   89.97388282
_symmetry_Int_Tables_number   1
_chemical_formula_structural   V93Zn93O256
_chemical_formula_sum   'V93 Zn93 O256'
_cell_volume   4956.89790363
_cell_formula_units_Z   1
loop_
 _symmetry_equiv_pos_site_id
 _symmetry_equiv_pos_as_xyz
  1  'x, y, z'
loop_
 _atom_site_type_symbol
 _atom_site_label
 _atom_site_symmetry_multiplicity
 _atom_site_fract_x
 _atom_site_fract_y
 _atom_site_fract_z
 _atom_site_occupancy
  V  V0  1  0.62420112  0.62604347  0.49984425  1
  V  V1  1  0.62544953  0.00071016  0.62492431  1
  V  V2  1  0.62467532  0.75000049  0.87539049  1
  V  V3  1  0.00016946  0.62460980  0.12472134  1
  V  V4  1  0.50379104  0.36832155  0.87341501  1
  V  V5  1  0.12498543  0.50025970  0.12423329  1
  V  V6  1  0.25028474  0.50039821  0.25017906  1
  V  V7  1  0.12531195  0.13233700  0.50659958  1
  V  V8  1  0.37441467  0.24892289  0.62373197  1
  V  V9  1  0.12466890  0.87457677  0.25099746  1
  V  V10  1  0.12630136  0.37326078  0.74947973  1
  V  V11  1  0.37346562  0.37089040  0.49879989  1
  V  V12  1  0.37560340  0.49821392  0.87493875  1
  V  V13  1  0.25096188  0.49860474  0.74997387  1
  V  V14  1  0.12576598  0.87693032  0.75089508  1
  V  V15  1  -0.00058670  0.75037729  0.25155341  1
  V  V16  1  0.25090222  0.37161183  0.62126475  1
  V  V17  1  0.87658525  0.37682599  0.50022707  1
  V  V18  1  0.62140456  0.50125282  0.12386476  1
  V  V19  1  0.50047494  0.37497987  0.37420292  1
  V  V20  1  0.87358188  0.75197523  0.62498624  1
  V  V21  1  0.37407637  0.87532768  -0.00133958  1
  V  V22  1  0.87389340  0.62467678  0.24956974  1
  V  V23  1  0.24499240  0.74711964  0.50115973  1
  V  V24  1  0.00022452  0.12524293  0.12772036  1
  V  V25  1  -0.00069088  0.00084611  -0.00015494  1
  V  V26  1  0.87381856  0.87553769  -0.00027800  1
  V  V27  1  0.49871251  0.12319026  0.12678482  1
  V  V28  1  0.12416967  0.62469974  -0.00003547  1
  V  V29  1  0.86879262  0.12697395  0.75346960  1
  V  V30  1  0.25016886  0.62437357  0.87464364  1
  V  V31  1  0.62616088  0.37537220  0.75019031  1
  V  V32  1  0.87609820  0.62660025  0.74871245  1
  V  V33  1  0.87527120  0.00101970  0.37722639  1
  V  V34  1  0.87484491  0.75051713  0.12497731  1
  V  V35  1  0.75202361  0.25133291  0.49872247  1
  V  V36  1  0.00116520  0.37590864  0.87548229  1
  V  V37  1  0.74910360  -0.00013453  0.25077207  1
  V  V38  1  0.37323479  0.00043630  0.37588405  1
  V  V39  1  0.87748433  0.50143433  0.87353253  1
  V  V40  1  0.24910499  0.13133542  0.37882348  1
  V  V41  1  0.12471402  0.37369837  0.25009731  1
  V  V42  1  -0.00080850  0.87621129  0.37629281  1
  V  V43  1  0.37437001  0.49922760  0.37476450  1
  V  V44  1  0.37797916  0.74288003  0.12564229  1
  V  V45  1  0.62649903  0.50113020  0.62414260  1
  V  V46  1  -0.00077229  0.75143229  0.74927393  1
  V  V47  1  0.25368946  -0.00024210  0.75281590  1
  V  V48  1  0.24849324  0.87472245  0.12614626  1
  V  V49  1  0.12297678  0.50588698  0.61874896  1
  V  V50  1  0.62324021  0.75038622  0.37459700  1
  V  V51  1  0.25348657  0.12254925  0.87645439  1
  V  V52  1  0.12340539  0.74734286  0.37827139  1
  V  V53  1  0.24932514  -0.00122956  0.25228934  1
  V  V54  1  0.74947993  0.62546643  0.87469376  1
  V  V55  1  0.37629603  0.12369918  0.75339734  1
  V  V56  1  0.62520016  0.25125052  0.37454533  1
  V  V57  1  0.74982547  0.75289288  0.49950565  1
  V  V58  1  0.87463920  0.25103107  0.12378905  1
  V  V59  1  0.75006616  0.37435255  0.12289154  1
  V  V60  1  0.00086396  0.37376202  0.37457939  1
  V  V61  1  0.87415237  0.50045029  0.37441755  1
  V  V62  1  0.49870539  0.74372933  0.24733376  1
  V  V63  1  0.00132459  0.00392522  0.50757191  1
  V  V64  1  0.49911596  0.00023776  0.49965859  1
  V  V65  1  0.24965479  0.75048538  0.00047118  1
  V  V66  1  0.50070636  0.50100602  0.00219978  1
  V  V67  1  0.49875846  0.62551569  0.62517663  1
  V  V68  1  0.37641474  0.62432238  0.74953963  1
  V  V69  1  0.37254972  0.87538099  0.50096641  1
  V  V70  1  0.24553791  0.62415042  0.37856313  1
  V  V71  1  0.88060653  0.24565457  0.62373724  1
  V  V72  1  0.37494379  0.24891955  0.12519881  1
  V  V73  1  0.74825089  0.87521221  0.12551204  1
  V  V74  1  0.86669739  0.00521424  0.87462584  1
  V  V75  1  0.49422744  -0.00072427  -0.00111298  1
  V  V76  1  0.25017662  0.37407163  0.12398141  1
  V  V77  1  0.00166503  0.24324358  0.74662792  1
  V  V78  1  0.62549048  0.87574581  0.75086424  1
  V  V79  1  0.74947091  0.50102490  0.24872718  1
  V  V80  1  -0.00096615  0.87593528  0.87549794  1
  V  V81  1  0.75087200  0.50127890  0.74836492  1
  V  V82  1  0.24944031  0.87591072  0.62579475  1
  V  V83  1  0.62413556  0.12535713  0.49968004  1
  V  V84  1  0.62464446  0.37505132  0.24948367  1
  V  V85  1  0.49444485  0.87731542  0.87545481  1
  V  V86  1  0.62026564  0.62434713  0.00342615  1
  V  V87  1  0.37566239  0.37418440  -0.00072449  1
  V  V88  1  0.49820761  0.87409286  0.37457022  1
  V  V89  1  0.75032375  0.12502093  0.37441132  1
  V  V90  1  0.12617413  0.12532629  0.00021810  1
  V  V91  1  0.63024203  0.12794863  -0.00381602  1
  V  V92  1  0.12461847  0.75014916  0.87476046  1
  Zn  Zn93  1  0.87525711  0.87823016  0.50256479  1
  Zn  Zn94  1  0.49890989  0.12602420  0.62562531  1
  Zn  Zn95  1  0.62187818  0.87391093  0.24875953  1
  Zn  Zn96  1  0.75173667  0.37646436  0.62384774  1
  Zn  Zn97  1  0.00207431  0.24819934  0.25139209  1
  Zn  Zn98  1  0.74950678  0.62617307  0.37351997  1
  Zn  Zn99  1  0.74950047  0.87777803  0.62633557  1
  Zn  Zn100  1  0.62314155  -0.00089422  0.12606364  1
  Zn  Zn101  1  0.12957475  0.25229823  0.37720953  1
  Zn  Zn102  1  0.65515997  0.22227666  0.85153334  1
  Zn  Zn103  1  0.37388237  0.12435127  0.25233080  1
  Zn  Zn104  1  0.50104729  0.50055471  0.49820568  1
  Zn  Zn105  1  0.00693136  0.63291793  0.61740933  1
  Zn  Zn106  1  -0.00098196  0.49974163  0.00018532  1
  Zn  Zn107  1  0.87356862  0.37674196  -0.00157767  1
  Zn  Zn108  1  0.74579239  0.00709702  0.75377789  1
  Zn  Zn109  1  0.50120946  0.24801182  0.25058512  1
  Zn  Zn110  1  0.75195262  0.25069146  -0.00555131  1
  Zn  Zn111  1  0.12565615  0.24953631  0.87437722  1
  Zn  Zn112  1  0.00359846  0.50898780  0.49486889  1
  Zn  Zn113  1  0.87588826  0.12640557  0.25121749  1
  Zn  Zn114  1  0.12033412  0.00529016  0.62942431  1
  Zn  Zn115  1  0.37414795  0.74952339  0.62525137  1
  Zn  Zn116  1  0.25007441  0.24980853  -0.00209235  1
  Zn  Zn117  1  0.74879879  0.74913510  0.00047333  1
  Zn  Zn118  1  0.12451782  -0.00061370  0.12741847  1
  Zn  Zn119  1  0.37692706  0.62147909  0.24757716  1
  Zn  Zn120  1  0.50388345  0.24668691  0.74966813  1
  Zn  Zn121  1  0.49755918  0.75082876  0.74993343  1
  Zn  Zn122  1  0.18801302  0.18751053  0.19092114  1
  Zn  Zn123  1  0.18985867  0.18826138  0.68754938  1
  Zn  Zn124  1  0.18851840  0.68695771  0.19000828  1
  Zn  Zn125  1  0.18937505  0.68842993  0.68879206  1
  Zn  Zn126  1  0.68714848  0.18777904  0.18521850  1
  Zn  Zn127  1  0.69179509  0.18900560  0.67994753  1
  Zn  Zn128  1  0.68606312  0.68744104  0.18687533  1
  Zn  Zn129  1  0.68663591  0.68907815  0.68776953  1
  Zn  Zn130  1  0.31351222  0.31176199  0.30951115  1
  Zn  Zn131  1  0.31320971  0.30901650  0.81164679  1
  Zn  Zn132  1  0.31276995  0.81131372  0.31300222  1
  Zn  Zn133  1  0.31361840  0.81020119  0.81150967  1
  Zn  Zn134  1  0.81365598  0.31307811  0.30989755  1
  Zn  Zn135  1  0.81466383  0.31511022  0.81191533  1
  Zn  Zn136  1  0.81338283  0.81407950  0.31391640  1
  Zn  Zn137  1  0.81010209  0.81403846  0.81364505  1
  Zn  Zn138  1  0.18873556  0.43638039  0.43773477  1
  Zn  Zn139  1  0.18696543  0.43716264  0.93836355  1
  Zn  Zn140  1  0.18480941  0.93967389  0.43882730  1
  Zn  Zn141  1  0.18769989  0.93944074  0.93758310  1
  Zn  Zn142  1  0.68937457  0.43840413  0.43726584  1
  Zn  Zn143  1  0.68959064  0.43679787  0.93611437  1
  Zn  Zn144  1  0.68565920  0.93573248  0.43672991  1
  Zn  Zn145  1  0.68313881  0.93978129  0.94068731  1
  Zn  Zn146  1  0.31224061  0.05996212  0.06461595  1
  Zn  Zn147  1  0.30825651  0.06267107  0.56383920  1
  Zn  Zn148  1  0.31155478  0.56106904  0.06072522  1
  Zn  Zn149  1  0.31266335  0.55998111  0.56070188  1
  Zn  Zn150  1  0.81399119  0.06159877  0.06397485  1
  Zn  Zn151  1  0.81295833  0.06532543  0.56407105  1
  Zn  Zn152  1  0.81089009  0.56101438  0.06012870  1
  Zn  Zn153  1  0.81380933  0.56510481  0.56071379  1
  Zn  Zn154  1  0.43883859  0.43700446  0.18761010  1
  Zn  Zn155  1  0.43997944  0.43862603  0.68715235  1
  Zn  Zn156  1  0.43408338  0.93385013  0.18817591  1
  Zn  Zn157  1  0.43727074  0.93862693  0.68622689  1
  Zn  Zn158  1  0.93785342  0.43716148  0.18804742  1
  Zn  Zn159  1  0.93902325  0.43444103  0.68811986  1
  Zn  Zn160  1  0.93597917  0.93881580  0.18894733  1
  Zn  Zn161  1  0.93593029  0.93857889  0.68952148  1
  Zn  Zn162  1  0.06516083  0.06179259  0.31719640  1
  Zn  Zn163  1  0.06167385  0.06236315  0.81489217  1
  Zn  Zn164  1  0.06256605  0.56177342  0.31161077  1
  Zn  Zn165  1  0.06306025  0.56288230  0.80682811  1
  Zn  Zn166  1  0.56297752  0.06155889  0.31278085  1
  Zn  Zn167  1  0.55736969  0.05798382  0.81344696  1
  Zn  Zn168  1  0.56273011  0.56267914  0.31342709  1
  Zn  Zn169  1  0.56229136  0.56039373  0.81379272  1
  Zn  Zn170  1  0.43791212  0.18753436  0.43785512  1
  Zn  Zn171  1  0.43932807  0.18669787  0.93850526  1
  Zn  Zn172  1  0.43368553  0.68736961  0.43704586  1
  Zn  Zn173  1  0.43822244  0.68890690  0.93636180  1
  Zn  Zn174  1  0.94008302  0.18613345  0.43830904  1
  Zn  Zn175  1  0.93702919  0.18905491  0.93653431  1
  Zn  Zn176  1  0.93738426  0.68504827  0.43961564  1
  Zn  Zn177  1  0.93693274  0.68815954  0.93832499  1
  Zn  Zn178  1  0.06267223  0.31083037  0.06206156  1
  Zn  Zn179  1  0.06178437  0.31604903  0.56185375  1
  Zn  Zn180  1  0.06172748  0.81236222  0.06319004  1
  Zn  Zn181  1  0.06286529  0.81779503  0.56330479  1
  Zn  Zn182  1  0.56274535  0.31166495  0.06193286  1
  Zn  Zn183  1  0.55988312  0.31257299  0.56246959  1
  Zn  Zn184  1  0.56204238  0.81059407  0.06307921  1
  Zn  Zn185  1  0.56091625  0.81252233  0.56252501  1
  O  O186  1  0.11765646  0.12375361  0.11753044  1
  O  O187  1  0.13337690  0.12413157  0.61048792  1
  O  O188  1  0.12060365  0.62090628  0.12043450  1
  O  O189  1  0.12823267  0.60871808  0.63170780  1
  O  O190  1  0.61314936  0.12320291  0.11636165  1
  O  O191  1  0.62335086  0.11688478  0.61921499  1
  O  O192  1  0.63054775  0.61874458  0.11115250  1
  O  O193  1  0.61720027  0.62141629  0.62087748  1
  O  O194  1  0.37798542  0.37752590  0.38174830  1
  O  O195  1  0.38237678  0.37853201  0.87845512  1
  O  O196  1  0.37823044  0.88058406  0.38173591  1
  O  O197  1  0.38644936  0.86712799  0.88189893  1
  O  O198  1  0.88261573  0.38000352  0.37838439  1
  O  O199  1  0.88710038  0.38301940  0.87294595  1
  O  O200  1  0.88156695  0.88278763  0.37788488  1
  O  O201  1  0.88013355  0.88280038  0.87916459  1
  O  O202  1  0.25449098  0.00713981  0.37132049  1
  O  O203  1  0.24678225  0.01008910  0.86446972  1
  O  O204  1  0.25349146  0.50607478  0.37104940  1
  O  O205  1  0.25566700  0.50423734  0.87015052  1
  O  O206  1  0.75365653  0.00415272  0.36918259  1
  O  O207  1  0.76299788  -0.00578047  0.87509884  1
  O  O208  1  0.75605641  0.50198727  0.36633754  1
  O  O209  1  0.75683331  0.50562143  0.86740719  1
  O  O210  1  0.24522875  0.49404653  0.12968791  1
  O  O211  1  0.24326042  0.49097254  0.62973377  1
  O  O212  1  0.24850073  0.99231376  0.13295211  1
  O  O213  1  0.24666312  0.99459874  0.63730184  1
  O  O214  1  0.74328069  0.49418737  0.13017046  1
  O  O215  1  0.74476103  0.50008365  0.63082656  1
  O  O216  1  0.75127251  0.99138689  0.13419308  1
  O  O217  1  0.73699045  0.99926438  0.62621627  1
  O  O218  1  0.00641151  0.37517850  0.25910912  1
  O  O219  1  0.00567465  0.36575304  0.75817807  1
  O  O220  1  0.00402576  0.87005696  0.25532364  1
  O  O221  1  0.00544720  0.87131760  0.75662570  1
  O  O222  1  0.50725742  0.37243584  0.25642308  1
  O  O223  1  0.50907984  0.37550141  0.75702260  1
  O  O224  1  0.49950541  0.86461698  0.25660651  1
  O  O225  1  0.50755308  0.87764301  0.75872770  1
  O  O226  1  0.49797315  0.12449388  0.23873931  1
  O  O227  1  0.48854377  0.12462596  0.74941063  1
  O  O228  1  0.49629004  0.63925560  0.25556811  1
  O  O229  1  0.49558475  0.62421855  0.74165176  1
  O  O230  1  1.00063455  0.12410561  0.23911387  1
  O  O231  1  0.99187489  0.13701885  0.75571984  1
  O  O232  1  0.99460916  0.63092675  0.24429033  1
  O  O233  1  0.99434405  0.63398467  0.74440664  1
  O  O234  1  0.37472044  0.25471099  0.01003617  1
  O  O235  1  0.37959327  0.26073922  0.50993395  1
  O  O236  1  0.36984811  0.75413868  0.00682210  1
  O  O237  1  0.36208486  0.75695547  0.50044577  1
  O  O238  1  0.87577736  0.25157474  0.01295331  1
  O  O239  1  0.87372870  0.25411075  0.50695482  1
  O  O240  1  0.87249935  0.75733015  0.00657846  1
  O  O241  1  0.86603186  0.75242289  0.50815247  1
  O  O242  1  0.11868641  0.23609847  0.49881337  1
  O  O243  1  0.12781721  0.23629802  0.99892064  1
  O  O244  1  0.13771194  0.75743118  0.49485045  1
  O  O245  1  0.13002319  0.74519715  0.99427351  1
  O  O246  1  0.63079282  0.24594191  0.49535050  1
  O  O247  1  0.62387931  0.23300914  1.00163620  1
  O  O248  1  0.63154885  0.74655708  0.49595566  1
  O  O249  1  0.62517174  0.74069019  0.99497224  1
  O  O250  1  0.49148171  0.24066843  0.12436588  1
  O  O251  1  0.48758489  0.24792103  0.62830142  1
  O  O252  1  0.48896004  0.75696344  0.13432165  1
  O  O253  1  0.49785414  0.73737000  0.62633468  1
  O  O254  1  0.99331371  0.24102893  0.12573755  1
  O  O255  1  0.99163616  0.25807610  0.63550795  1
  O  O256  1  0.99439267  0.74513714  0.13162962  1
  O  O257  1  0.99077337  0.75408415  0.63074440  1
  O  O258  1  -0.00018418  0.26344858  0.37322430  1
  O  O259  1  0.00103540  0.25903048  0.86548269  1
  O  O260  1  0.00346329  0.75532555  0.37034725  1
  O  O261  1  0.00480405  0.75605097  0.86947742  1
  O  O262  1  0.50690302  0.25596536  0.37346006  1
  O  O263  1  0.49981437  0.26307181  0.87327764  1
  O  O264  1  0.50221448  0.75517107  0.36841621  1
  O  O265  1  0.50659022  0.76090655  0.87407296  1
  O  O266  1  0.23595271  0.11736353  0.49061924  1
  O  O267  1  0.24391944  0.12144355  0.99272368  1
  O  O268  1  0.25535491  0.63463292  0.49092554  1
  O  O269  1  0.24410716  0.63054792  0.99365991  1
  O  O270  1  0.74413862  0.13125367  0.49397951  1
  O  O271  1  0.73159043  0.12010023  1.00766861  1
  O  O272  1  0.74412312  0.63825250  0.49878140  1
  O  O273  1  0.73914519  0.62522497  0.99229287  1
  O  O274  1  0.25698031  0.37287815  0.00550175  1
  O  O275  1  0.26084429  0.37860491  0.51035317  1
  O  O276  1  0.25364154  0.86991218  0.00391022  1
  O  O277  1  0.25350034  0.86899154  0.50507617  1
  O  O278  1  0.75208835  0.37461869  0.00916707  1
  O  O279  1  0.75798216  0.36811118  0.49991806  1
  O  O280  1  0.75444220  0.87613927  0.01050925  1
  O  O281  1  0.75035549  0.86409462  0.50269526  1
  O  O282  1  0.13135310  0.49396349  0.24349817  1
  O  O283  1  0.13241487  0.49239014  0.74110590  1
  O  O284  1  0.13085255  0.99169650  0.25039464  1
  O  O285  1  0.13342456  0.99622592  0.75016648  1
  O  O286  1  0.62916969  0.49568175  0.24410014  1
  O  O287  1  0.63085114  0.49394865  0.74437276  1
  O  O288  1  0.63683441  0.99640654  0.24898053  1
  O  O289  1  0.62450160  0.99444058  0.74307289  1
  O  O290  1  0.36752482  -0.00023781  0.25813896  1
  O  O291  1  0.36484329  0.01142503  0.74406624  1
  O  O292  1  0.36823610  0.49955363  0.25563525  1
  O  O293  1  0.37005954  0.50378788  0.75543248  1
  O  O294  1  0.86404151  0.00205725  0.25678320  1
  O  O295  1  0.87373041  0.00984628  0.75680936  1
  O  O296  1  0.86897356  0.50522385  0.25376042  1
  O  O297  1  0.87112401  0.50621041  0.75263978  1
  O  O298  1  0.11799932  0.37462310  0.37098296  1
  O  O299  1  0.11848823  0.37348376  0.86839644  1
  O  O300  1  0.11902955  0.86835236  0.37003100  1
  O  O301  1  0.11960759  0.86995987  0.87115825  1
  O  O302  1  0.62055801  0.37061922  0.37000153  1
  O  O303  1  0.61702620  0.37982278  0.86274080  1
  O  O304  1  0.61616649  0.86787451  0.37358579  1
  O  O305  1  0.61649819  0.87181188  0.86942387  1
  O  O306  1  0.38263613  0.13209749  0.12428925  1
  O  O307  1  0.37172138  0.13375111  0.63275706  1
  O  O308  1  0.36788958  0.63887390  0.12539937  1
  O  O309  1  0.38343378  0.62218082  0.62989332  1
  O  O310  1  0.88462184  0.13192728  0.12470544  1
  O  O311  1  0.87349992  0.13796185  0.63420423  1
  O  O312  1  0.87952821  0.63029098  0.12939525  1
  O  O313  1  0.87332334  0.63890056  0.63153892  1
  O  O314  1  0.25968065  0.25402360  0.12347351  1
  O  O315  1  0.26158939  0.26201828  0.63145555  1
  O  O316  1  0.25606009  0.75534773  0.11993272  1
  O  O317  1  0.25022738  0.75528020  0.61681185  1
  O  O318  1  0.75884718  0.25455049  0.12196799  1
  O  O319  1  0.76247139  0.25392436  0.61645259  1
  O  O320  1  0.75583250  0.76045321  0.12541073  1
  O  O321  1  0.75588701  0.75243475  0.61741324  1
  O  O322  1  0.25157422  0.23610104  0.37064381  1
  O  O323  1  0.24682985  0.23715875  0.87607605  1
  O  O324  1  0.24485183  0.74297579  0.38176835  1
  O  O325  1  0.24433688  0.74459854  0.88050495  1
  O  O326  1  0.74574504  0.24521435  0.37922726  1
  O  O327  1  0.75529765  0.25375695  0.88208793  1
  O  O328  1  0.74408049  0.75052772  0.38344919  1
  O  O329  1  0.74273252  0.74439797  0.87732489  1
  O  O330  1  0.00774078  0.12130478  0.00707220  1
  O  O331  1  0.01459546  0.11604595  0.49355477  1
  O  O332  1  0.00719567  0.62544090  0.00653070  1
  O  O333  1  -0.00181026  0.62092806  0.50604790  1
  O  O334  1  0.50354293  0.11672282  0.00768847  1
  O  O335  1  0.50654501  0.11797120  0.50137361  1
  O  O336  1  0.51222067  0.61696944  -0.01022369  1
  O  O337  1  0.50428728  0.62448561  0.50843136  1
  O  O338  1  0.49058222  0.37765128  0.49370751  1
  O  O339  1  0.49659830  0.37939132  0.99111481  1
  O  O340  1  0.49320270  0.88004934  0.49486297  1
  O  O341  1  0.49615339  0.88087420  0.99468237  1
  O  O342  1  0.99552422  0.38031324  0.48990620  1
  O  O343  1  1.00096675  0.37557102  0.98634737  1
  O  O344  1  0.99925848  0.88538320  0.49328200  1
  O  O345  1  0.99409615  0.88027124  0.99551272  1
  O  O346  1  0.49281861  0.49316047  0.37554956  1
  O  O347  1  0.49442751  0.48913814  0.88031985  1
  O  O348  1  0.49419467  0.99487756  0.38031746  1
  O  O349  1  0.50244880  0.98730997  0.88654667  1
  O  O350  1  0.99450395  0.48978959  0.37330455  1
  O  O351  1  0.99712066  0.49119261  0.87154410  1
  O  O352  1  0.99444994  0.99568937  0.38344002  1
  O  O353  1  0.99085709  0.99449361  0.88038335  1
  O  O354  1  -0.00105243  0.00942591  0.11905912  1
  O  O355  1  0.00025958  -0.00473645  0.61258913  1
  O  O356  1  0.00699438  0.50670629  0.12425674  1
  O  O357  1  0.01743312  0.49614587  0.62766253  1
  O  O358  1  0.49918766  0.00611836  0.11866343  1
  O  O359  1  0.50987828  0.00195652  0.61885604  1
  O  O360  1  0.50774930  0.49254698  0.11479961  1
  O  O361  1  0.50651599  0.51063178  0.62297365  1
  O  O362  1  0.24499815  0.38078237  0.24402660  1
  O  O363  1  0.24783573  0.37926568  0.74170549  1
  O  O364  1  0.24390742  0.87815167  0.24660894  1
  O  O365  1  0.24696100  0.88269647  0.74861651  1
  O  O366  1  0.74400443  0.38121515  0.24349093  1
  O  O367  1  0.74075609  0.38225790  0.74802819  1
  O  O368  1  0.75009128  0.88289623  0.24204202  1
  O  O369  1  0.73509879  0.87900356  0.75013290  1
  O  O370  1  0.25048654  0.11684952  0.25965807  1
  O  O371  1  0.25563220  0.11890900  0.75695916  1
  O  O372  1  0.25251576  0.61883369  0.26015614  1
  O  O373  1  0.25593543  0.61891335  0.75621214  1
  O  O374  1  0.74953604  0.11500570  0.25461519  1
  O  O375  1  0.76332996  0.12708843  0.74938058  1
  O  O376  1  0.75593427  0.61915531  0.24952202  1
  O  O377  1  0.75500997  0.62110719  0.75533383  1
  O  O378  1  0.36692299  0.11899835  0.37636003  1
  O  O379  1  0.36606023  0.13123715  0.86522720  1
  O  O380  1  0.36330347  0.61792702  0.37362113  1
  O  O381  1  0.36990244  0.61850879  0.87088175  1
  O  O382  1  0.86813289  0.11989623  0.37361672  1
  O  O383  1  0.88083875  0.11509366  0.86739537  1
  O  O384  1  0.87322769  0.61895271  0.36626325  1
  O  O385  1  0.87067894  0.62193725  0.86810142  1
  O  O386  1  0.13020772  0.37982152  0.12860987  1
  O  O387  1  0.13494908  0.38025922  0.62899236  1
  O  O388  1  0.13040195  0.87532165  0.13203218  1
  O  O389  1  0.13238569  0.87767582  0.63478070  1
  O  O390  1  0.62998686  0.37952083  0.12987557  1
  O  O391  1  0.62412814  0.38094486  0.63480663  1
  O  O392  1  0.63627433  0.87637943  0.12567836  1
  O  O393  1  0.62206950  0.88346028  0.63401849  1
  O  O394  1  0.12260597  0.25891241  0.25337246  1
  O  O395  1  0.11702766  0.25386667  0.74894932  1
  O  O396  1  0.11853821  0.75477221  0.25702683  1
  O  O397  1  0.12059431  0.75621854  0.75597028  1
  O  O398  1  0.62506593  0.25658080  0.25644140  1
  O  O399  1  0.62429344  0.25822968  0.74660531  1
  O  O400  1  0.61570201  0.75092931  0.25464150  1
  O  O401  1  0.62140636  0.76034241  0.75507954  1
  O  O402  1  0.37853946  0.24768965  0.23649997  1
  O  O403  1  0.37700518  0.24060011  0.74130737  1
  O  O404  1  0.38101726  0.74938603  0.24195876  1
  O  O405  1  0.37732754  0.74060050  0.74617230  1
  O  O406  1  0.87771608  0.24710315  0.23700704  1
  O  O407  1  0.88253543  0.24517110  0.74307936  1
  O  O408  1  0.88030740  0.74547679  0.24501812  1
  O  O409  1  0.87844158  0.74756424  0.74375552  1
  O  O410  1  0.37637484  0.48778364  0.49385426  1
  O  O411  1  0.37990416  0.49388979  0.99459029  1
  O  O412  1  0.37907487  0.99540981  0.49640316  1
  O  O413  1  0.38646352  0.99236170  1.00598107  1
  O  O414  1  0.87454850  0.49358638  0.49285850  1
  O  O415  1  0.87945631  0.49882511  0.99007911  1
  O  O416  1  0.88280958  1.00158675  0.49626474  1
  O  O417  1  0.87966808  0.99633712  0.99262651  1
  O  O418  1  0.11888599  0.00999497  0.00172751  1
  O  O419  1  0.11662221  0.00912574  0.50252123  1
  O  O420  1  0.12396517  0.50733155  0.00639295  1
  O  O421  1  0.12736875  0.49475082  0.51626881  1
  O  O422  1  0.61247225  0.00906387  0.00405024  1
  O  O423  1  0.61982664  0.00418024  0.50654527  1
  O  O424  1  0.62051793  0.50639725  0.00307964  1
  O  O425  1  0.62519457  0.50736304  0.50582430  1
  O  O426  1  0.37093761  0.36713908  0.11930942  1
  O  O427  1  0.37010965  0.37022812  0.61948059  1
  O  O428  1  0.36743372  0.86458023  0.11851146  1
  O  O429  1  0.36814362  0.87354363  0.61933781  1
  O  O430  1  0.87050592  0.36698576  0.12420176  1
  O  O431  1  0.87474734  0.36513864  0.61971184  1
  O  O432  1  0.86750453  0.87108207  0.12028875  1
  O  O433  1  0.87039772  0.86419528  0.62624648  1
  O  O434  1  0.13300119  0.12764079  0.38455796  1
  O  O435  1  0.13304506  0.12537254  0.88433529  1
  O  O436  1  0.13719471  0.63000126  0.36997421  1
  O  O437  1  0.13039110  0.63026450  0.87830702  1
  O  O438  1  0.63020068  0.13062280  0.38041120  1
  O  O439  1  0.61585703  0.12177225  0.89027369  1
  O  O440  1  0.62634513  0.63249602  0.38210561  1
  O  O441  1  0.63013637  0.62898496  0.88100319  1
