# generated using pymatgen
data_V93Zn93O256
_symmetry_space_group_name_H-M   'P 1'
_cell_length_a   17.06232217
_cell_length_b   17.06701260
_cell_length_c   17.06424548
_cell_angle_alpha   89.99289982
_cell_angle_beta   90.03459625
_cell_angle_gamma   89.95846769
_symmetry_Int_Tables_number   1
_chemical_formula_structural   V93Zn93O256
_chemical_formula_sum   'V93 Zn93 O256'
_cell_volume   4969.15496501
_cell_formula_units_Z   1
loop_
 _symmetry_equiv_pos_site_id
 _symmetry_equiv_pos_as_xyz
  1  'x, y, z'
loop_
 _atom_site_type_symbol
 _atom_site_label
 _atom_site_symmetry_multiplicity
 _atom_site_fract_x
 _atom_site_fract_y
 _atom_site_fract_z
 _atom_site_occupancy
  V  V0  1  0.37649503  0.87400576  0.00196942  1
  V  V1  1  0.49937963  0.49768626  0.49899523  1
  V  V2  1  0.12578291  0.62426204  0.00189435  1
  V  V3  1  0.74970077  0.49803972  0.24825494  1
  V  V4  1  0.75177497  0.75059692  -0.00156742  1
  V  V5  1  0.75030891  0.00082665  0.74919905  1
  V  V6  1  0.74856570  0.37583131  0.62400730  1
  V  V7  1  0.00157438  0.75083854  0.75025434  1
  V  V8  1  0.12608490  0.75192962  0.87483925  1
  V  V9  1  0.74907451  0.87578189  0.62458731  1
  V  V10  1  0.62587351  0.12405288  0.50062482  1
  V  V11  1  0.75018098  0.50187342  0.74972016  1
  V  V12  1  0.36662298  0.49603998  0.36888765  1
  V  V13  1  -0.00063025  0.62391071  0.62579940  1
  V  V14  1  0.38309681  0.74856271  0.13142511  1
  V  V15  1  0.50003363  0.87492377  0.87467263  1
  V  V16  1  0.62581200  0.00014503  0.12448688  1
  V  V17  1  0.24651243  0.62564705  0.37589906  1
  V  V18  1  0.37041290  0.24938650  0.61839601  1
  V  V19  1  0.87725083  0.12556560  0.74905290  1
  V  V20  1  0.62354711  0.62356327  0.00214065  1
  V  V21  1  0.50057218  -0.00007127  -0.00055431  1
  V  V22  1  0.62479147  0.25028506  0.87463222  1
  V  V23  1  0.74999555  0.25027654  -0.00129903  1
  V  V24  1  0.75012121  0.24990675  0.49970123  1
  V  V25  1  -0.00202814  0.87607618  0.37309674  1
  V  V26  1  0.37027223  0.37494264  0.00446007  1
  V  V27  1  0.00122515  0.12548515  0.12467020  1
  V  V28  1  0.12717335  0.62734882  0.49992135  1
  V  V29  1  0.24920100  0.87574531  0.12928872  1
  V  V30  1  0.87498894  0.62467579  0.25077561  1
  V  V31  1  0.87229659  0.74784897  0.62628374  1
  V  V32  1  0.87690795  0.87589461  -0.00034211  1
  V  V33  1  0.49945244  -0.00233222  0.49897138  1
  V  V34  1  0.24958287  0.37106343  0.61958281  1
  V  V35  1  0.37578251  0.62400150  0.75074877  1
  V  V36  1  0.50044421  0.24956246  0.25001171  1
  V  V37  1  0.00036870  0.37565518  0.37410128  1
  V  V38  1  0.00185673  0.00122284  0.00024873  1
  V  V39  1  0.25082984  0.25120660  0.00253602  1
  V  V40  1  0.87574112  0.24967833  0.62480222  1
  V  V41  1  0.62295649  0.50083967  0.62204780  1
  V  V42  1  0.37031444  0.62413453  0.24943033  1
  V  V43  1  0.75100333  0.87620211  0.12509482  1
  V  V44  1  0.12966621  0.12920159  0.49996823  1
  V  V45  1  0.74446438  0.74414769  0.49432893  1
  V  V46  1  0.37630378  -0.00261468  0.37308065  1
  V  V47  1  0.37218830  0.12398365  0.24973823  1
  V  V48  1  0.00028558  0.50004190  0.00085962  1
  V  V49  1  0.13203330  0.25082146  0.37773746  1
  V  V50  1  0.25120994  0.62506797  0.87638565  1
  V  V51  1  0.00323762  0.00024450  0.50101758  1
  V  V52  1  0.24495825  -0.00744384  0.73984205  1
  V  V53  1  0.12550408  0.25056767  0.87528879  1
  V  V54  1  0.00548717  0.12107971  0.62512164  1
  V  V55  1  0.50092892  0.62453393  0.62518853  1
  V  V56  1  0.62440608  0.24991309  0.37446052  1
  V  V57  1  0.13712445  0.49682821  0.12935312  1
  V  V58  1  0.49895297  0.37464899  0.87493484  1
  V  V59  1  0.87602994  0.25072553  0.12427076  1
  V  V60  1  0.75053359  0.37528979  0.12406464  1
  V  V61  1  0.36850559  0.75559964  0.62210681  1
  V  V62  1  0.50020445  0.12512092  0.12425050  1
  V  V63  1  0.12635546  0.75028335  0.37799088  1
  V  V64  1  0.00148500  0.62455136  0.12553204  1
  V  V65  1  0.62592639  0.12587001  -0.00047651  1
  V  V66  1  0.37352404  0.12405144  0.75114609  1
  V  V67  1  0.87783567  0.75074808  0.12432303  1
  V  V68  1  0.87339396  0.50186882  0.37505924  1
  V  V69  1  -0.00104684  0.50075818  0.50026705  1
  V  V70  1  0.87699764  0.00078815  0.87433618  1
  V  V71  1  0.24989625  0.49859317  0.75005070  1
  V  V72  1  0.12566463  0.12537584  0.00119406  1
  V  V73  1  0.00144821  0.37550971  0.87348534  1
  V  V74  1  0.37583732  0.49927298  0.87627304  1
  V  V75  1  0.61921093  0.87002402  0.25570012  1
  V  V76  1  0.62594408  0.74973804  0.87346079  1
  V  V77  1  0.25115513  0.74990523  0.00150368  1
  V  V78  1  0.75057175  0.00109225  0.25072334  1
  V  V79  1  0.00076489  0.25118927  0.24979330  1
  V  V80  1  0.87625426  0.37570634  -0.00089052  1
  V  V81  1  0.87471869  0.37572060  0.49967076  1
  V  V82  1  0.49974690  0.24971702  0.74997736  1
  V  V83  1  0.37196219  0.25202826  0.12419317  1
  V  V84  1  0.87516253  0.12598766  0.25031484  1
  V  V85  1  0.13635078  0.37839362  0.24668745  1
  V  V86  1  0.00094476  0.74987495  0.25125430  1
  V  V87  1  0.75146389  0.12521050  0.37480232  1
  V  V88  1  0.12569080  0.49911116  0.62505024  1
  V  V89  1  0.00419498  0.87504186  0.87369259  1
  V  V90  1  0.49969548  0.12476476  0.62531477  1
  V  V91  1  0.49827013  0.37166605  0.37504680  1
  V  V92  1  0.25059198  0.12328250  0.87501392  1
  Zn  Zn93  1  0.12665185  0.87718512  0.73091211  1
  Zn  Zn94  1  0.00166383  0.25010788  0.74875219  1
  Zn  Zn95  1  0.50216433  0.62217959  0.13008208  1
  Zn  Zn96  1  0.36838886  0.87432425  0.49788570  1
  Zn  Zn97  1  0.12621668  0.00077811  0.12813386  1
  Zn  Zn98  1  0.24660140  0.00121090  0.25170252  1
  Zn  Zn99  1  0.54891906  0.70829464  0.29635630  1
  Zn  Zn100  1  0.87475036  0.50260186  0.87449320  1
  Zn  Zn101  1  0.87542229  0.62454673  0.75363020  1
  Zn  Zn102  1  0.58200557  0.67328134  0.45598512  1
  Zn  Zn103  1  0.20884810  0.81771884  0.56204887  1
  Zn  Zn104  1  0.49996214  0.49983269  0.00262788  1
  Zn  Zn105  1  0.75147734  0.12636848  0.87429276  1
  Zn  Zn106  1  0.62389100  0.87662178  0.75104105  1
  Zn  Zn107  1  0.49998597  0.75092441  0.74899710  1
  Zn  Zn108  1  0.62344878  0.00015534  0.62621036  1
  Zn  Zn109  1  0.73762141  0.62581196  0.37181815  1
  Zn  Zn110  1  0.62245392  0.49701952  0.12277658  1
  Zn  Zn111  1  0.37320915  -0.00107587  0.87541923  1
  Zn  Zn112  1  0.75215910  0.62400247  0.87464474  1
  Zn  Zn113  1  0.36946551  0.36881232  0.49625368  1
  Zn  Zn114  1  0.50123495  0.86005189  0.37980855  1
  Zn  Zn115  1  0.87522595  0.00151262  0.37510082  1
  Zn  Zn116  1  0.62408321  0.37262392  0.24605378  1
  Zn  Zn117  1  0.62427490  0.37480928  0.74985497  1
  Zn  Zn118  1  0.12535677  0.37288625  0.74870036  1
  Zn  Zn119  1  0.25388699  0.12816429  0.38237871  1
  Zn  Zn120  1  0.87180229  0.87797203  0.49728017  1
  Zn  Zn121  1  0.12492820  0.87742685  0.25042574  1
  Zn  Zn122  1  0.18719547  0.19165318  0.18723225  1
  Zn  Zn123  1  0.18760811  0.18641601  0.69014660  1
  Zn  Zn124  1  0.18899262  0.68708912  0.19089777  1
  Zn  Zn125  1  0.18542678  0.68453231  0.69153634  1
  Zn  Zn126  1  0.68806456  0.18840290  0.18652726  1
  Zn  Zn127  1  0.68678970  0.18736157  0.68721989  1
  Zn  Zn128  1  0.69360949  0.68605861  0.18262560  1
  Zn  Zn129  1  0.68485595  0.68615671  0.68675284  1
  Zn  Zn130  1  0.31293383  0.31072740  0.31055177  1
  Zn  Zn131  1  0.31234406  0.31205715  0.81118332  1
  Zn  Zn132  1  0.31246304  0.81092280  0.31524250  1
  Zn  Zn133  1  0.31417809  0.81116983  0.81053368  1
  Zn  Zn134  1  0.81317036  0.31287313  0.31264536  1
  Zn  Zn135  1  0.81303422  0.31405466  0.81129977  1
  Zn  Zn136  1  0.81185654  0.81384347  0.31076650  1
  Zn  Zn137  1  0.81427605  0.81431351  0.81241598  1
  Zn  Zn138  1  0.18548786  0.43788345  0.43757682  1
  Zn  Zn139  1  0.18723410  0.43837293  0.93943645  1
  Zn  Zn140  1  0.18633668  0.94402132  0.43557151  1
  Zn  Zn141  1  0.18892167  0.93877040  0.93693098  1
  Zn  Zn142  1  0.68478648  0.43713856  0.43555820  1
  Zn  Zn143  1  0.68745060  0.43689237  0.93551747  1
  Zn  Zn144  1  0.68737686  0.93685330  0.43736322  1
  Zn  Zn145  1  0.68860863  0.93815983  0.93676721  1
  Zn  Zn146  1  0.31278728  0.06161860  0.06185033  1
  Zn  Zn147  1  0.31324989  0.06053458  0.56303797  1
  Zn  Zn148  1  0.31441983  0.56281510  0.06229837  1
  Zn  Zn149  1  0.31295515  0.56123595  0.56074845  1
  Zn  Zn150  1  0.81324958  0.06341351  0.06272061  1
  Zn  Zn151  1  0.81726870  0.06265407  0.56162693  1
  Zn  Zn152  1  0.81255024  0.56313640  0.06152866  1
  Zn  Zn153  1  0.81044973  0.56417829  0.56241775  1
  Zn  Zn154  1  0.43847403  0.43824843  0.18595295  1
  Zn  Zn155  1  0.43501773  0.43488195  0.68816961  1
  Zn  Zn156  1  0.43875768  0.93682278  0.18716889  1
  Zn  Zn157  1  0.43388969  0.93906380  0.68998488  1
  Zn  Zn158  1  0.94145289  0.43758986  0.18705386  1
  Zn  Zn159  1  0.93604727  0.43734336  0.68813853  1
  Zn  Zn160  1  0.93802644  0.93973631  0.18773463  1
  Zn  Zn161  1  0.93822024  0.93663557  0.68674023  1
  Zn  Zn162  1  0.06426716  0.06248674  0.31298791  1
  Zn  Zn163  1  0.06622254  0.06147602  0.81192539  1
  Zn  Zn164  1  0.06269728  0.56072356  0.31100381  1
  Zn  Zn165  1  0.06405922  0.56302314  0.81195850  1
  Zn  Zn166  1  0.56294636  0.06096290  0.31255885  1
  Zn  Zn167  1  0.56325706  0.06346817  0.81316497  1
  Zn  Zn168  1  0.55898318  0.54760186  0.30959161  1
  Zn  Zn169  1  0.56301390  0.56087269  0.81237856  1
  Zn  Zn170  1  0.43939194  0.18394752  0.43751479  1
  Zn  Zn171  1  0.43721845  0.18812895  0.93667237  1
  Zn  Zn172  1  0.41949115  0.68415416  0.44048274  1
  Zn  Zn173  1  0.43897580  0.68851028  0.94018693  1
  Zn  Zn174  1  0.94036931  0.18878190  0.43702509  1
  Zn  Zn175  1  0.93810844  0.18824144  0.93648519  1
  Zn  Zn176  1  0.93422252  0.68740155  0.43809053  1
  Zn  Zn177  1  0.93820709  0.68628225  0.93562378  1
  Zn  Zn178  1  0.06488375  0.31419313  0.06309275  1
  Zn  Zn179  1  0.06215008  0.31128271  0.56248975  1
  Zn  Zn180  1  0.06440201  0.81303628  0.06177210  1
  Zn  Zn181  1  0.04938956  0.81066659  0.55924160  1
  Zn  Zn182  1  0.56061728  0.31333613  0.06174207  1
  Zn  Zn183  1  0.56096527  0.31305828  0.56239022  1
  Zn  Zn184  1  0.56488423  0.81247090  0.06320109  1
  Zn  Zn185  1  0.55963324  0.81607862  0.56767191  1
  O  O186  1  0.11846334  0.12637714  0.11857981  1
  O  O187  1  0.11254795  0.13530900  0.61567843  1
  O  O188  1  0.12043863  0.61859007  0.12198636  1
  O  O189  1  0.11960328  0.61924168  0.61964286  1
  O  O190  1  0.61972050  0.12016414  0.11968040  1
  O  O191  1  0.61823910  0.12318511  0.61817615  1
  O  O192  1  0.62408640  0.62616354  0.11392477  1
  O  O193  1  0.60886363  0.61930498  0.62832617  1
  O  O194  1  0.37755518  0.37997189  0.37579544  1
  O  O195  1  0.37978969  0.37906489  0.88233543  1
  O  O196  1  0.38399113  0.88594657  0.36990737  1
  O  O197  1  0.38663516  0.87160214  0.88284223  1
  O  O198  1  0.88027091  0.38068152  0.38086314  1
  O  O199  1  0.88585752  0.37620385  0.88068193  1
  O  O200  1  0.88652274  0.87582242  0.37519394  1
  O  O201  1  0.88330319  0.88066422  0.88028747  1
  O  O202  1  0.26498856  0.00666030  0.37094336  1
  O  O203  1  0.25345490  0.00756222  0.86975198  1
  O  O204  1  0.25976902  0.50560793  0.37881421  1
  O  O205  1  0.25522531  0.50583089  0.87089048  1
  O  O206  1  0.75209322  0.00735919  0.36961039  1
  O  O207  1  0.75741463  -0.00012859  0.86497983  1
  O  O208  1  0.75473556  0.50034373  0.36559139  1
  O  O209  1  0.75062740  0.49981060  0.86194139  1
  O  O210  1  0.23571580  0.50435733  0.12143464  1
  O  O211  1  0.24611833  0.49300378  0.63029718  1
  O  O212  1  0.25200211  0.98725976  0.12660382  1
  O  O213  1  0.25644292  1.00025468  0.64092804  1
  O  O214  1  0.75197490  0.49389216  0.13417781  1
  O  O215  1  0.74318158  0.49601366  0.62852453  1
  O  O216  1  0.74548645  0.99562478  0.12999781  1
  O  O217  1  0.75326573  0.99183349  0.63191190  1
  O  O218  1  0.00526379  0.36887585  0.25673084  1
  O  O219  1  0.00165164  0.37431311  0.76140046  1
  O  O220  1  -0.00080089  0.86877248  0.25747695  1
  O  O221  1  0.00344175  0.86965239  0.75570438  1
  O  O222  1  0.49987577  0.36684353  0.25696871  1
  O  O223  1  0.50014682  0.36793604  0.75687198  1
  O  O224  1  0.51640019  0.87754198  0.24960827  1
  O  O225  1  0.50204745  0.87513012  0.76249396  1
  O  O226  1  0.49209251  0.12939622  0.24447615  1
  O  O227  1  0.49433955  0.12884141  0.74486441  1
  O  O228  1  0.48686546  0.62300973  0.25015983  1
  O  O229  1  0.49318965  0.62355632  0.74141375  1
  O  O230  1  0.99509234  0.13172075  0.24475723  1
  O  O231  1  0.99608877  0.12325948  0.74035754  1
  O  O232  1  0.99406308  0.63033216  0.24530564  1
  O  O233  1  0.99951518  0.63196457  0.74293481  1
  O  O234  1  0.37075777  0.25651362  0.00427868  1
  O  O235  1  0.37931618  0.24729333  0.51421068  1
  O  O236  1  0.36964801  0.75385737  0.00989966  1
  O  O237  1  0.37501244  0.75103154  0.51874253  1
  O  O238  1  0.87008592  0.25524983  0.00496162  1
  O  O239  1  0.86963378  0.25591091  0.50414330  1
  O  O240  1  0.87239290  0.75671250  0.00480650  1
  O  O241  1  0.86461068  0.75198447  0.51142326  1
  O  O242  1  0.11636671  0.24162935  0.48793229  1
  O  O243  1  0.13109325  0.24538622  0.99543658  1
  O  O244  1  0.12090171  0.74133970  0.49285729  1
  O  O245  1  0.13126701  0.74306852  0.99574499  1
  O  O246  1  0.63020308  0.24408009  0.49467479  1
  O  O247  1  0.63005960  0.24457749  0.99498085  1
  O  O248  1  0.64028948  0.75515126  0.50896501  1
  O  O249  1  0.63107379  0.74452624  0.99262427  1
  O  O250  1  0.49334796  0.24364267  0.12994188  1
  O  O251  1  0.49209789  0.24485465  0.63047585  1
  O  O252  1  0.48632082  0.74885639  0.12117876  1
  O  O253  1  0.49206295  0.74021984  0.62722133  1
  O  O254  1  0.99489324  0.24526021  0.12931049  1
  O  O255  1  0.99284182  0.24111940  0.62551533  1
  O  O256  1  0.99662819  0.74489567  0.13006287  1
  O  O257  1  0.98815986  0.74324370  0.62967233  1
  O  O258  1  0.00828970  0.25654672  0.36891877  1
  O  O259  1  0.00607815  0.26032607  0.87560019  1
  O  O260  1  0.00349751  0.75700259  0.37154576  1
  O  O261  1  0.00574174  0.75538303  0.86986829  1
  O  O262  1  0.50452974  0.25252589  0.37028839  1
  O  O263  1  0.50481442  0.25446426  0.86916052  1
  O  O264  1  0.50271615  0.74580110  0.39264558  1
  O  O265  1  0.50892560  0.75881649  0.87587763  1
  O  O266  1  0.23345444  0.11778541  0.50210317  1
  O  O267  1  0.24572750  0.13021898  0.99482558  1
  O  O268  1  0.24234919  0.61757732  0.48698420  1
  O  O269  1  0.24543940  0.63064723  0.99524447  1
  O  O270  1  0.74621795  0.13029408  0.49564287  1
  O  O271  1  0.74406335  0.13180634  0.99895169  1
  O  O272  1  0.74898363  0.63988039  0.49868223  1
  O  O273  1  0.74171073  0.63278125  0.99874670  1
  O  O274  1  0.26289919  0.36744948  -0.00787476  1
  O  O275  1  0.25109733  0.38055459  0.51515285  1
  O  O276  1  0.25678502  0.86943405  0.00856000  1
  O  O277  1  0.25730631  0.87279356  0.48173629  1
  O  O278  1  0.75666797  0.36976215  0.00406674  1
  O  O279  1  0.75491741  0.37010069  0.50393559  1
  O  O280  1  0.75711967  0.87137962  0.00508160  1
  O  O281  1  0.75148914  0.86799156  0.50915188  1
  O  O282  1  0.11771958  0.49019999  0.24108042  1
  O  O283  1  0.13221939  0.49898586  0.74234558  1
  O  O284  1  0.12938041  0.99680648  0.24639336  1
  O  O285  1  0.14029448  0.99803782  0.75239925  1
  O  O286  1  0.63826147  0.49390893  0.24596370  1
  O  O287  1  0.63332631  0.49748409  0.74220232  1
  O  O288  1  0.63071928  0.99231540  0.24358154  1
  O  O289  1  0.63811712  0.99978917  0.74860823  1
  O  O290  1  0.37940421  0.00952388  0.25678495  1
  O  O291  1  0.36533909  0.00624035  0.75457159  1
  O  O292  1  0.37955688  0.50726929  0.26143059  1
  O  O293  1  0.36940848  0.50459518  0.75647709  1
  O  O294  1  0.86822169  0.00830137  0.25046010  1
  O  O295  1  0.86841456  0.00465244  0.75408305  1
  O  O296  1  0.86850695  0.50399204  0.25459579  1
  O  O297  1  0.86280620  0.50194245  0.74882741  1
  O  O298  1  0.11963789  0.37002545  0.36894678  1
  O  O299  1  0.11621971  0.36992368  0.87636657  1
  O  O300  1  0.11139096  0.86948865  0.37423944  1
  O  O301  1  0.11897081  0.86697982  0.87839361  1
  O  O302  1  0.61700082  0.36665592  0.37260191  1
  O  O303  1  0.61698043  0.36731130  0.87458470  1
  O  O304  1  0.62392372  0.87847342  0.35911187  1
  O  O305  1  0.61676822  0.86651289  0.87761819  1
  O  O306  1  0.38166751  0.12931151  0.13155252  1
  O  O307  1  0.37945699  0.13205772  0.63043058  1
  O  O308  1  0.37291668  0.63173553  0.13397788  1
  O  O309  1  0.38340988  0.62978447  0.62975328  1
  O  O310  1  0.88077568  0.13190063  0.13008189  1
  O  O311  1  0.88485760  0.13064605  0.62880855  1
  O  O312  1  0.88172191  0.63147258  0.12960504  1
  O  O313  1  0.87935849  0.63411873  0.62607768  1
  O  O314  1  0.25982805  0.24389203  0.11532987  1
  O  O315  1  0.25958940  0.25871305  0.63322309  1
  O  O316  1  0.25866313  0.75694212  0.12145543  1
  O  O317  1  0.26453711  0.74178433  0.63000143  1
  O  O318  1  0.75677214  0.25497828  0.11903802  1
  O  O319  1  0.75515792  0.25494746  0.61858508  1
  O  O320  1  0.75927407  0.75711999  0.11794739  1
  O  O321  1  0.75513387  0.75626269  0.61996765  1
  O  O322  1  0.23627365  0.24801596  0.37204151  1
  O  O323  1  0.24521496  0.24353165  0.88062313  1
  O  O324  1  0.24289247  0.73492995  0.37011516  1
  O  O325  1  0.24708329  0.74448424  0.88134782  1
  O  O326  1  0.74493005  0.24550147  0.38058536  1
  O  O327  1  0.74417430  0.24970948  0.88083448  1
  O  O328  1  0.75534549  0.75196200  0.39191963  1
  O  O329  1  0.74089340  0.75286459  0.87989552  1
  O  O330  1  0.00522663  0.12088772  0.00495736  1
  O  O331  1  0.00565314  0.11951195  0.50627806  1
  O  O332  1  0.00704000  0.62079305  0.00572892  1
  O  O333  1  0.00458520  0.61956911  0.50589719  1
  O  O334  1  0.50562995  0.12032029  0.00490083  1
  O  O335  1  0.50610450  0.11640643  0.50546706  1
  O  O336  1  0.51209736  0.62476153  0.00198456  1
  O  O337  1  0.49515348  0.61513564  0.50858414  1
  O  O338  1  0.49400421  0.38110808  0.49404816  1
  O  O339  1  0.48805345  0.37393758  0.99234745  1
  O  O340  1  0.49665634  0.88735762  0.50023980  1
  O  O341  1  0.49708698  0.87969184  0.99361479  1
  O  O342  1  0.99421466  0.38132392  0.49471131  1
  O  O343  1  0.99603546  0.37967007  0.99222738  1
  O  O344  1  0.99522494  0.88386577  0.49005610  1
  O  O345  1  0.99536466  0.88062760  0.99508567  1
  O  O346  1  0.48937650  0.49137752  0.38183027  1
  O  O347  1  0.49311166  0.49318376  0.87719734  1
  O  O348  1  0.49257293  1.00223605  0.38469084  1
  O  O349  1  0.50068998  0.99010845  0.88095105  1
  O  O350  1  0.99350112  0.49545938  0.38089126  1
  O  O351  1  1.00202082  0.49096469  0.88152870  1
  O  O352  1  0.99745290  0.99192629  0.38026901  1
  O  O353  1  0.99611433  0.99529817  0.88029010  1
  O  O354  1  0.00041905  0.00768686  0.11758096  1
  O  O355  1  -0.00595662  0.01077789  0.61500119  1
  O  O356  1  0.00597830  0.50732743  0.11881510  1
  O  O357  1  0.00464178  0.50409842  0.61983859  1
  O  O358  1  0.50604384  0.00536813  0.11881179  1
  O  O359  1  0.49817618  0.00545136  0.61600133  1
  O  O360  1  0.50457558  0.50388245  0.12050309  1
  O  O361  1  0.50018847  0.50475921  0.61759571  1
  O  O362  1  0.23517486  0.37104666  0.25233875  1
  O  O363  1  0.24914635  0.38151160  0.74021719  1
  O  O364  1  0.25019109  0.87499134  0.23978463  1
  O  O365  1  0.25027571  0.88916526  0.75671353  1
  O  O366  1  0.75222764  0.38327936  0.24369891  1
  O  O367  1  0.74873213  0.38398005  0.74154167  1
  O  O368  1  0.74231419  0.88095306  0.24432621  1
  O  O369  1  0.75140038  0.88453259  0.74179433  1
  O  O370  1  0.26501573  0.12563956  0.24881004  1
  O  O371  1  0.25399538  0.11531507  0.75541156  1
  O  O372  1  0.25959814  0.62313681  0.26027884  1
  O  O373  1  0.25588943  0.61806325  0.75769907  1
  O  O374  1  0.75504887  0.12100990  0.25462255  1
  O  O375  1  0.75752630  0.11525918  0.74836030  1
  O  O376  1  0.75725521  0.61488453  0.24864624  1
  O  O377  1  0.75013383  0.61362934  0.74888923  1
  O  O378  1  0.37566521  0.11887107  0.36595773  1
  O  O379  1  0.36919974  0.12478948  0.86854354  1
  O  O380  1  0.36464795  0.61602749  0.36858924  1
  O  O381  1  0.37059182  0.62044193  0.87220951  1
  O  O382  1  0.86898188  0.12770862  0.36755453  1
  O  O383  1  0.87473897  0.11863004  0.86794928  1
  O  O384  1  0.87127140  0.61879981  0.36824636  1
  O  O385  1  0.87065683  0.62146188  0.87159438  1
  O  O386  1  0.11783852  0.38477198  0.13474978  1
  O  O387  1  0.13202946  0.37965070  0.62580205  1
  O  O388  1  0.13746926  0.87467040  0.12600564  1
  O  O389  1  0.12590059  0.86249746  0.62012299  1
  O  O390  1  0.63478959  0.37480834  0.12535818  1
  O  O391  1  0.63095906  0.38164461  0.62523016  1
  O  O392  1  0.63141062  0.88127032  0.13146187  1
  O  O393  1  0.63687806  0.87828495  0.63016144  1
  O  O394  1  0.11921852  0.25757163  0.25670046  1
  O  O395  1  0.12201624  0.25192851  0.76018184  1
  O  O396  1  0.11721045  0.75065627  0.25870277  1
  O  O397  1  0.11955596  0.75110415  0.75855845  1
  O  O398  1  0.61829264  0.24903319  0.25645670  1
  O  O399  1  0.61830304  0.25075981  0.75589026  1
  O  O400  1  0.63057005  0.76540062  0.24135274  1
  O  O401  1  0.62331485  0.75254904  0.76187516  1
  O  O402  1  0.38067398  0.24194537  0.24519113  1
  O  O403  1  0.38049186  0.24355388  0.74163728  1
  O  O404  1  0.37226218  0.73801604  0.24299368  1
  O  O405  1  0.37812729  0.74195332  0.74118265  1
  O  O406  1  0.88040861  0.24580218  0.24389535  1
  O  O407  1  0.87660777  0.24335236  0.74293613  1
  O  O408  1  0.87976172  0.74485071  0.24357543  1
  O  O409  1  0.87967347  0.74965724  0.74017655  1
  O  O410  1  0.38470497  0.49838603  0.48957249  1
  O  O411  1  0.37421434  0.49105568  0.99452822  1
  O  O412  1  0.38397469  1.00260614  0.49036488  1
  O  O413  1  0.38335466  0.99240189  0.99884854  1
  O  O414  1  0.87868303  0.49539834  0.49554258  1
  O  O415  1  0.88203787  0.49319593  0.99918689  1
  O  O416  1  0.88761021  0.99986808  0.49522503  1
  O  O417  1  0.88087752  0.99542962  0.99446015  1
  O  O418  1  0.11908738  0.00786259  0.00245637  1
  O  O419  1  0.10997157  0.01313715  0.49028594  1
  O  O420  1  0.11999687  0.50498176  0.00861880  1
  O  O421  1  0.11723246  0.50590778  0.50541504  1
  O  O422  1  0.62111089  0.00547399  0.00505762  1
  O  O423  1  0.61591704  0.00525072  0.50076972  1
  O  O424  1  0.62652954  0.51221685  -0.00074256  1
  O  O425  1  0.60834635  0.49631502  0.50304063  1
  O  O426  1  0.38064511  0.36800662  0.11291383  1
  O  O427  1  0.36698290  0.36588147  0.62369828  1
  O  O428  1  0.36967104  0.86692374  0.12293777  1
  O  O429  1  0.37959227  0.85790415  0.62752145  1
  O  O430  1  0.87178560  0.36916703  0.11897498  1
  O  O431  1  0.86953148  0.36994538  0.61800082  1
  O  O432  1  0.87117083  0.87056195  0.11949838  1
  O  O433  1  0.86593873  0.86525970  0.62406474  1
  O  O434  1  0.12531170  0.13535328  0.38168238  1
  O  O435  1  0.12968049  0.13137099  0.88232981  1
  O  O436  1  0.12992400  0.62770424  0.37877945  1
  O  O437  1  0.13140352  0.63057462  0.88209230  1
  O  O438  1  0.63114022  0.13034919  0.38032343  1
  O  O439  1  0.62726399  0.13182600  0.88210890  1
  O  O440  1  0.62235086  0.62890065  0.36082369  1
  O  O441  1  0.62580030  0.63554296  0.88243957  1
