# generated using pymatgen
data_V93Zn93O256
_symmetry_space_group_name_H-M   'P 1'
_cell_length_a   17.05689253
_cell_length_b   17.05761722
_cell_length_c   17.05271302
_cell_angle_alpha   90.02470593
_cell_angle_beta   89.95289218
_cell_angle_gamma   89.94274992
_symmetry_Int_Tables_number   1
_chemical_formula_structural   V93Zn93O256
_chemical_formula_sum   'V93 Zn93 O256'
_cell_volume   4961.48127856
_cell_formula_units_Z   1
loop_
 _symmetry_equiv_pos_site_id
 _symmetry_equiv_pos_as_xyz
  1  'x, y, z'
loop_
 _atom_site_type_symbol
 _atom_site_label
 _atom_site_symmetry_multiplicity
 _atom_site_fract_x
 _atom_site_fract_y
 _atom_site_fract_z
 _atom_site_occupancy
  V  V0  1  0.37465959  0.50086547  0.37468889  1
  V  V1  1  0.87245882  -0.00283216  0.37488008  1
  V  V2  1  0.12358877  0.49921104  0.62535771  1
  V  V3  1  0.50030413  0.25100238  0.24909277  1
  V  V4  1  0.37435006  0.75034501  0.62481147  1
  V  V5  1  0.50191728  0.87551056  0.87274246  1
  V  V6  1  0.75389059  0.62561965  0.87006152  1
  V  V7  1  0.50091653  0.75122118  0.74923904  1
  V  V8  1  0.12454847  0.37464318  0.75107220  1
  V  V9  1  0.62493144  0.12611611  0.00092188  1
  V  V10  1  0.12201352  0.12653613  0.00693388  1
  V  V11  1  0.88397263  0.24633989  0.12737130  1
  V  V12  1  0.62497651  0.50053877  0.12563250  1
  V  V13  1  0.50054313  0.00077754  0.49994988  1
  V  V14  1  0.25054574  0.00099713  0.74851752  1
  V  V15  1  -0.00073011  0.12374435  0.62703286  1
  V  V16  1  0.87434633  0.37504760  0.50154668  1
  V  V17  1  0.62365841  0.49479345  0.63048980  1
  V  V18  1  0.74718138  0.49474843  0.75205957  1
  V  V19  1  0.86961408  0.62334716  0.25475795  1
  V  V20  1  0.49779570  0.62728469  0.12447053  1
  V  V21  1  0.36884615  0.87463461  0.00506668  1
  V  V22  1  0.87563050  0.37511343  0.00110801  1
  V  V23  1  0.62640416  0.75012819  0.87289966  1
  V  V24  1  0.12314207  0.36856287  0.25602101  1
  V  V25  1  0.75188229  0.12541941  0.87332757  1
  V  V26  1  0.87449514  0.24823538  0.62638539  1
  V  V27  1  0.75048731  0.75019440  -0.00174405  1
  V  V28  1  0.24614019  0.12784460  0.37126187  1
  V  V29  1  0.74714183  0.37339783  0.62877394  1
  V  V30  1  0.88141515  0.12458782  0.24606242  1
  V  V31  1  0.13115495  0.87557327  0.24372975  1
  V  V32  1  0.24800626  0.24907374  0.49745464  1
  V  V33  1  0.24922843  0.62373874  0.37544625  1
  V  V34  1  0.00077149  0.37400888  0.87514479  1
  V  V35  1  0.12429402  0.87520110  0.75051472  1
  V  V36  1  0.50008533  0.50109963  0.00002853  1
  V  V37  1  0.37521879  0.12629425  0.24839346  1
  V  V38  1  0.75140241  0.37513227  0.12706423  1
  V  V39  1  0.62553799  0.37459964  0.25115523  1
  V  V40  1  0.00106242  0.00393270  0.00806135  1
  V  V41  1  0.37419456  0.37481788  0.49922931  1
  V  V42  1  0.24932902  0.12732951  0.87431819  1
  V  V43  1  0.49983122  0.75097327  0.24934477  1
  V  V44  1  0.37593816  0.00161799  0.87318655  1
  V  V45  1  0.24929712  0.37496881  0.62462321  1
  V  V46  1  0.75066474  0.25031641  0.00074590  1
  V  V47  1  0.49898992  0.87521527  0.37421137  1
  V  V48  1  -0.00160595  0.62313195  0.12668759  1
  V  V49  1  0.74789089  0.87638883  0.12456722  1
  V  V50  1  0.24929284  0.50039271  0.25107567  1
  V  V51  1  0.50021924  0.37503053  0.37396785  1
  V  V52  1  0.37540933  0.25045954  0.62466999  1
  V  V53  1  0.86967565  0.50071163  0.37809928  1
  V  V54  1  0.12358836  0.12830137  0.49513125  1
  V  V55  1  -0.00154873  0.74663578  0.25148046  1
  V  V56  1  0.37658936  0.25070549  0.12342384  1
  V  V57  1  0.37633526  0.50133898  0.87538246  1
  V  V58  1  0.37597836  0.37684123  -0.00174252  1
  V  V59  1  0.25022297  0.50119379  0.74981659  1
  V  V60  1  0.37503495  0.00103319  0.37323479  1
  V  V61  1  0.24957172  0.74973285  0.50111648  1
  V  V62  1  0.37456377  0.62640558  0.75055325  1
  V  V63  1  0.75007315  0.87205687  0.62417643  1
  V  V64  1  0.50075041  0.50002893  0.50079949  1
  V  V65  1  0.12352434  0.62321288  0.50079396  1
  V  V66  1  0.50157286  0.00198054  -0.00109287  1
  V  V67  1  0.74946089  0.24878786  0.50050431  1
  V  V68  1  0.12429065  0.50067213  0.12620687  1
  V  V69  1  0.12493240  0.62612329  0.00044182  1
  V  V70  1  0.87427895  0.74472359  0.62841152  1
  V  V71  1  0.74989427  0.50134107  0.25312467  1
  V  V72  1  0.24930861  0.87438705  0.62442435  1
  V  V73  1  -0.00257232  0.62394732  0.62948952  1
  V  V74  1  0.87521679  0.50334697  0.87146619  1
  V  V75  1  -0.00124297  0.87411762  0.37663060  1
  V  V76  1  0.87618791  0.87559838  0.00039777  1
  V  V77  1  0.50440023  0.25744213  0.74936602  1
  V  V78  1  0.12410203  0.74881802  0.37657008  1
  V  V79  1  0.24909454  0.62752290  0.87708709  1
  V  V80  1  0.25025208  0.25099471  -0.00223889  1
  V  V81  1  0.62983028  0.74383740  0.37854779  1
  V  V82  1  0.37528631  0.12636629  0.74916349  1
  V  V83  1  0.50053578  0.12473436  0.62332454  1
  V  V84  1  0.12497181  0.00026315  0.62427392  1
  V  V85  1  0.25013879  0.37674213  0.12440879  1
  V  V86  1  -0.00238955  0.49797208  0.50184567  1
  V  V87  1  0.00044495  0.87584033  0.87608224  1
  V  V88  1  0.75128007  0.00050288  0.74982299  1
  V  V89  1  -0.00260177  0.74575608  0.75211136  1
  V  V90  1  0.50127433  0.62473812  0.62413430  1
  V  V91  1  0.74918922  0.12486865  0.37562916  1
  V  V92  1  0.62583427  0.25860621  0.87078904  1
  Zn  Zn93  1  0.62500574  0.87589990  0.74832727  1
  Zn  Zn94  1  0.87220403  0.74749902  0.12615055  1
  Zn  Zn95  1  0.87688936  0.12560395  0.75195654  1
  Zn  Zn96  1  0.75653154  0.74293082  0.49431202  1
  Zn  Zn97  1  0.62583394  0.87783637  0.25019851  1
  Zn  Zn98  1  0.12658051  0.75123865  0.87592980  1
  Zn  Zn99  1  0.87405528  0.87274526  0.50059680  1
  Zn  Zn100  1  0.62601572  -0.00021432  0.62396812  1
  Zn  Zn101  1  0.62504812  0.12599061  0.50009064  1
  Zn  Zn102  1  0.50460776  0.38069738  0.87093687  1
  Zn  Zn103  1  0.25684287  -0.00581950  0.24135764  1
  Zn  Zn104  1  0.37219393  0.62658209  0.24957032  1
  Zn  Zn105  1  0.50091944  0.12618866  0.12554656  1
  Zn  Zn106  1  0.62533481  0.00046620  0.12698040  1
  Zn  Zn107  1  0.37300918  0.87495699  0.49880685  1
  Zn  Zn108  1  0.00367374  0.36605265  0.37878859  1
  Zn  Zn109  1  0.63267439  0.61899493  0.49635133  1
  Zn  Zn110  1  0.62629696  0.62523309  -0.00050573  1
  Zn  Zn111  1  0.12468202  0.24971778  0.87415073  1
  Zn  Zn112  1  0.00891304  0.24296253  0.25818324  1
  Zn  Zn113  1  -0.00046561  -0.00148098  0.50085208  1
  Zn  Zn114  1  0.74652131  0.00030353  0.24829277  1
  Zn  Zn115  1  0.62500562  0.24946105  0.37511157  1
  Zn  Zn116  1  0.87711082  0.00266479  0.87596482  1
  Zn  Zn117  1  -0.00168796  0.50092056  0.00098847  1
  Zn  Zn118  1  0.00029628  0.24887348  0.75050955  1
  Zn  Zn119  1  0.36749442  0.75751054  0.13060612  1
  Zn  Zn120  1  0.24461134  0.75690881  0.00664267  1
  Zn  Zn121  1  0.13128559  -0.00194820  0.12324641  1
  Zn  Zn122  1  0.19098913  0.18804974  0.18477595  1
  Zn  Zn123  1  0.18552548  0.18909750  0.68661213  1
  Zn  Zn124  1  0.18882559  0.69011982  0.18600300  1
  Zn  Zn125  1  0.18472149  0.68759948  0.68829348  1
  Zn  Zn126  1  0.69211572  0.18871060  0.18919268  1
  Zn  Zn127  1  0.68568511  0.18466192  0.68643481  1
  Zn  Zn128  1  0.68612258  0.68901949  0.18763511  1
  Zn  Zn129  1  0.68752383  0.68293545  0.68768687  1
  Zn  Zn130  1  0.31128626  0.31215689  0.31159020  1
  Zn  Zn131  1  0.31455993  0.31390886  0.81259502  1
  Zn  Zn132  1  0.31362796  0.81062645  0.31491409  1
  Zn  Zn133  1  0.31208501  0.81296112  0.81651127  1
  Zn  Zn134  1  0.81703615  0.31146717  0.31387626  1
  Zn  Zn135  1  0.81460920  0.31221718  0.81166019  1
  Zn  Zn136  1  0.81117751  0.81207385  0.30847326  1
  Zn  Zn137  1  0.81504623  0.81534658  0.81221521  1
  Zn  Zn138  1  0.18703427  0.43729328  0.43743254  1
  Zn  Zn139  1  0.18785355  0.44082654  0.93793400  1
  Zn  Zn140  1  0.18773878  0.94016444  0.43491920  1
  Zn  Zn141  1  0.18547435  0.94206606  0.93510966  1
  Zn  Zn142  1  0.68758131  0.43653945  0.43984625  1
  Zn  Zn143  1  0.68877654  0.43891241  0.94127158  1
  Zn  Zn144  1  0.68525595  0.93185618  0.43840039  1
  Zn  Zn145  1  0.68852708  0.93728196  0.93555195  1
  Zn  Zn146  1  0.30876257  0.06238134  0.06471881  1
  Zn  Zn147  1  0.31291369  0.06311549  0.56041281  1
  Zn  Zn148  1  0.31170762  0.56527321  0.06347313  1
  Zn  Zn149  1  0.31277716  0.56309902  0.56241878  1
  Zn  Zn150  1  0.81352591  0.06186853  0.06184164  1
  Zn  Zn151  1  0.81403532  0.05979436  0.56107827  1
  Zn  Zn152  1  0.81220267  0.56296624  0.06174554  1
  Zn  Zn153  1  0.80923602  0.56526440  0.56421972  1
  Zn  Zn154  1  0.43677877  0.43863194  0.18727560  1
  Zn  Zn155  1  0.43591791  0.43808500  0.68692653  1
  Zn  Zn156  1  0.44053805  0.94035118  0.18634717  1
  Zn  Zn157  1  0.43640124  0.93675281  0.68548104  1
  Zn  Zn158  1  0.94006499  0.43583722  0.18971041  1
  Zn  Zn159  1  0.93459626  0.43640102  0.68976130  1
  Zn  Zn160  1  0.93704461  0.93635912  0.18765821  1
  Zn  Zn161  1  0.93564905  0.93569819  0.68884037  1
  Zn  Zn162  1  0.06122644  0.05847259  0.31252445  1
  Zn  Zn163  1  0.06393537  0.06130089  0.81672639  1
  Zn  Zn164  1  0.05918147  0.55692502  0.31438052  1
  Zn  Zn165  1  0.06292502  0.56197542  0.81386455  1
  Zn  Zn166  1  0.56331553  0.06214367  0.31048607  1
  Zn  Zn167  1  0.56562254  0.06642601  0.81091522  1
  Zn  Zn168  1  0.56110130  0.56324443  0.31072053  1
  Zn  Zn169  1  0.56468625  0.56547737  0.81194364  1
  Zn  Zn170  1  0.43547415  0.18754571  0.43516497  1
  Zn  Zn171  1  0.43887938  0.19011647  0.93449483  1
  Zn  Zn172  1  0.43871225  0.68616824  0.43831718  1
  Zn  Zn173  1  0.43863231  0.68921473  0.93710113  1
  Zn  Zn174  1  0.93693563  0.18769916  0.43745828  1
  Zn  Zn175  1  0.93767809  0.18717044  0.93907444  1
  Zn  Zn176  1  0.93597163  0.68531237  0.44082952  1
  Zn  Zn177  1  0.93726424  0.68865884  0.93861740  1
  Zn  Zn178  1  0.06431518  0.31352975  0.06322943  1
  Zn  Zn179  1  0.06114447  0.31000637  0.56281723  1
  Zn  Zn180  1  0.05733618  0.80918212  0.06389765  1
  Zn  Zn181  1  0.06158894  0.81122637  0.56375056  1
  Zn  Zn182  1  0.56241087  0.31457973  0.06188961  1
  Zn  Zn183  1  0.56396729  0.31231257  0.56049787  1
  Zn  Zn184  1  0.56306116  0.81284809  0.05969879  1
  Zn  Zn185  1  0.56237757  0.81490731  0.56154767  1
  O  O186  1  0.12831549  0.12669491  0.10956401  1
  O  O187  1  0.11834074  0.11962894  0.61741975  1
  O  O188  1  0.11846281  0.61997508  0.11922542  1
  O  O189  1  0.11901283  0.61804333  0.61999785  1
  O  O190  1  0.62649145  0.12695945  0.11008786  1
  O  O191  1  0.61615007  0.12088170  0.62017070  1
  O  O192  1  0.61427643  0.61960663  0.12490769  1
  O  O193  1  0.61768070  0.61172870  0.62635844  1
  O  O194  1  0.37933486  0.38084631  0.38036252  1
  O  O195  1  0.37736365  0.38419236  0.88053719  1
  O  O196  1  0.38098537  0.88228068  0.37634813  1
  O  O197  1  0.38263981  0.88302931  0.88173271  1
  O  O198  1  0.87478338  0.38540025  0.38357246  1
  O  O199  1  0.88181571  0.38218860  0.88061037  1
  O  O200  1  0.88188242  0.87998153  0.37299405  1
  O  O201  1  0.88227391  0.87762528  0.88325679  1
  O  O202  1  0.25639712  0.01090707  0.37073293  1
  O  O203  1  0.25621385  0.00736849  0.86690179  1
  O  O204  1  0.25529615  0.50520808  0.37162813  1
  O  O205  1  0.25635079  0.50664297  0.86857922  1
  O  O206  1  0.75795887  0.00446530  0.37572710  1
  O  O207  1  0.75099484  0.00629646  0.86628933  1
  O  O208  1  0.76139449  0.49545409  0.37046222  1
  O  O209  1  0.75481683  0.50487781  0.87048781  1
  O  O210  1  0.24522445  0.49602432  0.13118426  1
  O  O211  1  0.24431832  0.49482633  0.62981652  1
  O  O212  1  0.24448088  1.00040575  0.12986798  1
  O  O213  1  0.24580207  0.99521390  0.62951541  1
  O  O214  1  0.74508871  0.49435915  0.13114716  1
  O  O215  1  0.74348758  0.49502542  0.63477844  1
  O  O216  1  0.74826604  0.98876120  0.12289220  1
  O  O217  1  0.75141708  0.99010967  0.63110082  1
  O  O218  1  0.01200014  0.37379463  0.25217692  1
  O  O219  1  0.00541148  0.37589551  0.75970670  1
  O  O220  1  0.00533207  0.86768951  0.26045997  1
  O  O221  1  0.00547110  0.86810887  0.75523494  1
  O  O222  1  0.50535590  0.37120301  0.25451464  1
  O  O223  1  0.49507624  0.36128827  0.74997052  1
  O  O224  1  0.50068371  0.86563673  0.25355806  1
  O  O225  1  0.50052628  0.86955981  0.75502264  1
  O  O226  1  0.49365766  0.13282568  0.24840056  1
  O  O227  1  0.49415395  0.13415538  0.74438735  1
  O  O228  1  0.49800826  0.63358997  0.24134512  1
  O  O229  1  0.49343630  0.63095182  0.74443365  1
  O  O230  1  0.98568933  0.12305067  0.25448886  1
  O  O231  1  1.00140884  0.12437994  0.73849283  1
  O  O232  1  0.99146854  0.62692255  0.24670068  1
  O  O233  1  1.00764793  0.63684279  0.74517556  1
  O  O234  1  0.37100951  0.25652302  0.00304011  1
  O  O235  1  0.36935965  0.25574161  0.50566873  1
  O  O236  1  0.37930384  0.76889957  -0.00210616  1
  O  O237  1  0.36762942  0.75027970  0.50678221  1
  O  O238  1  0.86983829  0.25428124  0.00813000  1
  O  O239  1  0.86793163  0.25505219  0.50800832  1
  O  O240  1  0.86849608  0.75686255  0.00249698  1
  O  O241  1  0.87572301  0.75273878  0.51254979  1
  O  O242  1  0.13196205  0.23594035  0.50721273  1
  O  O243  1  0.13117898  0.24415403  0.99737808  1
  O  O244  1  0.12930096  0.74267542  0.49647054  1
  O  O245  1  0.12321015  0.73768333  0.99918534  1
  O  O246  1  0.63349052  0.24764168  0.49558386  1
  O  O247  1  0.62943978  0.24392239  0.99243871  1
  O  O248  1  0.61992866  0.74915863  0.48448845  1
  O  O249  1  0.63221187  0.74864143  0.99031497  1
  O  O250  1  0.49417298  0.25017815  0.13047916  1
  O  O251  1  0.49555814  0.24610288  0.63066867  1
  O  O252  1  0.50039421  0.74375004  0.13246266  1
  O  O253  1  0.49461451  0.74553010  0.62928992  1
  O  O254  1  0.98593048  0.25463894  0.12652155  1
  O  O255  1  0.99396741  0.23891218  0.62562395  1
  O  O256  1  0.99491504  0.74090080  0.13426212  1
  O  O257  1  0.99387429  0.74542845  0.63267571  1
  O  O258  1  -0.00628576  0.25376043  0.37077574  1
  O  O259  1  -0.00030371  0.26365044  0.87393342  1
  O  O260  1  0.00391994  0.75534658  0.37195154  1
  O  O261  1  0.00069949  0.75546407  0.86646245  1
  O  O262  1  0.49994138  0.25745674  0.36783112  1
  O  O263  1  0.50853119  0.25232469  0.86598020  1
  O  O264  1  0.50497007  0.75462067  0.36703462  1
  O  O265  1  0.50597649  0.75471298  0.86836512  1
  O  O266  1  0.24289934  0.12863936  0.49231064  1
  O  O267  1  0.24336630  0.13131117  0.99291224  1
  O  O268  1  0.24272888  0.62911060  0.49593226  1
  O  O269  1  0.23919265  0.62297101  0.99412522  1
  O  O270  1  0.75141235  0.12904845  0.49084343  1
  O  O271  1  0.74281572  0.13024639  0.99375681  1
  O  O272  1  0.74364812  0.63237533  0.50677463  1
  O  O273  1  0.74892872  0.63060830  0.98945362  1
  O  O274  1  0.25547646  0.37186927  0.00446824  1
  O  O275  1  0.25417460  0.36996520  0.50505090  1
  O  O276  1  0.26657307  0.87952025  -0.00845339  1
  O  O277  1  0.24875278  0.86826035  0.50561175  1
  O  O278  1  0.75627957  0.36961492  0.00672036  1
  O  O279  1  0.75539440  0.36920989  0.50836845  1
  O  O280  1  0.75581690  0.87047573  0.00463253  1
  O  O281  1  0.75096379  0.86754166  0.51209571  1
  O  O282  1  0.13054192  0.49306627  0.24477737  1
  O  O283  1  0.13097845  0.49508640  0.74433563  1
  O  O284  1  0.12153125  0.98280991  0.24947994  1
  O  O285  1  0.13142217  0.99525073  0.74419303  1
  O  O286  1  0.62994291  0.49478964  0.24552482  1
  O  O287  1  0.63352699  0.50167769  0.74216699  1
  O  O288  1  0.62796542  0.99644778  0.24442913  1
  O  O289  1  0.63755535  0.99929354  0.74757616  1
  O  O290  1  0.37735127  0.00745991  0.25584118  1
  O  O291  1  0.37034844  0.00676618  0.75334469  1
  O  O292  1  0.36756978  0.50103914  0.25701843  1
  O  O293  1  0.36969912  0.50685912  0.75418044  1
  O  O294  1  0.87282073  0.00588425  0.25868227  1
  O  O295  1  0.86354839  0.00238634  0.75234163  1
  O  O296  1  0.87053166  0.50453143  0.25894565  1
  O  O297  1  0.86442582  0.49581469  0.76342333  1
  O  O298  1  0.12523302  0.38075063  0.36157210  1
  O  O299  1  0.11563489  0.37817795  0.87073057  1
  O  O300  1  0.11570569  0.86967918  0.36859234  1
  O  O301  1  0.11897650  0.87369199  0.86843255  1
  O  O302  1  0.61834825  0.37484148  0.36847827  1
  O  O303  1  0.62545826  0.36211145  0.88086047  1
  O  O304  1  0.61565375  0.86427555  0.37257661  1
  O  O305  1  0.61960153  0.86809894  0.87214549  1
  O  O306  1  0.37671523  0.13363008  0.13000599  1
  O  O307  1  0.37965554  0.13167943  0.62944893  1
  O  O308  1  0.38916720  0.62584663  0.12640668  1
  O  O309  1  0.37997772  0.63014840  0.63104860  1
  O  O310  1  0.86619802  0.13434766  0.13475782  1
  O  O311  1  0.88551721  0.12816713  0.62340669  1
  O  O312  1  0.88044963  0.62233293  0.13624516  1
  O  O313  1  0.88224956  0.63616987  0.62391015  1
  O  O314  1  0.25788168  0.25755210  0.11681077  1
  O  O315  1  0.25607207  0.25558629  0.61920892  1
  O  O316  1  0.25722408  0.74373675  0.11799662  1
  O  O317  1  0.25375556  0.75425163  0.62067921  1
  O  O318  1  0.75814864  0.25681312  0.11947080  1
  O  O319  1  0.75388803  0.25364370  0.62135820  1
  O  O320  1  0.75003522  0.75809206  0.11775586  1
  O  O321  1  0.75990228  0.75738022  0.63446212  1
  O  O322  1  0.25668945  0.23638755  0.38174498  1
  O  O323  1  0.25032168  0.24545023  0.88050152  1
  O  O324  1  0.24380776  0.74332567  0.38171382  1
  O  O325  1  0.24722690  0.74292844  0.88171320  1
  O  O326  1  0.75294123  0.23966111  0.38136527  1
  O  O327  1  0.74384416  0.24647234  0.87963941  1
  O  O328  1  0.73249239  0.75729667  0.37325877  1
  O  O329  1  0.74854520  0.74249753  0.87612756  1
  O  O330  1  0.00977461  0.11571482  -0.00717062  1
  O  O331  1  0.00788064  0.12273992  0.50873087  1
  O  O332  1  0.00799308  0.62353194  0.00600657  1
  O  O333  1  0.00520941  0.61779476  0.50812492  1
  O  O334  1  0.50812376  0.11861026  -0.00271444  1
  O  O335  1  0.49855790  0.11670534  0.50352077  1
  O  O336  1  0.50174628  0.62073380  0.00835971  1
  O  O337  1  0.50222238  0.61673535  0.50742511  1
  O  O338  1  0.49310398  0.37999359  0.49474212  1
  O  O339  1  0.49341964  0.38333665  0.99817834  1
  O  O340  1  0.49599391  0.88504427  0.49455672  1
  O  O341  1  0.49495674  0.88564726  0.99235514  1
  O  O342  1  0.99258467  0.38139748  0.50348452  1
  O  O343  1  0.99514956  0.37789158  0.99091576  1
  O  O344  1  1.00047056  0.87517649  0.48703167  1
  O  O345  1  0.99652466  0.88119024  0.99536077  1
  O  O346  1  0.49478684  0.49479531  0.37996041  1
  O  O347  1  0.49512627  0.50129528  0.87991657  1
  O  O348  1  0.49481197  0.99635582  0.38168182  1
  O  O349  1  0.49662647  0.99823649  0.88090145  1
  O  O350  1  0.98818719  0.49568971  0.38443996  1
  O  O351  1  0.99087071  0.49245485  0.87503511  1
  O  O352  1  0.98992398  0.98987939  0.37550207  1
  O  O353  1  0.99931053  0.99268987  0.88495439  1
  O  O354  1  0.00564472  -0.00746590  0.11138995  1
  O  O355  1  0.00509900  0.00680357  0.62369445  1
  O  O356  1  0.00575640  0.50589688  0.12359409  1
  O  O357  1  0.00344065  0.50405388  0.62265147  1
  O  O358  1  0.50338910  0.00449413  0.10984736  1
  O  O359  1  0.49840651  0.00519836  0.61556913  1
  O  O360  1  0.50490301  0.50812151  0.12127585  1
  O  O361  1  0.50614129  0.50314532  0.62222051  1
  O  O362  1  0.24382683  0.38025945  0.24414204  1
  O  O363  1  0.24600262  0.38150100  0.74412169  1
  O  O364  1  0.23330768  0.87281018  0.25898083  1
  O  O365  1  0.24509480  0.88081628  0.74502010  1
  O  O366  1  0.74573697  0.38067175  0.24614143  1
  O  O367  1  0.75292309  0.38632804  0.74571628  1
  O  O368  1  0.74895339  0.87586052  0.23677616  1
  O  O369  1  0.75009767  0.88371322  0.74246552  1
  O  O370  1  0.25535634  0.12639243  0.25875083  1
  O  O371  1  0.25550968  0.12092081  0.75283738  1
  O  O372  1  0.24924054  0.61854710  0.25834774  1
  O  O373  1  0.25434088  0.62055096  0.75515485  1
  O  O374  1  0.75993764  0.12349000  0.26007821  1
  O  O375  1  0.75094438  0.11627893  0.75447755  1
  O  O376  1  0.76171877  0.61822341  0.24358614  1
  O  O377  1  0.74806972  0.61249987  0.76231954  1
  O  O378  1  0.36651822  0.12019408  0.36845739  1
  O  O379  1  0.37004601  0.12101022  0.86891308  1
  O  O380  1  0.36780751  0.61803562  0.37489867  1
  O  O381  1  0.37001450  0.62079832  0.87003401  1
  O  O382  1  0.86698328  0.11516829  0.36878559  1
  O  O383  1  0.86652406  0.12459417  0.87322428  1
  O  O384  1  0.88116152  0.61388085  0.36543351  1
  O  O385  1  0.86620219  0.61423842  0.88125906  1
  O  O386  1  0.13180885  0.38233337  0.13012327  1
  O  O387  1  0.13004463  0.38024442  0.62988685  1
  O  O388  1  0.11872913  0.86877213  0.14268083  1
  O  O389  1  0.12963246  0.88038736  0.62994990  1
  O  O390  1  0.63123844  0.38055339  0.13105804  1
  O  O391  1  0.63024616  0.38706594  0.62138555  1
  O  O392  1  0.63609971  0.87624740  0.12292651  1
  O  O393  1  0.63650883  0.87573970  0.62748203  1
  O  O394  1  0.12517001  0.26337520  0.23958737  1
  O  O395  1  0.12220841  0.25909804  0.75304889  1
  O  O396  1  0.11866544  0.75720495  0.25781540  1
  O  O397  1  0.11449238  0.75717676  0.75006640  1
  O  O398  1  0.61967452  0.25697463  0.25102635  1
  O  O399  1  0.61583042  0.24315769  0.75953713  1
  O  O400  1  0.61471307  0.75104230  0.25950573  1
  O  O401  1  0.61802804  0.74998182  0.75528026  1
  O  O402  1  0.38038263  0.24688882  0.24307530  1
  O  O403  1  0.38303957  0.24544189  0.74433873  1
  O  O404  1  0.38707554  0.74847186  0.24995840  1
  O  O405  1  0.37991043  0.74514928  0.74521417  1
  O  O406  1  0.87388830  0.24126891  0.24115381  1
  O  O407  1  0.87825212  0.24655767  0.74142612  1
  O  O408  1  0.87939493  0.73794660  0.25175231  1
  O  O409  1  0.88845509  0.75626546  0.74177384  1
  O  O410  1  0.37992569  0.49392087  0.49573520  1
  O  O411  1  0.38005981  0.49668987  0.99479596  1
  O  O412  1  0.38431322  0.99998461  0.49284968  1
  O  O413  1  0.38385529  0.99465038  0.99323957  1
  O  O414  1  0.87743531  0.49585987  0.49611377  1
  O  O415  1  0.87425814  0.49313660  0.98930925  1
  O  O416  1  0.87781727  0.99516710  0.48667445  1
  O  O417  1  0.88508025  0.99535628  0.99916549  1
  O  O418  1  0.11805433  0.00873146  0.00011318  1
  O  O419  1  0.12442089  0.01092837  0.50569993  1
  O  O420  1  0.12319873  0.51048084  0.00673423  1
  O  O421  1  0.11893531  0.50364679  0.50659660  1
  O  O422  1  0.61708994  0.01044893  -0.00446498  1
  O  O423  1  0.61104015  0.00097910  0.49942053  1
  O  O424  1  0.61880772  0.50162177  0.00809038  1
  O  O425  1  0.61822977  0.49924701  0.51020763  1
  O  O426  1  0.36937100  0.37147307  0.11847867  1
  O  O427  1  0.36857216  0.37051009  0.61885005  1
  O  O428  1  0.38207111  0.87845075  0.10763114  1
  O  O429  1  0.36655429  0.86780499  0.62342462  1
  O  O430  1  0.86997191  0.36839529  0.12174076  1
  O  O431  1  0.86761653  0.36944926  0.62094761  1
  O  O432  1  0.86568143  0.87234069  0.11928440  1
  O  O433  1  0.86778412  0.86526217  0.62383685  1
  O  O434  1  0.13358663  0.11672020  0.38374966  1
  O  O435  1  0.13239352  0.12759544  0.88379057  1
  O  O436  1  0.12809591  0.62821832  0.38145663  1
  O  O437  1  0.12978246  0.62432627  0.88494727  1
  O  O438  1  0.63896194  0.12553587  0.37545016  1
  O  O439  1  0.63082113  0.13577116  0.88375327  1
  O  O440  1  0.61865383  0.64001307  0.37430082  1
  O  O441  1  0.63640841  0.63093722  0.87667703  1
