# generated using pymatgen
data_V93Zn93O256
_symmetry_space_group_name_H-M   'P 1'
_cell_length_a   17.05061498
_cell_length_b   17.05536657
_cell_length_c   17.05286773
_cell_angle_alpha   89.96430337
_cell_angle_beta   90.04153379
_cell_angle_gamma   89.94387883
_symmetry_Int_Tables_number   1
_chemical_formula_structural   V93Zn93O256
_chemical_formula_sum   'V93 Zn93 O256'
_cell_volume   4959.04583685
_cell_formula_units_Z   1
loop_
 _symmetry_equiv_pos_site_id
 _symmetry_equiv_pos_as_xyz
  1  'x, y, z'
loop_
 _atom_site_type_symbol
 _atom_site_label
 _atom_site_symmetry_multiplicity
 _atom_site_fract_x
 _atom_site_fract_y
 _atom_site_fract_z
 _atom_site_occupancy
  V  V0  1  -0.00047739  0.25066038  0.24927348  1
  V  V1  1  0.87490512  0.12494094  0.25118501  1
  V  V2  1  0.87572827  -0.00368166  0.87652968  1
  V  V3  1  0.87588769  0.87226489  0.49998900  1
  V  V4  1  0.50106551  0.75139485  0.25009796  1
  V  V5  1  0.49873054  0.62653472  0.62614688  1
  V  V6  1  0.00033615  0.87409065  0.37474955  1
  V  V7  1  0.75009061  0.37450483  0.12453284  1
  V  V8  1  0.50127344  0.00289621  0.50110774  1
  V  V9  1  0.62489307  -0.00033056  0.62578577  1
  V  V10  1  0.49987509  0.00132122  0.00007075  1
  V  V11  1  0.24794627  0.25089903  0.49840508  1
  V  V12  1  0.37347451  0.75117444  0.12160900  1
  V  V13  1  0.75701285  0.87050905  0.12578605  1
  V  V14  1  0.50027927  0.25036976  0.25064468  1
  V  V15  1  0.12480457  0.87312934  0.75101098  1
  V  V16  1  0.12350828  0.37577908  0.24926915  1
  V  V17  1  0.74953459  0.12741451  0.38167059  1
  V  V18  1  0.75024548  0.62386909  0.87529966  1
  V  V19  1  0.62390419  0.75094120  0.87506318  1
  V  V20  1  0.00102425  0.12445218  0.12444042  1
  V  V21  1  0.49935035  0.50103338  0.49994637  1
  V  V22  1  0.75189007  0.87316529  0.62448572  1
  V  V23  1  0.14012051  0.62781717  -0.00313707  1
  V  V24  1  0.74988128  0.00038512  0.25070609  1
  V  V25  1  0.62898305  0.25022300  0.38276798  1
  V  V26  1  0.50062097  0.12543002  0.12606337  1
  V  V27  1  0.62633612  0.62487402  0.50005720  1
  V  V28  1  0.62591399  0.12536730  0.00011288  1
  V  V29  1  -0.00026854  -0.00227672  0.50003902  1
  V  V30  1  0.37411866  0.25061356  0.62608372  1
  V  V31  1  0.75114747  0.62407569  0.37542546  1
  V  V32  1  -0.00416643  0.63042927  0.12074000  1
  V  V33  1  0.24931082  0.50150988  0.25024738  1
  V  V34  1  0.87000167  0.24789247  0.62177097  1
  V  V35  1  0.50063416  0.87557935  0.37499678  1
  V  V36  1  0.37484448  0.25101485  0.12493471  1
  V  V37  1  0.00785471  0.36911744  0.87467433  1
  V  V38  1  0.87503175  0.37386460  -0.00082804  1
  V  V39  1  0.62438821  0.49864100  0.12554047  1
  V  V40  1  0.62480370  0.87491558  0.25051072  1
  V  V41  1  0.50038221  0.37579170  0.37537889  1
  V  V42  1  0.37666679  0.74988603  0.62500080  1
  V  V43  1  0.12444848  -0.00104845  0.62533251  1
  V  V44  1  0.62540497  -0.00021696  0.12495362  1
  V  V45  1  -0.00181547  0.37461529  0.37324966  1
  V  V46  1  0.12595016  0.87454119  0.24943656  1
  V  V47  1  0.24889793  0.37588128  0.12517801  1
  V  V48  1  0.74991951  0.24887748  -0.00008255  1
  V  V49  1  0.25066281  0.00111054  0.24923009  1
  V  V50  1  0.24927865  0.62584518  0.37343892  1
  V  V51  1  0.62573720  0.62414715  0.00116859  1
  V  V52  1  0.00795669  0.24754859  0.75278547  1
  V  V53  1  0.24927555  0.75044039  0.49886138  1
  V  V54  1  0.24990349  0.87551124  0.62357477  1
  V  V55  1  0.75846464  0.74921421  0.00411266  1
  V  V56  1  0.36901155  0.50790068  0.87342717  1
  V  V57  1  0.75126026  0.74828284  0.50117170  1
  V  V58  1  0.75087523  -0.00159358  0.75218909  1
  V  V59  1  0.12398990  0.75049759  0.37322628  1
  V  V60  1  0.62570326  0.37522101  0.24981155  1
  V  V61  1  0.87117333  0.37208438  0.49946622  1
  V  V62  1  0.37142478  0.00582369  0.87401316  1
  V  V63  1  0.62397860  0.37360922  0.75030786  1
  V  V64  1  0.24291768  0.50702255  0.74413934  1
  V  V65  1  0.50008947  0.37557336  0.87386239  1
  V  V66  1  0.00035789  0.74770620  0.75260801  1
  V  V67  1  0.50072411  0.62614264  0.12685422  1
  V  V68  1  0.12425392  0.12482108  0.49853836  1
  V  V69  1  0.37322237  0.87532999  0.00046258  1
  V  V70  1  0.87484252  0.49979280  0.37406463  1
  V  V71  1  0.49908419  0.50020936  -0.00023562  1
  V  V72  1  0.24886676  0.12614472  0.37351303  1
  V  V73  1  0.87544138  0.49621593  0.87500169  1
  V  V74  1  0.14257975  0.74700594  0.87699056  1
  V  V75  1  0.74983179  0.49836998  0.74993338  1
  V  V76  1  0.87595012  0.63071548  0.24570184  1
  V  V77  1  0.37420328  0.12598727  0.25074791  1
  V  V78  1  0.62443991  0.49913111  0.62567849  1
  V  V79  1  -0.00169429  0.12386189  0.62543141  1
  V  V80  1  0.00122002  -0.00246517  0.00069492  1
  V  V81  1  0.37544279  0.87631372  0.49936665  1
  V  V82  1  0.24365399  0.24826973  -0.00720155  1
  V  V83  1  0.12350931  0.62091737  0.50583485  1
  V  V84  1  0.50051186  0.87546435  0.87601111  1
  V  V85  1  0.37291341  0.37711657  0.50003724  1
  V  V86  1  0.25017321  0.00117832  0.74999313  1
  V  V87  1  0.24986856  0.87234827  0.12058646  1
  V  V88  1  0.00319369  0.49811302  0.50722404  1
  V  V89  1  0.74910342  0.37103586  0.62200012  1
  V  V90  1  0.37459651  0.37606989  -0.00093679  1
  V  V91  1  0.87581859  0.62335547  0.74993803  1
  V  V92  1  0.62456583  0.24949986  0.87475508  1
  Zn  Zn93  1  0.87455896  0.25107008  0.12406124  1
  Zn  Zn94  1  0.37623629  0.50392955  0.37430959  1
  Zn  Zn95  1  0.12051393  0.12863486  -0.00730098  1
  Zn  Zn96  1  0.23839429  0.13761826  0.86305287  1
  Zn  Zn97  1  0.00220346  0.49993884  -0.00078729  1
  Zn  Zn98  1  0.50069650  0.12682762  0.62798734  1
  Zn  Zn99  1  0.62888301  0.13026153  0.50465082  1
  Zn  Zn100  1  0.37465781  0.12769923  0.74797133  1
  Zn  Zn101  1  0.23554003  0.38168585  0.62020521  1
  Zn  Zn102  1  0.37577267  0.00218280  0.37573925  1
  Zn  Zn103  1  0.37219237  0.62973459  0.75552736  1
  Zn  Zn104  1  0.49832287  0.24863787  0.74970229  1
  Zn  Zn105  1  0.37509431  0.62649409  0.25104943  1
  Zn  Zn106  1  0.75089148  0.50037582  0.24904639  1
  Zn  Zn107  1  0.75002344  0.12336003  0.87655532  1
  Zn  Zn108  1  0.00239311  0.61939088  0.62946626  1
  Zn  Zn109  1  0.87675820  0.74617172  0.62594499  1
  Zn  Zn110  1  0.12257722  0.37999315  0.74150160  1
  Zn  Zn111  1  0.12425389  0.50279911  0.12099389  1
  Zn  Zn112  1  0.12281466  0.25001164  0.37469207  1
  Zn  Zn113  1  0.87524995  0.12502665  0.75121792  1
  Zn  Zn114  1  0.49874611  0.75000955  0.75043188  1
  Zn  Zn115  1  0.00279157  0.87155844  0.87948520  1
  Zn  Zn116  1  0.62391209  0.87371272  0.75067811  1
  Zn  Zn117  1  0.62520044  0.74926202  0.37561948  1
  Zn  Zn118  1  0.12666562  -0.00065604  0.12294541  1
  Zn  Zn119  1  0.87984885  0.86899387  0.00533549  1
  Zn  Zn120  1  0.87374936  -0.00084749  0.37609717  1
  Zn  Zn121  1  -0.00356140  0.75317080  0.24445192  1
  Zn  Zn122  1  0.18511536  0.18917944  0.18438371  1
  Zn  Zn123  1  0.18919010  0.18817504  0.68259654  1
  Zn  Zn124  1  0.18503732  0.68790448  0.18474455  1
  Zn  Zn125  1  0.18941814  0.68736320  0.68882463  1
  Zn  Zn126  1  0.68820196  0.18872490  0.19011441  1
  Zn  Zn127  1  0.68815520  0.18536674  0.69036492  1
  Zn  Zn128  1  0.68839352  0.68715315  0.18917286  1
  Zn  Zn129  1  0.68787274  0.68623177  0.68753068  1
  Zn  Zn130  1  0.31136111  0.31314135  0.31375064  1
  Zn  Zn131  1  0.31050153  0.32352297  0.80871462  1
  Zn  Zn132  1  0.31389125  0.81381453  0.31097332  1
  Zn  Zn133  1  0.31627568  0.81706146  0.80967748  1
  Zn  Zn134  1  0.81221060  0.31089214  0.31081936  1
  Zn  Zn135  1  0.81475358  0.30991070  0.81107002  1
  Zn  Zn136  1  0.81179882  0.81123520  0.31517630  1
  Zn  Zn137  1  0.81385007  0.81266364  0.81471774  1
  Zn  Zn138  1  0.18529631  0.43807277  0.43414127  1
  Zn  Zn139  1  0.18842574  0.44077381  0.93434823  1
  Zn  Zn140  1  0.18742193  0.93928239  0.43525645  1
  Zn  Zn141  1  0.18599476  0.93753093  0.93576264  1
  Zn  Zn142  1  0.68865294  0.43819999  0.43792168  1
  Zn  Zn143  1  0.68749093  0.43590016  0.93795968  1
  Zn  Zn144  1  0.68790621  0.93726805  0.43744960  1
  Zn  Zn145  1  0.68857716  0.93524992  0.94029000  1
  Zn  Zn146  1  0.31243100  0.06341602  0.06312553  1
  Zn  Zn147  1  0.31225096  0.06465420  0.56212508  1
  Zn  Zn148  1  0.31501848  0.56226146  0.06508953  1
  Zn  Zn149  1  0.31200766  0.56439234  0.56345679  1
  Zn  Zn150  1  0.81444274  0.06099025  0.06349573  1
  Zn  Zn151  1  0.81419785  0.05966013  0.56268195  1
  Zn  Zn152  1  0.81363285  0.55963226  0.06270044  1
  Zn  Zn153  1  0.81527002  0.55993361  0.56353678  1
  Zn  Zn154  1  0.43611554  0.43787137  0.18811899  1
  Zn  Zn155  1  0.43401592  0.43900493  0.68884669  1
  Zn  Zn156  1  0.43663671  0.93895280  0.18872391  1
  Zn  Zn157  1  0.43852766  0.93508732  0.68963740  1
  Zn  Zn158  1  0.93785423  0.44347205  0.18452395  1
  Zn  Zn159  1  0.93700195  0.43223655  0.68901970  1
  Zn  Zn160  1  0.93756566  0.93953046  0.19027243  1
  Zn  Zn161  1  0.93776653  0.93373226  0.68849747  1
  Zn  Zn162  1  0.06360461  0.05993978  0.31210452  1
  Zn  Zn163  1  0.06305078  0.06404663  0.81420305  1
  Zn  Zn164  1  0.06065239  0.56320701  0.31304715  1
  Zn  Zn165  1  0.06250030  0.56266516  0.81937995  1
  Zn  Zn166  1  0.56412720  0.06319867  0.31391298  1
  Zn  Zn167  1  0.55978345  0.06553134  0.81118051  1
  Zn  Zn168  1  0.56334810  0.56299411  0.31277028  1
  Zn  Zn169  1  0.55981593  0.56300074  0.81177810  1
  Zn  Zn170  1  0.43778949  0.18838978  0.43829353  1
  Zn  Zn171  1  0.43603930  0.18919824  0.93775023  1
  Zn  Zn172  1  0.43725047  0.68841898  0.43687682  1
  Zn  Zn173  1  0.43753681  0.68808800  0.94108476  1
  Zn  Zn174  1  0.93672411  0.18726846  0.43748643  1
  Zn  Zn175  1  0.93541689  0.18562158  0.93620161  1
  Zn  Zn176  1  0.93835662  0.68646942  0.43552809  1
  Zn  Zn177  1  0.94219098  0.68367319  0.93481882  1
  Zn  Zn178  1  0.06174152  0.31457904  0.06377790  1
  Zn  Zn179  1  0.06012631  0.31112571  0.56440069  1
  Zn  Zn180  1  0.06565233  0.80819455  0.06124805  1
  Zn  Zn181  1  0.06215251  0.80909746  0.56379139  1
  Zn  Zn182  1  0.56248883  0.31261646  0.06132718  1
  Zn  Zn183  1  0.55867283  0.31465155  0.56412075  1
  Zn  Zn184  1  0.56432099  0.81329976  0.06232298  1
  Zn  Zn185  1  0.56402516  0.81284628  0.56203069  1
  O  O186  1  0.11205745  0.12258152  0.12021162  1
  O  O187  1  0.11875850  0.11794442  0.61808156  1
  O  O188  1  0.11837904  0.62689706  0.11097390  1
  O  O189  1  0.12377241  0.63098588  0.60883937  1
  O  O190  1  0.61954875  0.11975064  0.12122555  1
  O  O191  1  0.62559004  0.11263417  0.62300388  1
  O  O192  1  0.62032234  0.61913664  0.12041445  1
  O  O193  1  0.61992205  0.61839609  0.62004829  1
  O  O194  1  0.38131035  0.37513590  0.38546047  1
  O  O195  1  0.38173290  0.38595494  0.88071230  1
  O  O196  1  0.38186628  0.87829114  0.38168969  1
  O  O197  1  0.38020726  0.88371275  0.88142850  1
  O  O198  1  0.87811894  0.37907139  0.37929145  1
  O  O199  1  0.88088982  0.37849506  0.88001915  1
  O  O200  1  0.88166390  0.87590655  0.38177423  1
  O  O201  1  0.87795337  0.88549240  0.87951016  1
  O  O202  1  0.25260872  0.00763708  0.36791794  1
  O  O203  1  0.26032247  -0.00295289  0.86896871  1
  O  O204  1  0.25120419  0.50644772  0.36515235  1
  O  O205  1  0.26193484  0.49505017  0.86387319  1
  O  O206  1  0.74890146  0.00881441  0.36773712  1
  O  O207  1  0.75647516  -0.00290657  0.86861103  1
  O  O208  1  0.75707146  0.50657960  0.37381719  1
  O  O209  1  0.75382884  0.50426988  0.86946910  1
  O  O210  1  0.24903378  0.49459324  0.13441319  1
  O  O211  1  0.25786655  0.49849197  0.63959064  1
  O  O212  1  0.25028464  0.99119273  0.13075772  1
  O  O213  1  0.24439283  0.99466309  0.62881827  1
  O  O214  1  0.74107290  0.49244566  0.12476374  1
  O  O215  1  0.74379317  0.49328051  0.63114764  1
  O  O216  1  0.74419589  0.99174245  0.13012560  1
  O  O217  1  0.74385103  0.99403521  0.63206915  1
  O  O218  1  0.00315832  0.37124436  0.25306065  1
  O  O219  1  -0.00008183  0.36534397  0.75812878  1
  O  O220  1  0.00659197  0.87392356  0.25503552  1
  O  O221  1  0.00735372  0.86481831  0.75207239  1
  O  O222  1  0.50470826  0.36999745  0.25535350  1
  O  O223  1  0.50684538  0.37461819  0.75598916  1
  O  O224  1  0.50543018  0.87202760  0.25457813  1
  O  O225  1  0.50420096  0.87102755  0.76011211  1
  O  O226  1  0.49522006  0.13057886  0.24533816  1
  O  O227  1  0.49279085  0.12995016  0.74597481  1
  O  O228  1  0.49927399  0.63193767  0.24379581  1
  O  O229  1  0.49753829  0.62827747  0.74052964  1
  O  O230  1  0.99603541  0.12808457  0.24294803  1
  O  O231  1  0.99683517  0.12998223  0.74308988  1
  O  O232  1  0.99316253  0.62621911  0.24174983  1
  O  O233  1  0.99552286  0.63069401  0.75148331  1
  O  O234  1  0.36832394  0.25688328  0.00672160  1
  O  O235  1  0.36991158  0.25895962  0.50475972  1
  O  O236  1  0.38238029  0.75868419  0.01378546  1
  O  O237  1  0.36888454  0.75708046  0.50487995  1
  O  O238  1  0.86742492  0.25558815  0.00127762  1
  O  O239  1  0.88236784  0.25658153  0.51337025  1
  O  O240  1  0.86123357  0.74925848  -0.00890175  1
  O  O241  1  0.86969915  0.75405834  0.50258603  1
  O  O242  1  0.12955104  0.24170795  0.49813758  1
  O  O243  1  0.14175048  0.25336543  1.00401041  1
  O  O244  1  0.13013344  0.74273574  0.49328979  1
  O  O245  1  0.12325275  0.73784326  0.99015401  1
  O  O246  1  0.61807260  0.25000267  0.48663270  1
  O  O247  1  0.62973573  0.24488004  0.99467853  1
  O  O248  1  0.63267118  0.74237753  0.49958851  1
  O  O249  1  0.63304576  0.74436155  0.99221370  1
  O  O250  1  0.49544146  0.24529237  0.13046302  1
  O  O251  1  0.48818482  0.24904101  0.62492260  1
  O  O252  1  0.49442896  0.74685178  0.12994727  1
  O  O253  1  0.49504335  0.74509305  0.62476302  1
  O  O254  1  0.99830355  0.24013447  0.12950889  1
  O  O255  1  0.98972994  0.24290455  0.63295185  1
  O  O256  1  1.00240396  0.73623403  0.12602535  1
  O  O257  1  1.00038749  0.74620557  0.64085522  1
  O  O258  1  -0.00064175  0.25651894  0.36731668  1
  O  O259  1  -0.00953439  0.25727140  0.86418593  1
  O  O260  1  0.00744643  0.75708620  0.37332391  1
  O  O261  1  0.00764361  0.75017472  0.86385301  1
  O  O262  1  0.50771657  0.25538243  0.36959847  1
  O  O263  1  0.50556733  0.25819329  0.87540230  1
  O  O264  1  0.50174924  0.75743908  0.36874076  1
  O  O265  1  0.51015436  0.75540810  0.87876053  1
  O  O266  1  0.24380456  0.12992348  0.49362468  1
  O  O267  1  0.25094008  0.14235462  1.00334845  1
  O  O268  1  0.24224548  0.62960523  0.49398948  1
  O  O269  1  0.23846153  0.62475821  1.00599051  1
  O  O270  1  0.74838698  0.11741342  0.48578917  1
  O  O271  1  0.74314141  0.12977819  1.00112942  1
  O  O272  1  0.74618788  0.62788744  0.49615306  1
  O  O273  1  0.74540389  0.63109288  0.99594640  1
  O  O274  1  0.25474963  0.36796417  0.00425431  1
  O  O275  1  0.25861024  0.37164090  0.49730173  1
  O  O276  1  0.25643520  0.88306389  0.01331622  1
  O  O277  1  0.25448352  0.87083885  0.50414833  1
  O  O278  1  0.75408249  0.36831779  0.00485937  1
  O  O279  1  0.75880168  0.38121772  0.50913554  1
  O  O280  1  0.75122076  0.86618272  0.00968793  1
  O  O281  1  0.75576115  0.86909960  0.50439581  1
  O  O282  1  0.13569496  0.49546881  0.24976268  1
  O  O283  1  0.14009253  0.50459534  0.75717070  1
  O  O284  1  0.13221180  0.99241137  0.24614283  1
  O  O285  1  0.12954431  0.99290462  0.74388494  1
  O  O286  1  0.62547304  0.49270297  0.24323394  1
  O  O287  1  0.63013063  0.49422575  0.74516385  1
  O  O288  1  0.62969678  0.99487537  0.24375009  1
  O  O289  1  0.63272077  0.99808949  0.74293578  1
  O  O290  1  0.36949197  0.00867823  0.25164652  1
  O  O291  1  0.36914430  -0.00136117  0.75917921  1
  O  O292  1  0.36244852  0.50192406  0.25143080  1
  O  O293  1  0.36736967  0.50234602  0.75876736  1
  O  O294  1  0.86763289  0.00727023  0.25364976  1
  O  O295  1  0.86748046  -0.00221513  0.75779352  1
  O  O296  1  0.87350847  0.50991120  0.25734817  1
  O  O297  1  0.86880412  0.50273230  0.75514009  1
  O  O298  1  0.11617553  0.37303076  0.36703681  1
  O  O299  1  0.10999260  0.37945396  0.87303968  1
  O  O300  1  0.12061390  0.87009870  0.36941324  1
  O  O301  1  0.12427363  0.86470390  0.86935167  1
  O  O302  1  0.62132825  0.36847720  0.37077604  1
  O  O303  1  0.61973720  0.36981196  0.87013968  1
  O  O304  1  0.61907479  0.87367819  0.36817021  1
  O  O305  1  0.61980268  0.86553660  0.87767858  1
  O  O306  1  0.38173416  0.13100807  0.13089468  1
  O  O307  1  0.37628809  0.13862293  0.62267239  1
  O  O308  1  0.38161476  0.63551985  0.12596671  1
  O  O309  1  0.38317087  0.63385307  0.62218502  1
  O  O310  1  0.88535408  0.12519582  0.13164506  1
  O  O311  1  0.87944607  0.13149311  0.62484390  1
  O  O312  1  0.88235603  0.61742669  0.13465320  1
  O  O313  1  0.87802345  0.62574407  0.63514301  1
  O  O314  1  0.25648471  0.25684523  0.11746521  1
  O  O315  1  0.25898441  0.25386613  0.61548144  1
  O  O316  1  0.26195274  0.76165383  0.13259227  1
  O  O317  1  0.25517251  0.75639417  0.61797342  1
  O  O318  1  0.75005386  0.25655722  0.11858987  1
  O  O319  1  0.76101512  0.25464422  0.63233328  1
  O  O320  1  0.74241124  0.75845182  0.11470057  1
  O  O321  1  0.75096560  0.75576978  0.61989434  1
  O  O322  1  0.24695303  0.24397307  0.38071134  1
  O  O323  1  0.26002397  0.25356166  0.89005127  1
  O  O324  1  0.24483220  0.74650790  0.37978995  1
  O  O325  1  0.24134799  0.75264225  0.86876472  1
  O  O326  1  0.73941533  0.24024768  0.36867361  1
  O  O327  1  0.74337054  0.24722340  0.88100887  1
  O  O328  1  0.74774739  0.74186811  0.38329901  1
  O  O329  1  0.74201628  0.74493232  0.88312832  1
  O  O330  1  -0.00265570  0.11667892  0.00870610  1
  O  O331  1  0.00433273  0.11790633  0.50499004  1
  O  O332  1  0.00367690  0.62174550  0.00751721  1
  O  O333  1  0.00705832  0.61569231  0.49980846  1
  O  O334  1  0.50510662  0.12066752  0.00676289  1
  O  O335  1  0.50324048  0.11272716  0.50156860  1
  O  O336  1  0.50677901  0.61961321  0.00775991  1
  O  O337  1  0.50595932  0.62023722  0.50506024  1
  O  O338  1  0.49217473  0.38161329  0.49437036  1
  O  O339  1  0.49444753  0.38138656  0.99521020  1
  O  O340  1  0.49598805  0.88375080  0.49571944  1
  O  O341  1  0.49457721  0.88258678  0.99618278  1
  O  O342  1  0.99260727  0.38105430  0.49289984  1
  O  O343  1  0.99375794  0.37430988  0.99178174  1
  O  O344  1  0.99639643  0.87813689  0.49576413  1
  O  O345  1  0.99772287  0.88286626  1.00227879  1
  O  O346  1  0.49893175  0.49384350  0.38148583  1
  O  O347  1  0.49444825  0.49468360  0.88143828  1
  O  O348  1  0.50058234  0.99512274  0.38525671  1
  O  O349  1  0.49161616  0.99598543  0.88068948  1
  O  O350  1  0.99339835  0.49358073  0.38239418  1
  O  O351  1  0.99144576  0.48814701  0.87486623  1
  O  O352  1  0.99935934  0.99208743  0.38235059  1
  O  O353  1  0.99211301  0.99694433  0.88387804  1
  O  O354  1  -0.00060645  0.00751401  0.11744386  1
  O  O355  1  0.00512207  0.00339553  0.62056997  1
  O  O356  1  0.00556065  0.51243641  0.12116261  1
  O  O357  1  -0.00678244  0.49872869  0.61046986  1
  O  O358  1  0.50507350  0.00575934  0.12013480  1
  O  O359  1  0.50892328  -0.00212476  0.61811094  1
  O  O360  1  0.50398530  0.50509786  0.11964113  1
  O  O361  1  0.50504094  0.50525250  0.61945516  1
  O  O362  1  0.24493626  0.38236558  0.24609880  1
  O  O363  1  0.24412876  0.38944598  0.74585268  1
  O  O364  1  0.24680428  0.88160984  0.24157403  1
  O  O365  1  0.24431877  0.88124012  0.74209618  1
  O  O366  1  0.74314130  0.37627107  0.24301774  1
  O  O367  1  0.74394011  0.37994220  0.74380116  1
  O  O368  1  0.74498441  0.87839242  0.24422973  1
  O  O369  1  0.74879860  0.88415170  0.74535361  1
  O  O370  1  0.25431994  0.12182588  0.25244602  1
  O  O371  1  0.25436275  0.11732011  0.74826825  1
  O  O372  1  0.24882400  0.61701281  0.25382451  1
  O  O373  1  0.25454702  0.61280211  0.74632184  1
  O  O374  1  0.75457867  0.11974499  0.25752950  1
  O  O375  1  0.75230170  0.10906298  0.75280511  1
  O  O376  1  0.75781729  0.62292167  0.25539235  1
  O  O377  1  0.75464406  0.61823146  0.75638428  1
  O  O378  1  0.36814586  0.12576551  0.36827685  1
  O  O379  1  0.37090604  0.11340484  0.87606881  1
  O  O380  1  0.36576286  0.62476979  0.37203387  1
  O  O381  1  0.38309767  0.61235058  0.87622166  1
  O  O382  1  0.86574652  0.12428753  0.36993321  1
  O  O383  1  0.87170748  0.10922928  0.87345348  1
  O  O384  1  0.87087053  0.61863814  0.36772743  1
  O  O385  1  0.86898893  0.61678777  0.86937937  1
  O  O386  1  0.13096428  0.37944057  0.13153777  1
  O  O387  1  0.12277329  0.37669674  0.62664052  1
  O  O388  1  0.13573974  0.87282968  0.12985994  1
  O  O389  1  0.13067251  0.87918921  0.62968404  1
  O  O390  1  0.62874693  0.37938872  0.12988595  1
  O  O391  1  0.62889778  0.37965291  0.62977523  1
  O  O392  1  0.63336225  0.88100629  0.13014197  1
  O  O393  1  0.63197178  0.88477543  0.62687390  1
  O  O394  1  0.11739179  0.25751595  0.25021006  1
  O  O395  1  0.11007228  0.24803003  0.74345718  1
  O  O396  1  0.12464318  0.75723584  0.25645578  1
  O  O397  1  0.11995712  0.75210083  0.75758889  1
  O  O398  1  0.61850220  0.25582374  0.25879101  1
  O  O399  1  0.62415073  0.25637657  0.75655222  1
  O  O400  1  0.61844612  0.75714963  0.25098791  1
  O  O401  1  0.62637495  0.74999376  0.76521005  1
  O  O402  1  0.38042747  0.24653216  0.24458912  1
  O  O403  1  0.37279521  0.25442070  0.73712392  1
  O  O404  1  0.38285572  0.75154816  0.23834390  1
  O  O405  1  0.37714146  0.74885931  0.74100652  1
  O  O406  1  0.88181047  0.24274610  0.24660318  1
  O  O407  1  0.88310696  0.24705952  0.73898268  1
  O  O408  1  0.87633207  0.73497190  0.25558944  1
  O  O409  1  0.88377252  0.74290012  0.75291268  1
  O  O410  1  0.37991834  0.49179543  0.49880323  1
  O  O411  1  0.37905471  0.49579235  0.99410586  1
  O  O412  1  0.38528908  0.99491937  0.50121859  1
  O  O413  1  0.37991091  0.99647061  0.99279877  1
  O  O414  1  0.88352227  0.49366833  0.49333284  1
  O  O415  1  0.87448291  0.49123487  0.99139099  1
  O  O416  1  0.88241886  0.99075913  0.49896331  1
  O  O417  1  0.88366342  0.99681375  0.99370572  1
  O  O418  1  0.11142498  -0.00080514  0.00217523  1
  O  O419  1  0.11970050  0.00415504  0.50627565  1
  O  O420  1  0.12444320  0.51522238  -0.00250948  1
  O  O421  1  0.11457938  0.50979884  0.49126882  1
  O  O422  1  0.61957885  0.00493259  0.00533056  1
  O  O423  1  0.61747048  -0.00115896  0.51009946  1
  O  O424  1  0.61908939  0.50474428  0.00497035  1
  O  O425  1  0.61921115  0.50461344  0.50665540  1
  O  O426  1  0.36971462  0.37063069  0.11913020  1
  O  O427  1  0.37606702  0.36862127  0.61136218  1
  O  O428  1  0.36961244  0.87002865  0.12103064  1
  O  O429  1  0.36954938  0.87055679  0.61878014  1
  O  O430  1  0.86876799  0.37517270  0.11767241  1
  O  O431  1  0.86910995  0.36616206  0.62010462  1
  O  O432  1  0.86015835  0.87871994  0.12673042  1
  O  O433  1  0.86899666  0.87126537  0.61843674  1
  O  O434  1  0.13060483  0.12602018  0.38063799  1
  O  O435  1  0.12933390  0.12163580  0.88108769  1
  O  O436  1  0.12982002  0.63129600  0.38261966  1
  O  O437  1  0.12311845  0.63258560  0.88935955  1
  O  O438  1  0.63249445  0.13402956  0.37570546  1
  O  O439  1  0.62560839  0.13045814  0.88292939  1
  O  O440  1  0.63231669  0.62515907  0.38244667  1
  O  O441  1  0.62977884  0.63122763  0.88134522  1
