# generated using pymatgen
data_V93Zn93O256
_symmetry_space_group_name_H-M   'P 1'
_cell_length_a   17.05232712
_cell_length_b   17.05958355
_cell_length_c   17.05593634
_cell_angle_alpha   90.02257815
_cell_angle_beta   90.00505694
_cell_angle_gamma   89.98329363
_symmetry_Int_Tables_number   1
_chemical_formula_structural   V93Zn93O256
_chemical_formula_sum   'V93 Zn93 O256'
_cell_volume   4961.66676852
_cell_formula_units_Z   1
loop_
 _symmetry_equiv_pos_site_id
 _symmetry_equiv_pos_as_xyz
  1  'x, y, z'
loop_
 _atom_site_type_symbol
 _atom_site_label
 _atom_site_symmetry_multiplicity
 _atom_site_fract_x
 _atom_site_fract_y
 _atom_site_fract_z
 _atom_site_occupancy
  V  V0  1  0.37361591  0.87152279  0.00492438  1
  V  V1  1  0.37441073  0.49737908  0.87373006  1
  V  V2  1  0.00007761  0.12589876  0.12533587  1
  V  V3  1  0.49858008  0.87382631  0.87578312  1
  V  V4  1  0.25503977  0.50304022  0.24952847  1
  V  V5  1  0.88045712  0.24525502  0.62376327  1
  V  V6  1  0.50012742  0.00023668  0.49761693  1
  V  V7  1  0.74988560  0.00058560  0.25013444  1
  V  V8  1  0.87394857  0.75112481  0.12518731  1
  V  V9  1  0.62208324  0.75134706  0.37408851  1
  V  V10  1  0.87494557  0.75020329  0.62543553  1
  V  V11  1  0.75056474  0.87531215  0.12521208  1
  V  V12  1  0.50027147  0.49951361  -0.00044507  1
  V  V13  1  0.87536252  0.62483476  0.74934963  1
  V  V14  1  0.24883199  0.49844327  0.74798902  1
  V  V15  1  0.24848548  0.37077954  0.12283552  1
  V  V16  1  -0.00058168  0.62521894  0.12417509  1
  V  V17  1  0.74961175  0.75019384  0.00023112  1
  V  V18  1  0.12813767  0.00031922  0.12626451  1
  V  V19  1  0.74947993  0.62578607  0.37465905  1
  V  V20  1  0.74953153  0.49986481  0.24937407  1
  V  V21  1  0.12478233  0.75026892  0.87589834  1
  V  V22  1  0.36864804  0.12148728  0.25714251  1
  V  V23  1  0.75137148  0.24995877  -0.00106417  1
  V  V24  1  0.37452469  0.62389444  0.75076588  1
  V  V25  1  0.25120026  0.87310636  0.12922329  1
  V  V26  1  0.75004026  0.12575340  0.37431785  1
  V  V27  1  0.75122413  0.12485882  0.87525012  1
  V  V28  1  0.12350097  0.62325441  0.00345714  1
  V  V29  1  0.87562563  0.49915786  0.37474844  1
  V  V30  1  0.87558654  0.00096241  0.37671484  1
  V  V31  1  0.87454915  0.87547453  0.50227096  1
  V  V32  1  0.00078514  0.37610812  0.37392178  1
  V  V33  1  0.12729410  0.24508260  0.37498915  1
  V  V34  1  -0.00047115  0.75078574  0.25202906  1
  V  V35  1  -0.00030734  0.87639887  0.87790456  1
  V  V36  1  0.37018397  0.36974190  -0.00224803  1
  V  V37  1  -0.00026660  0.74950685  0.74983088  1
  V  V38  1  0.49978784  0.37559789  0.37407881  1
  V  V39  1  0.37317602  0.24753898  0.12052524  1
  V  V40  1  0.25208168  0.74850099  0.00421279  1
  V  V41  1  0.49931035  0.12475198  0.12350325  1
  V  V42  1  0.87603555  -0.00021393  0.87482488  1
  V  V43  1  0.74917816  -0.00093438  0.75029379  1
  V  V44  1  0.49963718  0.74918762  0.75078719  1
  V  V45  1  0.24856894  0.12244853  0.87138360  1
  V  V46  1  0.75065636  0.49955949  0.74906734  1
  V  V47  1  0.12470745  0.49967113  0.62424974  1
  V  V48  1  0.37422015  0.37505028  0.49746655  1
  V  V49  1  0.12383992  0.75092410  0.37291337  1
  V  V50  1  0.62481169  0.74908004  0.87578601  1
  V  V51  1  0.37336679  0.12446163  0.74846207  1
  V  V52  1  0.87509840  0.49904905  0.87448289  1
  V  V53  1  0.12422603  0.62445627  0.50050692  1
  V  V54  1  -0.00160148  0.00626925  0.50873529  1
  V  V55  1  0.75126321  0.25089559  0.49983919  1
  V  V56  1  0.24847987  0.62337948  0.87501865  1
  V  V57  1  0.61962436  0.87419604  0.25172202  1
  V  V58  1  0.25071893  0.24643444  0.49697506  1
  V  V59  1  0.75131937  0.37464653  0.62448195  1
  V  V60  1  0.74881329  0.62542655  0.87551105  1
  V  V61  1  0.12811978  0.24990718  0.87628872  1
  V  V62  1  0.50018662  0.62454358  0.62433690  1
  V  V63  1  0.00068879  0.49960464  0.49927768  1
  V  V64  1  -0.00025254  0.87551618  0.37732739  1
  V  V65  1  0.12559363  0.37382336  0.25027891  1
  V  V66  1  0.62451725  0.12487551  0.50286698  1
  V  V67  1  0.37374198  0.75054391  0.62544238  1
  V  V68  1  0.49986819  0.50114456  0.49955005  1
  V  V69  1  0.62496595  0.25138964  0.37382454  1
  V  V70  1  0.87752142  0.12450153  0.74816901  1
  V  V71  1  0.87575871  0.12550464  0.24914859  1
  V  V72  1  0.87522113  0.37462034  -0.00096105  1
  V  V73  1  0.00274673  0.24514663  0.74661291  1
  V  V74  1  0.75059354  0.75077360  0.50007738  1
  V  V75  1  0.36930094  -0.00185622  0.86905073  1
  V  V76  1  0.62529522  0.87598549  0.75080590  1
  V  V77  1  0.13089898  0.12830973  0.00021228  1
  V  V78  1  0.49978377  -0.00013673  -0.00007130  1
  V  V79  1  0.24971366  0.75353704  0.50339101  1
  V  V80  1  0.62486805  0.00130246  0.12479097  1
  V  V81  1  -0.00103521  0.49928597  -0.00153304  1
  V  V82  1  0.13201653  0.87930106  0.75080013  1
  V  V83  1  0.12877422  0.00158020  0.62865972  1
  V  V84  1  0.62327958  0.50253418  0.12302244  1
  V  V85  1  0.62381115  0.37437685  0.24943742  1
  V  V86  1  0.75029583  0.37360516  0.12358186  1
  V  V87  1  0.87480339  0.62476660  0.24980658  1
  V  V88  1  0.12388364  0.12540028  0.50417621  1
  V  V89  1  0.25631892  0.62621082  0.37005880  1
  V  V90  1  0.62385547  0.37455788  0.74853049  1
  V  V91  1  0.62403812  0.24910079  0.87366270  1
  V  V92  1  0.24987822  0.37533881  0.62316754  1
  Zn  Zn93  1  -0.00067823  0.00072252  -0.00025934  1
  Zn  Zn94  1  0.37955920  0.50522468  0.36768179  1
  Zn  Zn95  1  -0.00012341  0.62375106  0.62525071  1
  Zn  Zn96  1  0.49892422  0.12535038  0.62719765  1
  Zn  Zn97  1  0.12520393  0.87867752  0.25232761  1
  Zn  Zn98  1  0.62504413  0.12495267  -0.00012758  1
  Zn  Zn99  1  0.62649102  0.50182363  0.62385222  1
  Zn  Zn100  1  0.12344615  0.49678196  0.12503727  1
  Zn  Zn101  1  0.00096687  0.37338814  0.87403963  1
  Zn  Zn102  1  0.47903171  0.63037818  0.12997976  1
  Zn  Zn103  1  0.62525006  -0.00142581  0.62628437  1
  Zn  Zn104  1  0.62546403  0.62561010  0.50073366  1
  Zn  Zn105  1  0.37613450  0.24992724  0.62601203  1
  Zn  Zn106  1  0.62161738  0.62753517  0.00108960  1
  Zn  Zn107  1  0.87545588  0.37477885  0.49935738  1
  Zn  Zn108  1  0.49267919  0.87533276  0.37512414  1
  Zn  Zn109  1  0.87560004  0.87667139  0.00170191  1
  Zn  Zn110  1  0.74886627  0.87582718  0.62594652  1
  Zn  Zn111  1  0.12416288  0.37394667  0.74979458  1
  Zn  Zn112  1  0.48037649  0.73771070  0.24736913  1
  Zn  Zn113  1  0.87546177  0.24963683  0.12458121  1
  Zn  Zn114  1  0.49715061  0.37233257  0.87238831  1
  Zn  Zn115  1  -0.00148778  0.25113021  0.25060194  1
  Zn  Zn116  1  0.49858255  0.24982599  0.24953598  1
  Zn  Zn117  1  0.25459017  0.87942587  0.63262029  1
  Zn  Zn118  1  0.24274945  0.00520487  0.26639449  1
  Zn  Zn119  1  0.37681659  0.87917455  0.50373453  1
  Zn  Zn120  1  0.49817398  0.24934123  0.74660607  1
  Zn  Zn121  1  0.36296442  0.00280504  0.38509218  1
  Zn  Zn122  1  0.18847719  0.18910317  0.18804757  1
  Zn  Zn123  1  0.18989348  0.18584654  0.68597980  1
  Zn  Zn124  1  0.31143414  0.68888035  0.18901794  1
  Zn  Zn125  1  0.18567533  0.68704680  0.68796900  1
  Zn  Zn126  1  0.68710805  0.18813180  0.18662483  1
  Zn  Zn127  1  0.69222000  0.18821518  0.68748348  1
  Zn  Zn128  1  0.68174541  0.68910071  0.18681714  1
  Zn  Zn129  1  0.68700285  0.68805772  0.68642014  1
  Zn  Zn130  1  0.31352149  0.31214595  0.31062839  1
  Zn  Zn131  1  0.30848251  0.30954190  0.81121653  1
  Zn  Zn132  1  0.31114242  0.82396904  0.31883516  1
  Zn  Zn133  1  0.31277279  0.80915768  0.81641810  1
  Zn  Zn134  1  0.81338102  0.31225884  0.31056805  1
  Zn  Zn135  1  0.81339155  0.31224172  0.81146080  1
  Zn  Zn136  1  0.81103107  0.81373451  0.31335575  1
  Zn  Zn137  1  0.81247491  0.81262532  0.81266624  1
  Zn  Zn138  1  0.18807606  0.43734804  0.43536043  1
  Zn  Zn139  1  0.18677265  0.43622913  0.93617996  1
  Zn  Zn140  1  0.18645394  0.93837869  0.44078671  1
  Zn  Zn141  1  0.18717825  0.93930276  0.94100210  1
  Zn  Zn142  1  0.68690820  0.43748823  0.43756018  1
  Zn  Zn143  1  0.68850305  0.43577813  0.93586100  1
  Zn  Zn144  1  0.68748424  0.93741699  0.43765012  1
  Zn  Zn145  1  0.68769103  0.93670250  0.93803273  1
  Zn  Zn146  1  0.31215916  0.06053658  0.06037254  1
  Zn  Zn147  1  0.30932220  0.06398469  0.56238105  1
  Zn  Zn148  1  0.30890998  0.55440768  0.05962663  1
  Zn  Zn149  1  0.31293138  0.56399534  0.55988396  1
  Zn  Zn150  1  0.81320286  0.06172365  0.06007731  1
  Zn  Zn151  1  0.80979882  0.06280706  0.56476353  1
  Zn  Zn152  1  0.81108417  0.56284673  0.06144101  1
  Zn  Zn153  1  0.81324437  0.56318639  0.56189347  1
  Zn  Zn154  1  0.43853450  0.43804631  0.18568696  1
  Zn  Zn155  1  0.43720845  0.43609110  0.68407227  1
  Zn  Zn156  1  0.43697422  0.93924087  0.18836744  1
  Zn  Zn157  1  0.44124639  0.93934448  0.68370672  1
  Zn  Zn158  1  0.93777596  0.43704343  0.18611790  1
  Zn  Zn159  1  0.93939462  0.43298689  0.68737004  1
  Zn  Zn160  1  0.93899942  0.93822547  0.18919924  1
  Zn  Zn161  1  0.93910393  0.93576990  0.68924570  1
  Zn  Zn162  1  0.06132635  0.06364865  0.31509147  1
  Zn  Zn163  1  0.06139337  0.06258686  0.81070296  1
  Zn  Zn164  1  0.06708127  0.56282551  0.31077465  1
  Zn  Zn165  1  0.06176283  0.56156363  0.81229549  1
  Zn  Zn166  1  0.55820315  0.06402755  0.31219964  1
  Zn  Zn167  1  0.55984801  0.06197076  0.81322364  1
  Zn  Zn168  1  0.56048973  0.56587119  0.30932789  1
  Zn  Zn169  1  0.56235111  0.56115701  0.81336168  1
  Zn  Zn170  1  0.43982752  0.18950101  0.43782695  1
  Zn  Zn171  1  0.43836295  0.18600570  0.93538668  1
  Zn  Zn172  1  0.43757174  0.69057101  0.43686432  1
  Zn  Zn173  1  0.43647995  0.68486918  0.94119510  1
  Zn  Zn174  1  0.93990186  0.18807785  0.43704697  1
  Zn  Zn175  1  0.94067267  0.18730513  0.93703294  1
  Zn  Zn176  1  0.93659269  0.68581103  0.43923000  1
  Zn  Zn177  1  0.93530583  0.68854782  0.93717379  1
  Zn  Zn178  1  0.06147301  0.31110085  0.06040525  1
  Zn  Zn179  1  0.06249462  0.31512039  0.56183556  1
  Zn  Zn180  1  0.06534144  0.81066377  0.06484163  1
  Zn  Zn181  1  0.06211571  0.81500847  0.56467689  1
  Zn  Zn182  1  0.56060800  0.31297374  0.06092961  1
  Zn  Zn183  1  0.55991376  0.31056851  0.56374865  1
  Zn  Zn184  1  0.56053898  0.81103582  0.06532630  1
  Zn  Zn185  1  0.56325372  0.81399377  0.56364953  1
  O  O186  1  0.12149336  0.12069894  0.11867792  1
  O  O187  1  0.12746060  0.11706787  0.61450318  1
  O  O188  1  0.11759570  0.62220066  0.10744129  1
  O  O189  1  0.12307715  0.61804223  0.61868970  1
  O  O190  1  0.61810999  0.11886977  0.12378405  1
  O  O191  1  0.62854639  0.12657663  0.61104127  1
  O  O192  1  0.63193529  0.60695270  0.12125649  1
  O  O193  1  0.61624878  0.62302977  0.62248050  1
  O  O194  1  0.38171963  0.37615538  0.38030200  1
  O  O195  1  0.37252861  0.37728572  0.88261239  1
  O  O196  1  0.37768495  0.88434404  0.38656732  1
  O  O197  1  0.37761535  0.88185716  0.88160712  1
  O  O198  1  0.88158671  0.38173973  0.37449577  1
  O  O199  1  0.87509973  0.38153635  0.88111296  1
  O  O200  1  0.87973753  0.88155473  0.38166492  1
  O  O201  1  0.88592281  0.87976407  0.87435867  1
  O  O202  1  0.24902353  0.00425041  0.37883746  1
  O  O203  1  0.25941866  0.00821020  0.88012320  1
  O  O204  1  0.24997231  0.50892617  0.36731643  1
  O  O205  1  0.25483294  0.50418252  0.86887289  1
  O  O206  1  0.75626449  0.00629277  0.37042934  1
  O  O207  1  0.75588674  0.00505236  0.87033564  1
  O  O208  1  0.75435347  0.50507316  0.36894535  1
  O  O209  1  0.75539987  0.50522534  0.86910956  1
  O  O210  1  0.24622265  0.48666411  0.13173172  1
  O  O211  1  0.24501340  0.49587834  0.62836660  1
  O  O212  1  0.23905205  0.99275531  0.12151024  1
  O  O213  1  0.23334621  0.99536765  0.61661897  1
  O  O214  1  0.74336563  0.49285692  0.12869287  1
  O  O215  1  0.74929342  0.49344100  0.63086059  1
  O  O216  1  0.74533359  0.99602320  0.13057336  1
  O  O217  1  0.74690069  0.99753618  0.63467204  1
  O  O218  1  0.00768598  0.37416305  0.25456463  1
  O  O219  1  0.00301247  0.36046886  0.75365627  1
  O  O220  1  0.00156844  0.86892762  0.25865000  1
  O  O221  1  0.00907322  0.86964687  0.76069311  1
  O  O222  1  0.50627505  0.37454494  0.25550758  1
  O  O223  1  0.51111447  0.37386333  0.75086854  1
  O  O224  1  0.51404089  0.87905720  0.25167862  1
  O  O225  1  0.50391162  0.86868046  0.75681996  1
  O  O226  1  0.48857737  0.12713338  0.24095452  1
  O  O227  1  0.48724082  0.12617621  0.75099622  1
  O  O228  1  0.49167975  0.62157045  0.24571042  1
  O  O229  1  0.49366658  0.62908318  0.74591609  1
  O  O230  1  0.99495371  0.12530255  0.24096267  1
  O  O231  1  0.99361789  0.13700803  0.75363512  1
  O  O232  1  0.99508379  0.63012377  0.24485346  1
  O  O233  1  0.99325399  0.63188611  0.75010009  1
  O  O234  1  0.38014215  0.25919130  0.00731747  1
  O  O235  1  0.36424045  0.25401595  0.49836719  1
  O  O236  1  0.36910361  0.76510944  -0.00873451  1
  O  O237  1  0.36481233  0.75005674  0.50739668  1
  O  O238  1  0.86935147  0.25572751  -0.00000054  1
  O  O239  1  0.87072166  0.24967192  0.50761689  1
  O  O240  1  0.86851995  0.75255908  0.00753495  1
  O  O241  1  0.87076567  0.75564924  0.50475704  1
  O  O242  1  0.12962638  0.24387327  0.49523711  1
  O  O243  1  0.11827921  0.23822370  0.98871012  1
  O  O244  1  0.12934738  0.74561492  0.49349927  1
  O  O245  1  0.13018962  0.74176165  0.99480268  1
  O  O246  1  0.63073815  0.24319624  0.49396662  1
  O  O247  1  0.63098268  0.25132556  0.98880467  1
  O  O248  1  0.63070746  0.75111161  0.48933792  1
  O  O249  1  0.63145506  0.74926499  0.99243904  1
  O  O250  1  0.48963656  0.24529405  0.12515101  1
  O  O251  1  0.49415376  0.24323288  0.62751727  1
  O  O252  1  0.51984106  0.73879983  0.13658208  1
  O  O253  1  0.49382171  0.74456143  0.63106227  1
  O  O254  1  1.00056433  0.23644114  0.12702949  1
  O  O255  1  0.99087725  0.25531562  0.63254753  1
  O  O256  1  0.99484574  0.74507232  0.13117328  1
  O  O257  1  0.99371378  0.74891949  0.63206467  1
  O  O258  1  0.01052811  0.25677519  0.37466053  1
  O  O259  1  0.01083985  0.24910800  0.86585205  1
  O  O260  1  0.00499442  0.75456999  0.37345641  1
  O  O261  1  0.00476305  0.75781687  0.87066697  1
  O  O262  1  0.50794121  0.25805335  0.37350432  1
  O  O263  1  0.51228013  0.25165210  0.87274016  1
  O  O264  1  0.51207828  0.75277450  0.37276271  1
  O  O265  1  0.50372705  0.75381633  0.87067962  1
  O  O266  1  0.23916024  0.13774081  0.50325774  1
  O  O267  1  0.23885127  0.12146482  0.98983199  1
  O  O268  1  0.24338702  0.63415627  0.49333405  1
  O  O269  1  0.23985612  0.62678301  0.99310256  1
  O  O270  1  0.74308912  0.13005021  0.49335942  1
  O  O271  1  0.74800032  0.13127714  0.99283665  1
  O  O272  1  0.74870401  0.63167460  0.49244522  1
  O  O273  1  0.74799801  0.63160612  0.99279882  1
  O  O274  1  0.26080824  0.38215839  0.00962233  1
  O  O275  1  0.25401784  0.36779425  0.50355763  1
  O  O276  1  0.25586714  0.87046867  0.00594123  1
  O  O277  1  0.24656853  0.85984638  0.50533545  1
  O  O278  1  0.75585483  0.36995896  0.00420189  1
  O  O279  1  0.75116901  0.36825384  0.50556192  1
  O  O280  1  0.75134830  0.86846621  0.00743503  1
  O  O281  1  0.75753194  0.86959391  0.50104946  1
  O  O282  1  0.13578008  0.49232554  0.24763947  1
  O  O283  1  0.13138781  0.49875373  0.74402125  1
  O  O284  1  0.12484587  1.00238921  0.23880772  1
  O  O285  1  0.11710277  0.99140923  0.74017038  1
  O  O286  1  0.63060758  0.49380053  0.24148930  1
  O  O287  1  0.63120440  0.48957343  0.75003636  1
  O  O288  1  0.63039422  0.99399222  0.24643048  1
  O  O289  1  0.63059759  0.99405858  0.75228042  1
  O  O290  1  0.37456208  0.01562613  0.24943651  1
  O  O291  1  0.38041692  0.00600092  0.76273090  1
  O  O292  1  0.35918065  0.49090402  0.25013571  1
  O  O293  1  0.36945950  0.50422297  0.75429421  1
  O  O294  1  0.86997576  0.00549724  0.25696308  1
  O  O295  1  0.87118023  0.00482736  0.75509544  1
  O  O296  1  0.86920508  0.50551851  0.25453084  1
  O  O297  1  0.87040599  0.50394075  0.75434225  1
  O  O298  1  0.11989007  0.36665304  0.37033473  1
  O  O299  1  0.12566332  0.36190234  0.87348775  1
  O  O300  1  0.11730511  0.86641329  0.37828151  1
  O  O301  1  0.11891752  0.87216655  0.87035761  1
  O  O302  1  0.62034193  0.37045342  0.36888860  1
  O  O303  1  0.62672448  0.36570955  0.86461236  1
  O  O304  1  0.62606730  0.86815230  0.36673446  1
  O  O305  1  0.61763203  0.86911766  0.87087814  1
  O  O306  1  0.37832036  0.13213724  0.12636979  1
  O  O307  1  0.37037684  0.12444184  0.63960888  1
  O  O308  1  0.36712715  0.63154753  0.11063086  1
  O  O309  1  0.37990193  0.63008382  0.63181400  1
  O  O310  1  0.88524221  0.12316121  0.12929064  1
  O  O311  1  0.86863453  0.13813391  0.63124657  1
  O  O312  1  0.87966839  0.63053117  0.13065469  1
  O  O313  1  0.87694679  0.63162962  0.63201844  1
  O  O314  1  0.25982824  0.26105133  0.12781985  1
  O  O315  1  0.25000789  0.25655417  0.61338028  1
  O  O316  1  0.24639658  0.76721024  0.11834596  1
  O  O317  1  0.25449381  0.74826962  0.61755832  1
  O  O318  1  0.75009341  0.25617747  0.11710806  1
  O  O319  1  0.75984231  0.25541424  0.61974649  1
  O  O320  1  0.75424064  0.75514547  0.12090301  1
  O  O321  1  0.75687594  0.75139229  0.61821943  1
  O  O322  1  0.23791560  0.25816130  0.38549744  1
  O  O323  1  0.23708107  0.23761987  0.87103746  1
  O  O324  1  0.24051710  0.74513062  0.38400235  1
  O  O325  1  0.24386161  0.74248422  0.88264363  1
  O  O326  1  0.74533280  0.24515441  0.37993843  1
  O  O327  1  0.74294759  0.24490069  0.87853462  1
  O  O328  1  0.74411362  0.74553877  0.38066467  1
  O  O329  1  0.74484848  0.74519065  0.87984269  1
  O  O330  1  0.00987404  0.12282608  0.00886647  1
  O  O331  1  0.00809006  0.11491798  0.49796848  1
  O  O332  1  0.00480544  0.62065304  0.00279720  1
  O  O333  1  0.00651011  0.61756244  0.50074833  1
  O  O334  1  0.50091733  0.11753448  0.00520969  1
  O  O335  1  0.51084584  0.11987965  0.49902126  1
  O  O336  1  0.50111197  0.60919866  0.00060976  1
  O  O337  1  0.49949352  0.61648426  0.50470366  1
  O  O338  1  0.49541297  0.38242603  0.49502721  1
  O  O339  1  0.48896996  0.38313434  0.99791950  1
  O  O340  1  0.50226595  0.88815007  0.49967031  1
  O  O341  1  0.49137795  0.87911306  0.99596441  1
  O  O342  1  0.99857627  0.38222645  0.49176703  1
  O  O343  1  0.99368922  0.38106522  0.99799763  1
  O  O344  1  0.99412303  0.88465203  0.49625681  1
  O  O345  1  1.00183237  0.87486683  0.98770136  1
  O  O346  1  0.49929209  0.49481897  0.38363839  1
  O  O347  1  0.49351385  0.49582845  0.88260987  1
  O  O348  1  0.49812020  1.00101077  0.38754414  1
  O  O349  1  0.49051060  0.99328536  0.88083837  1
  O  O350  1  0.99614628  0.49599109  0.37845064  1
  O  O351  1  0.99271568  0.49765517  0.88032422  1
  O  O352  1  0.99479024  0.99603582  0.38568233  1
  O  O353  1  0.99553899  0.99096504  0.87457879  1
  O  O354  1  0.00963678  0.00886816  0.12445725  1
  O  O355  1  0.00831687  -0.00554180  0.61459460  1
  O  O356  1  0.00154215  0.50723586  0.11765404  1
  O  O357  1  0.00616754  0.49954519  0.61824892  1
  O  O358  1  0.50542806  0.00486204  0.11880129  1
  O  O359  1  0.50622501  0.00645578  0.61454397  1
  O  O360  1  0.50842080  0.49710263  0.11469089  1
  O  O361  1  0.50085236  0.50543527  0.61523936  1
  O  O362  1  0.24451322  0.37978263  0.24195261  1
  O  O363  1  0.24859372  0.38116901  0.74191850  1
  O  O364  1  0.24536422  0.88430582  0.23953459  1
  O  O365  1  0.23568429  0.86924579  0.75346540  1
  O  O366  1  0.74425520  0.38077135  0.24425376  1
  O  O367  1  0.74295686  0.37948645  0.74487663  1
  O  O368  1  0.74255931  0.88206769  0.24562352  1
  O  O369  1  0.74308941  0.88153621  0.75218587  1
  O  O370  1  0.26540923  0.12374419  0.24212341  1
  O  O371  1  0.25758408  0.12505160  0.76185377  1
  O  O372  1  0.24798468  0.61485816  0.25946064  1
  O  O373  1  0.25484198  0.61932655  0.75587777  1
  O  O374  1  0.75473645  0.11953823  0.25482364  1
  O  O375  1  0.75706270  0.11960213  0.75666064  1
  O  O376  1  0.75522463  0.61956738  0.25429632  1
  O  O377  1  0.75527676  0.61969119  0.75545205  1
  O  O378  1  0.37912067  0.12910934  0.35852605  1
  O  O379  1  0.36694797  0.11778676  0.87104854  1
  O  O380  1  0.35918134  0.62439358  0.38247468  1
  O  O381  1  0.36853677  0.61793922  0.87063263  1
  O  O382  1  0.87023257  0.12015553  0.37037142  1
  O  O383  1  0.87099784  0.11982546  0.86886545  1
  O  O384  1  0.86981654  0.61958762  0.36839958  1
  O  O385  1  0.86865305  0.61964634  0.86901810  1
  O  O386  1  0.13394152  0.37151141  0.12849399  1
  O  O387  1  0.13243711  0.38204825  0.62548601  1
  O  O388  1  0.13142017  0.88494639  0.12496988  1
  O  O389  1  0.12542574  0.88181938  0.63579270  1
  O  O390  1  0.62958269  0.38295194  0.12851788  1
  O  O391  1  0.63161506  0.37371892  0.63495147  1
  O  O392  1  0.63147920  0.88200167  0.13408623  1
  O  O393  1  0.62787720  0.87582860  0.63619004  1
  O  O394  1  0.12535750  0.25385485  0.26035379  1
  O  O395  1  0.11820132  0.24695671  0.75638225  1
  O  O396  1  0.11715037  0.75356267  0.26835556  1
  O  O397  1  0.11964597  0.75701154  0.75653269  1
  O  O398  1  0.62360461  0.25658397  0.25570361  1
  O  O399  1  0.62802574  0.25774257  0.75804104  1
  O  O400  1  0.63334370  0.76185001  0.26223778  1
  O  O401  1  0.61865868  0.75484088  0.75678364  1
  O  O402  1  0.37576826  0.24052972  0.23862256  1
  O  O403  1  0.37548502  0.23803972  0.75125268  1
  O  O404  1  0.37008872  0.75912834  0.25227433  1
  O  O405  1  0.37979149  0.74327508  0.74712790  1
  O  O406  1  0.87746737  0.24131346  0.24610833  1
  O  O407  1  0.88224199  0.24507316  0.74346170  1
  O  O408  1  0.87968064  0.74453598  0.24583873  1
  O  O409  1  0.87976164  0.74465584  0.74579346  1
  O  O410  1  0.38528649  0.49474651  0.49728960  1
  O  O411  1  0.38158010  0.48858221  0.99347579  1
  O  O412  1  0.38733913  1.00482824  0.50377513  1
  O  O413  1  0.37914372  0.99154167  0.98974085  1
  O  O414  1  0.88135752  0.49869728  0.49200857  1
  O  O415  1  0.87943574  0.49540675  0.99414856  1
  O  O416  1  0.88124359  0.99782668  0.49731285  1
  O  O417  1  0.87908280  0.99628698  0.99118766  1
  O  O418  1  0.12188315  0.01005436  0.00895993  1
  O  O419  1  0.11563452  0.00713456  0.50770410  1
  O  O420  1  0.11830766  0.50751279  -0.00201660  1
  O  O421  1  0.12085274  0.50501978  0.50400748  1
  O  O422  1  0.61809711  0.00041834  0.00620860  1
  O  O423  1  0.62044319  0.01053192  0.49913694  1
  O  O424  1  0.61626183  0.49559914  0.00575919  1
  O  O425  1  0.61223722  0.50119198  0.50106405  1
  O  O426  1  0.36872912  0.36687318  0.11768083  1
  O  O427  1  0.36736382  0.37343263  0.61583393  1
  O  O428  1  0.36498419  0.88765925  0.11243986  1
  O  O429  1  0.37178161  0.86765322  0.62467134  1
  O  O430  1  0.86831125  0.37345668  0.11787794  1
  O  O431  1  0.86906826  0.36295918  0.62392552  1
  O  O432  1  0.86928884  0.86920047  0.12598455  1
  O  O433  1  0.87409415  0.86823602  0.61984601  1
  O  O434  1  0.11880397  0.13652237  0.38697509  1
  O  O435  1  0.13060492  0.12742760  0.88056838  1
  O  O436  1  0.13278262  0.63329567  0.38059773  1
  O  O437  1  0.12797564  0.62975824  0.88321367  1
  O  O438  1  0.63055041  0.13080732  0.38188205  1
  O  O439  1  0.63113216  0.13458910  0.87452033  1
  O  O440  1  0.63186961  0.63576561  0.37468866  1
  O  O441  1  0.63101461  0.63085711  0.87597431  1
