# generated using pymatgen
data_V93Zn93O256
_symmetry_space_group_name_H-M   'P 1'
_cell_length_a   17.05474514
_cell_length_b   17.05971407
_cell_length_c   17.05746372
_cell_angle_alpha   89.97538216
_cell_angle_beta   89.98642497
_cell_angle_gamma   89.97872298
_symmetry_Int_Tables_number   1
_chemical_formula_structural   V93Zn93O256
_chemical_formula_sum   'V93 Zn93 O256'
_cell_volume   4962.85236193
_cell_formula_units_Z   1
loop_
 _symmetry_equiv_pos_site_id
 _symmetry_equiv_pos_as_xyz
  1  'x, y, z'
loop_
 _atom_site_type_symbol
 _atom_site_label
 _atom_site_symmetry_multiplicity
 _atom_site_fract_x
 _atom_site_fract_y
 _atom_site_fract_z
 _atom_site_occupancy
  V  V0  1  0.00020847  0.12533675  0.12523188  1
  V  V1  1  0.25121399  0.37314156  0.12407488  1
  V  V2  1  0.49933496  0.12385071  0.12690287  1
  V  V3  1  0.50083464  0.12732646  0.62729317  1
  V  V4  1  0.37543489  0.24823199  0.12491459  1
  V  V5  1  0.37409027  -0.00006062  0.87670909  1
  V  V6  1  0.86959504  0.49944145  0.86764105  1
  V  V7  1  0.87498020  0.00067567  0.87459433  1
  V  V8  1  0.62426612  0.63018423  0.49700227  1
  V  V9  1  0.12512869  -0.00011566  0.62541270  1
  V  V10  1  0.74921878  0.62269190  0.86877915  1
  V  V11  1  0.75009040  0.25035087  -0.00030427  1
  V  V12  1  0.87451136  0.37480755  -0.00207046  1
  V  V13  1  0.75029857  0.38016517  0.62931846  1
  V  V14  1  0.49834657  0.75041961  0.75093079  1
  V  V15  1  0.87608304  0.12459989  0.24943187  1
  V  V16  1  0.13023461  -0.00520565  0.12912109  1
  V  V17  1  0.12413822  0.49867452  0.62686594  1
  V  V18  1  0.74697267  0.75248232  0.49578748  1
  V  V19  1  0.50237605  0.75434223  0.25739341  1
  V  V20  1  0.62948331  0.50236932  0.63233249  1
  V  V21  1  0.62465950  0.87625820  0.75078421  1
  V  V22  1  0.13084500  0.12463002  0.49337279  1
  V  V23  1  -0.00183022  0.49910312  -0.00196377  1
  V  V24  1  0.37495380  0.37555606  0.50053718  1
  V  V25  1  0.37400729  0.62428913  0.25115995  1
  V  V26  1  0.49941280  0.87486825  0.87761964  1
  V  V27  1  0.62477193  0.12458167  0.00156452  1
  V  V28  1  0.12372135  0.37295307  0.25017489  1
  V  V29  1  0.12503727  0.74940279  0.87640150  1
  V  V30  1  0.00396273  0.75334456  0.24837936  1
  V  V31  1  0.62726938  0.12852226  0.49844329  1
  V  V32  1  0.62516312  0.37497105  0.25135256  1
  V  V33  1  0.87508718  0.74833350  0.12584768  1
  V  V34  1  0.00069448  -0.00030278  0.00030741  1
  V  V35  1  0.00081471  0.12542419  0.62445758  1
  V  V36  1  0.50258652  0.37558856  0.37534116  1
  V  V37  1  0.12452545  0.87517756  0.75020242  1
  V  V38  1  0.37557222  0.87638056  0.50011976  1
  V  V39  1  -0.00063506  0.49956635  0.49884878  1
  V  V40  1  0.37426045  0.49872524  0.87485753  1
  V  V41  1  0.25066225  0.00128617  0.75100054  1
  V  V42  1  0.24983005  0.62398123  0.37683629  1
  V  V43  1  0.24813801  -0.00205846  0.25670562  1
  V  V44  1  0.49916967  -0.00162712  0.00233349  1
  V  V45  1  0.75071357  0.50201588  0.25025002  1
  V  V46  1  0.12319263  0.49570002  0.12227969  1
  V  V47  1  0.49646974  0.63014992  0.12491198  1
  V  V48  1  0.87504728  0.87599661  0.49992637  1
  V  V49  1  0.75088234  0.00031480  0.25036895  1
  V  V50  1  0.87438090  0.25123376  0.62074424  1
  V  V51  1  0.24575374  0.37424039  0.62765295  1
  V  V52  1  0.00546422  0.25641687  0.74897951  1
  V  V53  1  0.62356958  0.50050396  0.12454951  1
  V  V54  1  0.37455479  0.74978401  0.62666226  1
  V  V55  1  0.62483790  0.75055013  0.87653649  1
  V  V56  1  0.87501233  0.74968823  0.62391967  1
  V  V57  1  0.00112892  -0.00020468  0.49990122  1
  V  V58  1  0.36179445  0.86855235  0.00686424  1
  V  V59  1  0.74959669  0.87541757  0.62525713  1
  V  V60  1  0.12670662  0.75227702  0.37161006  1
  V  V61  1  0.49792494  0.50066184  0.00038175  1
  V  V62  1  0.62479893  0.25107481  0.87489020  1
  V  V63  1  -0.00080190  0.62496386  0.62422595  1
  V  V64  1  0.49919866  0.00166201  0.49832277  1
  V  V65  1  -0.00154440  0.74850234  0.74854635  1
  V  V66  1  0.87607071  0.00107880  0.37437284  1
  V  V67  1  0.74909827  0.87487186  0.12588839  1
  V  V68  1  0.37429772  0.49978214  0.37612368  1
  V  V69  1  0.37617082  0.12481062  0.75176217  1
  V  V70  1  0.00433746  0.87378049  0.37313036  1
  V  V71  1  0.12491164  0.62601539  0.49930574  1
  V  V72  1  0.74963963  0.37600727  0.12504549  1
  V  V73  1  0.74743899  0.62981014  0.37308917  1
  V  V74  1  0.24311711  0.49511711  0.75128597  1
  V  V75  1  0.00001018  0.37479742  0.37573582  1
  V  V76  1  0.87513340  0.12531016  0.75006791  1
  V  V77  1  0.24852806  0.62864355  0.87738425  1
  V  V78  1  0.12627612  0.62738767  -0.00040699  1
  V  V79  1  0.74923465  0.74962837  0.00004586  1
  V  V80  1  0.12832014  0.12579048  -0.00081778  1
  V  V81  1  -0.00104624  0.87455457  0.87364561  1
  V  V82  1  0.75090293  0.12527927  0.87528412  1
  V  V83  1  0.87422322  0.87434639  -0.00098141  1
  V  V84  1  0.25128115  0.24723330  0.49407129  1
  V  V85  1  0.36991409  0.12436347  0.25838494  1
  V  V86  1  0.87579178  0.24915059  0.12432868  1
  V  V87  1  0.50131846  0.25445143  0.75114929  1
  V  V88  1  0.62485828  -0.00166932  0.12849858  1
  V  V89  1  0.62583262  0.00051123  0.62653284  1
  V  V90  1  0.49956958  0.62536487  0.62562127  1
  V  V91  1  0.25009709  0.87402100  0.62626866  1
  V  V92  1  0.12535987  0.25566536  0.87132752  1
  Zn  Zn93  1  0.50183553  0.37717204  0.87551249  1
  Zn  Zn94  1  0.74867368  0.25344351  0.49793977  1
  Zn  Zn95  1  0.12882049  0.24522807  0.37096253  1
  Zn  Zn96  1  0.75001547  0.00024589  0.75079644  1
  Zn  Zn97  1  -0.00006860  0.24879063  0.25100324  1
  Zn  Zn98  1  0.24985519  0.49771273  0.25142242  1
  Zn  Zn99  1  0.25052789  0.12698915  0.87364653  1
  Zn  Zn100  1  0.87675711  0.62412531  0.25023837  1
  Zn  Zn101  1  0.62935318  0.38170278  0.75399203  1
  Zn  Zn102  1  0.87147815  0.37724272  0.49716563  1
  Zn  Zn103  1  0.62469797  0.62614859  -0.00036392  1
  Zn  Zn104  1  0.19711782  0.83403773  0.17948370  1
  Zn  Zn105  1  0.87047264  0.62022910  0.74525096  1
  Zn  Zn106  1  0.00265120  0.37814655  0.86888344  1
  Zn  Zn107  1  0.50725596  0.87103092  0.38143167  1
  Zn  Zn108  1  0.36790088  0.00529073  0.37966538  1
  Zn  Zn109  1  0.50217207  0.24747935  0.25143547  1
  Zn  Zn110  1  0.37465034  0.25174558  0.62687019  1
  Zn  Zn111  1  0.24957374  0.75053820  0.49982243  1
  Zn  Zn112  1  0.37570574  0.37247869  0.00017652  1
  Zn  Zn113  1  0.75203717  0.12851508  0.37504830  1
  Zn  Zn114  1  0.25173830  0.24960097  -0.00391815  1
  Zn  Zn115  1  0.50103685  0.50049040  0.50242479  1
  Zn  Zn116  1  0.87403229  0.50040430  0.37414212  1
  Zn  Zn117  1  0.35668191  0.75016920  0.12401625  1
  Zn  Zn118  1  0.37258310  0.62513725  0.74849945  1
  Zn  Zn119  1  0.62897577  0.25071738  0.37356175  1
  Zn  Zn120  1  0.63191248  0.86962475  0.26012017  1
  Zn  Zn121  1  -0.00256152  0.62330664  0.12704516  1
  Zn  Zn122  1  0.18982605  0.18462475  0.18725352  1
  Zn  Zn123  1  0.18855616  0.18689780  0.68493180  1
  Zn  Zn124  1  0.18517401  0.67270252  0.18869156  1
  Zn  Zn125  1  0.18743487  0.68602853  0.68903260  1
  Zn  Zn126  1  0.68817535  0.18782717  0.18911362  1
  Zn  Zn127  1  0.68885713  0.18969573  0.68720888  1
  Zn  Zn128  1  0.68420586  0.68739851  0.18656659  1
  Zn  Zn129  1  0.68623654  0.69029375  0.68636528  1
  Zn  Zn130  1  0.31474798  0.31257984  0.31156274  1
  Zn  Zn131  1  0.31283651  0.31220415  0.81295364  1
  Zn  Zn132  1  0.31871867  0.81102322  0.31545943  1
  Zn  Zn133  1  0.31298516  0.81370142  0.81497308  1
  Zn  Zn134  1  0.81225859  0.31102233  0.31258670  1
  Zn  Zn135  1  0.81407137  0.31217262  0.81038752  1
  Zn  Zn136  1  0.81635996  0.81190770  0.31209764  1
  Zn  Zn137  1  0.81160988  0.81042766  0.81101667  1
  Zn  Zn138  1  0.18708798  0.43708929  0.43913796  1
  Zn  Zn139  1  0.18823660  0.43674805  0.93863543  1
  Zn  Zn140  1  0.18848772  0.93684971  0.43560870  1
  Zn  Zn141  1  0.18635207  0.93947223  0.93650342  1
  Zn  Zn142  1  0.68808302  0.44232621  0.44175818  1
  Zn  Zn143  1  0.68619798  0.43846427  0.93745278  1
  Zn  Zn144  1  0.68689484  0.93942724  0.43466199  1
  Zn  Zn145  1  0.68744777  0.93843861  0.93852532  1
  Zn  Zn146  1  0.31142553  0.05842438  0.06652859  1
  Zn  Zn147  1  0.31314161  0.06431415  0.56730684  1
  Zn  Zn148  1  0.31107358  0.56102325  0.06335434  1
  Zn  Zn149  1  0.31235414  0.56187495  0.56178219  1
  Zn  Zn150  1  0.81224686  0.06178464  0.06294187  1
  Zn  Zn151  1  0.81165974  0.06258861  0.56278043  1
  Zn  Zn152  1  0.81205415  0.56442068  0.05980840  1
  Zn  Zn153  1  0.81196707  0.56205013  0.55890877  1
  Zn  Zn154  1  0.43769288  0.43836505  0.18998988  1
  Zn  Zn155  1  0.43633158  0.43964885  0.68671779  1
  Zn  Zn156  1  0.43144842  0.93811939  0.18783047  1
  Zn  Zn157  1  0.43836803  0.93846377  0.68748912  1
  Zn  Zn158  1  0.93561263  0.43733783  0.18791162  1
  Zn  Zn159  1  0.93725964  0.43625221  0.68472967  1
  Zn  Zn160  1  0.93866797  0.93644629  0.18654984  1
  Zn  Zn161  1  0.93696352  0.93763922  0.68736713  1
  Zn  Zn162  1  0.06235060  0.06002965  0.31096537  1
  Zn  Zn163  1  0.06203464  0.06577243  0.81237095  1
  Zn  Zn164  1  0.06292544  0.56273613  0.31179687  1
  Zn  Zn165  1  0.06009639  0.56270502  0.81169690  1
  Zn  Zn166  1  0.56159472  0.06170880  0.31318464  1
  Zn  Zn167  1  0.56196634  0.06293065  0.81443702  1
  Zn  Zn168  1  0.56247839  0.56261990  0.31247064  1
  Zn  Zn169  1  0.56155023  0.56657655  0.81231862  1
  Zn  Zn170  1  0.43959114  0.19158317  0.43932232  1
  Zn  Zn171  1  0.43841456  0.18650069  0.93761922  1
  Zn  Zn172  1  0.43586682  0.68688373  0.43969976  1
  Zn  Zn173  1  0.43444886  0.68855614  0.93774028  1
  Zn  Zn174  1  0.94245772  0.18734127  0.43548630  1
  Zn  Zn175  1  0.94042065  0.18779085  0.93646241  1
  Zn  Zn176  1  0.93529851  0.68704816  0.43524140  1
  Zn  Zn177  1  0.93583544  0.68555055  0.93615685  1
  Zn  Zn178  1  0.06120263  0.31118305  0.05938944  1
  Zn  Zn179  1  0.06498568  0.31153879  0.56018362  1
  Zn  Zn180  1  0.05907052  0.81050663  0.05981613  1
  Zn  Zn181  1  0.06312312  0.81137826  0.56030901  1
  Zn  Zn182  1  0.56176252  0.31315851  0.06303202  1
  Zn  Zn183  1  0.56362522  0.31544728  0.56448564  1
  Zn  Zn184  1  0.56106770  0.81384311  0.06467675  1
  Zn  Zn185  1  0.56240468  0.81244661  0.56487034  1
  O  O186  1  0.12018079  0.11794046  0.11655848  1
  O  O187  1  0.11991993  0.11860960  0.61668371  1
  O  O188  1  0.12047117  0.61339839  0.11385969  1
  O  O189  1  0.11904568  0.61924917  0.61995662  1
  O  O190  1  0.61988330  0.11975842  0.12004791  1
  O  O191  1  0.62035202  0.12054277  0.61899350  1
  O  O192  1  0.61284258  0.61877041  0.12251844  1
  O  O193  1  0.62132613  0.62024753  0.61899803  1
  O  O194  1  0.38307464  0.37982257  0.37910498  1
  O  O195  1  0.37537853  0.38791227  0.87851167  1
  O  O196  1  0.38152656  0.87727720  0.39154749  1
  O  O197  1  0.38026260  0.88030142  0.88455857  1
  O  O198  1  0.88792603  0.37607004  0.37534600  1
  O  O199  1  0.87431659  0.38291963  0.88046766  1
  O  O200  1  0.88266711  0.88104310  0.38191596  1
  O  O201  1  0.87947487  0.87993048  0.87933806  1
  O  O202  1  0.25028678  0.00120519  0.36449138  1
  O  O203  1  0.25530274  0.00291977  0.86725950  1
  O  O204  1  0.25628702  0.50463099  0.37498232  1
  O  O205  1  0.25435556  0.50504294  0.86909922  1
  O  O206  1  0.75983497  0.00344671  0.36868510  1
  O  O207  1  0.75686729  0.00705242  0.87481863  1
  O  O208  1  0.75051168  0.50979540  0.36888147  1
  O  O209  1  0.75858992  0.51009103  0.88254524  1
  O  O210  1  0.24341452  0.48864065  0.12630342  1
  O  O211  1  0.24529416  0.49451250  0.63303846  1
  O  O212  1  0.23862831  1.00181660  0.13541894  1
  O  O213  1  0.24465231  0.99349963  0.63193507  1
  O  O214  1  0.74373471  0.49563324  0.12772084  1
  O  O215  1  0.74207034  0.49319241  0.62078482  1
  O  O216  1  0.74545857  0.99421812  0.12981015  1
  O  O217  1  0.74422614  0.99308451  0.62753537  1
  O  O218  1  0.00835097  0.37395166  0.25624902  1
  O  O219  1  -0.00230981  0.36027201  0.74886372  1
  O  O220  1  -0.00582499  0.86228714  0.25718785  1
  O  O221  1  0.00550083  0.86961996  0.75440001  1
  O  O222  1  0.50631441  0.37533059  0.25923805  1
  O  O223  1  0.50082889  0.36477943  0.75144287  1
  O  O224  1  0.49325957  0.85971913  0.24930233  1
  O  O225  1  0.50458805  0.87060660  0.75701881  1
  O  O226  1  0.49082397  0.12503435  0.24323413  1
  O  O227  1  0.49632135  0.13364584  0.74731194  1
  O  O228  1  0.49523844  0.63214770  0.24307128  1
  O  O229  1  0.49605538  0.63338257  0.74403135  1
  O  O230  1  0.99455740  0.12634307  0.24294075  1
  O  O231  1  0.99453481  0.13331648  0.74342030  1
  O  O232  1  0.99944778  0.63747207  0.24868872  1
  O  O233  1  0.99822974  0.63134432  0.74192813  1
  O  O234  1  0.37370467  0.25046239  0.01155374  1
  O  O235  1  0.36719096  0.25564516  0.50406869  1
  O  O236  1  0.37685863  0.76495977  0.00013764  1
  O  O237  1  0.37497636  0.76079398  0.50781131  1
  O  O238  1  0.86991330  0.25450844  0.00363449  1
  O  O239  1  0.87903798  0.24990770  0.51332786  1
  O  O240  1  0.87040044  0.75575496  0.00433868  1
  O  O241  1  0.86927138  0.75705959  0.50484884  1
  O  O242  1  0.13416010  0.24045626  0.50002352  1
  O  O243  1  0.12456606  0.23976566  0.99198393  1
  O  O244  1  0.12648589  0.74263761  0.49262599  1
  O  O245  1  0.11434164  0.73476706  0.99230958  1
  O  O246  1  0.62330995  0.23803888  0.50149678  1
  O  O247  1  0.62985059  0.24460486  0.99590066  1
  O  O248  1  0.63094941  0.73818417  0.50827403  1
  O  O249  1  0.63046233  0.75000750  0.99411531  1
  O  O250  1  0.49029083  0.24458911  0.12589508  1
  O  O251  1  0.49944509  0.24649916  0.63598233  1
  O  O252  1  0.49510381  0.73864372  0.12967802  1
  O  O253  1  0.49436061  0.74560449  0.63206005  1
  O  O254  1  0.99318827  0.24342148  0.12451212  1
  O  O255  1  0.99547219  0.24612266  0.63048379  1
  O  O256  1  0.99483893  0.74942583  0.13307402  1
  O  O257  1  0.99492875  0.74486339  0.62847606  1
  O  O258  1  0.00611947  0.26176243  0.37312639  1
  O  O259  1  0.00669940  0.25113624  0.86559387  1
  O  O260  1  0.00516602  0.75367745  0.36731134  1
  O  O261  1  0.00402038  0.75512644  0.86894144  1
  O  O262  1  0.50254658  0.26482398  0.37331938  1
  O  O263  1  0.50560927  0.25171262  0.86799392  1
  O  O264  1  0.49551691  0.74762314  0.36022649  1
  O  O265  1  0.50483042  0.75442321  0.87079349  1
  O  O266  1  0.24217204  0.13472745  0.50939046  1
  O  O267  1  0.23790400  0.12454492  1.00026529  1
  O  O268  1  0.24279912  0.62641537  0.49463855  1
  O  O269  1  0.23685169  0.61407044  0.98878184  1
  O  O270  1  0.73806303  0.12536239  0.50006261  1
  O  O271  1  0.74483554  0.13090773  0.99570245  1
  O  O272  1  0.74277118  0.63152684  0.49263382  1
  O  O273  1  0.74760284  0.63237821  0.98927058  1
  O  O274  1  0.25184926  0.37292335  0.01327137  1
  O  O275  1  0.25460455  0.36803688  0.50821342  1
  O  O276  1  0.26316228  0.87915941  -0.00473579  1
  O  O277  1  0.26043916  0.87604271  0.50744093  1
  O  O278  1  0.75428113  0.36965014  0.00564576  1
  O  O279  1  0.75166407  0.37321332  0.51226850  1
  O  O280  1  0.75536245  0.86980836  0.00524860  1
  O  O281  1  0.75546489  0.87215740  0.50535131  1
  O  O282  1  0.12452213  0.48806031  0.24187840  1
  O  O283  1  0.13569001  0.50296423  0.74555779  1
  O  O284  1  0.13428698  1.00627392  0.24056869  1
  O  O285  1  0.12864075  0.99515699  0.74512850  1
  O  O286  1  0.63005845  0.49503029  0.24311396  1
  O  O287  1  0.62019145  0.50141607  0.73702955  1
  O  O288  1  0.63221422  1.00048506  0.24364182  1
  O  O289  1  0.62504682  0.99433232  0.74478109  1
  O  O290  1  0.36700728  0.00870678  0.25226060  1
  O  O291  1  0.37137046  0.00421836  0.75634513  1
  O  O292  1  0.37403092  0.50659224  0.25798307  1
  O  O293  1  0.36552698  0.50265637  0.75986141  1
  O  O294  1  0.87161014  0.00511309  0.25418125  1
  O  O295  1  0.87490899  0.00688507  0.75662631  1
  O  O296  1  0.86626295  0.50360903  0.25075942  1
  O  O297  1  0.88152867  0.49988975  0.76379190  1
  O  O298  1  0.11830218  0.37563878  0.36523115  1
  O  O299  1  0.12312647  0.36002248  0.88194902  1
  O  O300  1  0.11619317  0.86560118  0.38282498  1
  O  O301  1  0.11878424  0.86986290  0.87034569  1
  O  O302  1  0.61670569  0.37867555  0.37138305  1
  O  O303  1  0.62318942  0.36843159  0.87198736  1
  O  O304  1  0.61881205  0.87893399  0.37185161  1
  O  O305  1  0.61945733  0.87062994  0.87118461  1
  O  O306  1  0.37924127  0.13161851  0.13189126  1
  O  O307  1  0.38368542  0.12755312  0.63392527  1
  O  O308  1  0.38187337  0.62425574  0.13024671  1
  O  O309  1  0.38058736  0.63132371  0.62522593  1
  O  O310  1  0.88064325  0.12919888  0.12852121  1
  O  O311  1  0.88043385  0.13247053  0.62902369  1
  O  O312  1  0.87722295  0.63311695  0.12541307  1
  O  O313  1  0.88019547  0.63114057  0.62486502  1
  O  O314  1  0.25867443  0.25686229  0.12326746  1
  O  O315  1  0.25098974  0.25984984  0.61838561  1
  O  O316  1  0.24409364  0.74704762  0.12972453  1
  O  O317  1  0.25534911  0.75654620  0.62519583  1
  O  O318  1  0.75548834  0.25576843  0.11844667  1
  O  O319  1  0.76037695  0.25649513  0.62233891  1
  O  O320  1  0.75421183  0.75477829  0.12011679  1
  O  O321  1  0.75538334  0.75634267  0.61775201  1
  O  O322  1  0.24847890  0.25784736  0.39006700  1
  O  O323  1  0.24139906  0.24688838  0.87611241  1
  O  O324  1  0.24493412  0.74297078  0.37628552  1
  O  O325  1  0.24272131  0.73585285  0.86706431  1
  O  O326  1  0.74745840  0.24666382  0.38082006  1
  O  O327  1  0.74579547  0.24475936  0.88057252  1
  O  O328  1  0.75449689  0.74006407  0.38045031  1
  O  O329  1  0.74497417  0.74395343  0.88090018  1
  O  O330  1  0.00872728  0.11921861  0.00445907  1
  O  O331  1  0.00934148  0.11937740  0.50603513  1
  O  O332  1  0.00758142  0.61347718  -0.00199364  1
  O  O333  1  0.00509790  0.61998044  0.50455762  1
  O  O334  1  0.50534495  0.11829854  0.00640522  1
  O  O335  1  0.50557729  0.11943694  0.50690448  1
  O  O336  1  0.49767398  0.61682130  0.00790000  1
  O  O337  1  0.50885358  0.62628738  0.50627533  1
  O  O338  1  0.49455098  0.37645054  0.49210770  1
  O  O339  1  0.49699689  0.38884890  1.00016550  1
  O  O340  1  0.49210470  0.88504173  0.50621427  1
  O  O341  1  0.49375457  0.88108114  0.99524455  1
  O  O342  1  1.00285221  0.38085937  0.49040585  1
  O  O343  1  0.99396093  0.38479160  0.99703563  1
  O  O344  1  0.99441290  0.88097894  0.49549135  1
  O  O345  1  0.99353538  0.88008726  0.99223792  1
  O  O346  1  0.49440443  0.49074263  0.37717579  1
  O  O347  1  0.49078605  0.50348930  0.88256940  1
  O  O348  1  0.49545673  1.00141603  0.39155595  1
  O  O349  1  0.49449637  0.99479557  0.88214362  1
  O  O350  1  1.00081958  0.49092303  0.37972510  1
  O  O351  1  0.99192520  0.49828734  0.88229360  1
  O  O352  1  0.99594780  0.99357207  0.38049010  1
  O  O353  1  0.99532302  0.99468065  0.87988917  1
  O  O354  1  0.00745346  0.00563355  0.11969093  1
  O  O355  1  0.00531179  0.00482120  0.61957927  1
  O  O356  1  0.00361771  0.49866600  0.11326624  1
  O  O357  1  0.00504278  0.50458014  0.62015319  1
  O  O358  1  0.50481499  0.00463615  0.12177947  1
  O  O359  1  0.50538471  0.00624303  0.61745919  1
  O  O360  1  0.50172764  0.50868215  0.11885835  1
  O  O361  1  0.50792483  0.50719800  0.62349000  1
  O  O362  1  0.24154800  0.37473730  0.24086043  1
  O  O363  1  0.25588332  0.38484929  0.74035937  1
  O  O364  1  0.25930192  0.88901501  0.25441128  1
  O  O365  1  0.24376328  0.88085653  0.74635954  1
  O  O366  1  0.74515766  0.38179673  0.24388087  1
  O  O367  1  0.74799038  0.36815180  0.73439253  1
  O  O368  1  0.75261800  0.88148189  0.24311635  1
  O  O369  1  0.74271188  0.87581766  0.74378418  1
  O  O370  1  0.26097213  0.11591634  0.24561959  1
  O  O371  1  0.25775550  0.11823309  0.74846324  1
  O  O372  1  0.25608160  0.61781427  0.25966167  1
  O  O373  1  0.25026551  0.61380573  0.75979944  1
  O  O374  1  0.75839162  0.11773905  0.24982861  1
  O  O375  1  0.75702778  0.12504644  0.75728629  1
  O  O376  1  0.74606782  0.62110306  0.25864543  1
  O  O377  1  0.75106049  0.63276243  0.76429229  1
  O  O378  1  0.38238829  0.12700969  0.36214198  1
  O  O379  1  0.37391419  0.11769157  0.87022427  1
  O  O380  1  0.36985850  0.61928337  0.37214774  1
  O  O381  1  0.36439290  0.61589534  0.87671280  1
  O  O382  1  0.87814038  0.11836732  0.36839736  1
  O  O383  1  0.87098068  0.12042342  0.87096107  1
  O  O384  1  0.86141567  0.62220165  0.37346200  1
  O  O385  1  0.86663843  0.61674710  0.87309031  1
  O  O386  1  0.13134774  0.37552723  0.13037553  1
  O  O387  1  0.13823677  0.38212772  0.61830489  1
  O  O388  1  0.11849705  0.88944984  0.11856835  1
  O  O389  1  0.12934045  0.87992092  0.63033382  1
  O  O390  1  0.63007248  0.38083502  0.12992775  1
  O  O391  1  0.63248204  0.38563843  0.62595331  1
  O  O392  1  0.63153775  0.88131787  0.12933247  1
  O  O393  1  0.63000664  0.88061664  0.63090002  1
  O  O394  1  0.12489802  0.26014418  0.25024753  1
  O  O395  1  0.11589667  0.23996923  0.75897205  1
  O  O396  1  0.11686655  0.74967204  0.25349230  1
  O  O397  1  0.11847466  0.75576095  0.75552663  1
  O  O398  1  0.62260385  0.25883453  0.25151869  1
  O  O399  1  0.61504549  0.24940827  0.75609485  1
  O  O400  1  0.60596398  0.75108912  0.24275163  1
  O  O401  1  0.61809343  0.75730590  0.75592432  1
  O  O402  1  0.37523752  0.24242055  0.24016380  1
  O  O403  1  0.38545587  0.24463078  0.75106374  1
  O  O404  1  0.38520620  0.74202427  0.24589297  1
  O  O405  1  0.38056456  0.74986557  0.74488463  1
  O  O406  1  0.87628042  0.24325952  0.24110378  1
  O  O407  1  0.88405146  0.24458448  0.74028023  1
  O  O408  1  0.88446209  0.74717391  0.24315985  1
  O  O409  1  0.88174124  0.74906134  0.74173760  1
  O  O410  1  0.37704324  0.49328284  0.49380708  1
  O  O411  1  0.38165141  0.49965214  0.99221029  1
  O  O412  1  0.38218118  0.99434252  0.50361292  1
  O  O413  1  0.37980936  0.99155936  0.99696293  1
  O  O414  1  0.88495291  0.49734637  0.49685068  1
  O  O415  1  0.88173429  0.49537206  0.99134020  1
  O  O416  1  0.88192990  0.99614028  0.49575217  1
  O  O417  1  0.88087230  0.99464491  0.99481919  1
  O  O418  1  0.12048023  0.00789538  0.00586582  1
  O  O419  1  0.12180034  0.00625467  0.50606623  1
  O  O420  1  0.11555040  0.50537575  0.00092152  1
  O  O421  1  0.11911262  0.50652460  0.50640220  1
  O  O422  1  0.61980015  0.00537819  0.00712039  1
  O  O423  1  0.61676635  0.00844186  0.50697963  1
  O  O424  1  0.61320710  0.50225847  0.00511982  1
  O  O425  1  0.62345377  0.51360377  0.51187744  1
  O  O426  1  0.36739809  0.36657979  0.12801511  1
  O  O427  1  0.36361371  0.37637003  0.61908204  1
  O  O428  1  0.37559552  0.87440636  0.10968937  1
  O  O429  1  0.37037091  0.87110517  0.61869992  1
  O  O430  1  0.86888150  0.36967548  0.11809105  1
  O  O431  1  0.86859543  0.36714149  0.62288031  1
  O  O432  1  0.86967404  0.86946560  0.11757079  1
  O  O433  1  0.87027253  0.87038954  0.61911788  1
  O  O434  1  0.11910644  0.12502871  0.39001209  1
  O  O435  1  0.12498600  0.13279496  0.88448476  1
  O  O436  1  0.13032937  0.63081522  0.37959221  1
  O  O437  1  0.13051317  0.62782598  0.88087006  1
  O  O438  1  0.62428728  0.12599845  0.38731177  1
  O  O439  1  0.63045296  0.13011926  0.88242069  1
  O  O440  1  0.63374128  0.61867558  0.38656530  1
  O  O441  1  0.63218808  0.63150159  0.87715789  1
