# generated using pymatgen
data_V93Zn93O256
_symmetry_space_group_name_H-M   'P 1'
_cell_length_a   17.04599247
_cell_length_b   17.04475963
_cell_length_c   17.04676263
_cell_angle_alpha   90.10319491
_cell_angle_beta   89.99784762
_cell_angle_gamma   90.00239533
_symmetry_Int_Tables_number   1
_chemical_formula_structural   V93Zn93O256
_chemical_formula_sum   'V93 Zn93 O256'
_cell_volume   4952.84095164
_cell_formula_units_Z   1
loop_
 _symmetry_equiv_pos_site_id
 _symmetry_equiv_pos_as_xyz
  1  'x, y, z'
loop_
 _atom_site_type_symbol
 _atom_site_label
 _atom_site_symmetry_multiplicity
 _atom_site_fract_x
 _atom_site_fract_y
 _atom_site_fract_z
 _atom_site_occupancy
  V  V0  1  0.37837799  0.37370679  -0.00612012  1
  V  V1  1  0.62463127  0.12584793  0.50157995  1
  V  V2  1  0.00008293  -0.00141331  0.00078948  1
  V  V3  1  -0.00286510  0.37348795  0.87658380  1
  V  V4  1  0.74974129  0.74877413  0.00005167  1
  V  V5  1  0.49992787  0.49462593  -0.00699546  1
  V  V6  1  0.25196687  0.62714381  0.37490047  1
  V  V7  1  0.25034024  0.00148281  0.25008839  1
  V  V8  1  -0.00084999  0.87284427  0.87251804  1
  V  V9  1  0.11986270  0.75546404  0.37437699  1
  V  V10  1  0.49914472  0.12812619  0.62644420  1
  V  V11  1  0.37835584  0.75222175  0.62706792  1
  V  V12  1  0.74965246  0.62235742  0.87572396  1
  V  V13  1  0.25170192  0.62376070  0.87464993  1
  V  V14  1  0.12645463  0.62318317  0.00027292  1
  V  V15  1  0.75017203  0.49091977  0.74671740  1
  V  V16  1  0.74828368  0.12328148  0.87576351  1
  V  V17  1  0.87852460  0.62512730  0.24945883  1
  V  V18  1  0.25094547  0.12710162  0.37561401  1
  V  V19  1  0.37660631  0.62617440  0.25062788  1
  V  V20  1  0.24872738  0.37615464  0.62496024  1
  V  V21  1  0.12472877  0.00108529  0.12593364  1
  V  V22  1  0.75176736  0.74964381  0.49894884  1
  V  V23  1  0.62798407  0.49248143  0.62395564  1
  V  V24  1  0.37614009  0.00161504  0.37543247  1
  V  V25  1  0.12606040  0.49945098  0.12505190  1
  V  V26  1  0.62526891  0.12441978  -0.00005170  1
  V  V27  1  0.37643369  0.50067717  0.37484269  1
  V  V28  1  0.24905132  0.25194618  0.50101980  1
  V  V29  1  0.87415315  0.12520276  0.74736493  1
  V  V30  1  0.75394905  0.37313292  0.11832838  1
  V  V31  1  0.49992598  0.37228289  0.37007480  1
  V  V32  1  -0.00110939  0.37764510  0.37628294  1
  V  V33  1  0.87347543  0.49335708  0.87958957  1
  V  V34  1  0.61999085  0.74911436  0.86819377  1
  V  V35  1  0.62503211  0.62366335  -0.00028770  1
  V  V36  1  0.12410597  0.25140501  0.37509271  1
  V  V37  1  0.25080060  0.74920376  0.00119212  1
  V  V38  1  0.62498880  0.75020095  0.37461545  1
  V  V39  1  0.24788085  0.12398951  0.87566107  1
  V  V40  1  0.87832408  0.87520869  0.49565820  1
  V  V41  1  0.75087930  0.62515954  0.37314901  1
  V  V42  1  0.12550916  0.37604472  0.75049837  1
  V  V43  1  0.61639434  0.25191133  0.87507595  1
  V  V44  1  0.25015870  0.50002949  0.75018902  1
  V  V45  1  0.50130334  0.62393715  0.12527265  1
  V  V46  1  0.12370903  0.00055897  0.62498665  1
  V  V47  1  0.50054197  0.12780829  0.13001085  1
  V  V48  1  0.62618736  -0.00020710  0.12538068  1
  V  V49  1  0.25111460  0.75206666  0.50009187  1
  V  V50  1  0.24983731  0.87689113  0.62538072  1
  V  V51  1  0.62366549  0.25043909  0.36994540  1
  V  V52  1  0.75073931  0.00040450  0.25052560  1
  V  V53  1  0.12419279  0.62484337  0.50196655  1
  V  V54  1  0.87651073  0.62444374  0.74823680  1
  V  V55  1  0.25056844  0.50150131  0.24899294  1
  V  V56  1  -0.00039404  0.25091131  0.24920978  1
  V  V57  1  0.50215830  0.62938873  0.62795497  1
  V  V58  1  0.62409213  0.37308711  0.24909232  1
  V  V59  1  0.12380134  0.12562444  0.50083112  1
  V  V60  1  0.25114940  0.37519435  0.12559394  1
  V  V61  1  0.11971967  0.87589451  0.25394697  1
  V  V62  1  0.87481267  0.87341982  -0.00072206  1
  V  V63  1  0.87472605  0.25242879  0.11789659  1
  V  V64  1  0.62566757  0.49800236  0.12394782  1
  V  V65  1  0.25115252  0.87503972  0.12509487  1
  V  V66  1  0.37585278  0.75059424  0.12478609  1
  V  V67  1  0.75017248  0.87583336  0.12450293  1
  V  V68  1  0.74491193  -0.00267587  0.74985457  1
  V  V69  1  0.24782175  -0.00040397  0.75021941  1
  V  V70  1  0.87622228  0.74908816  0.12498984  1
  V  V71  1  0.87750860  0.00051222  0.37486693  1
  V  V72  1  -0.00046833  -0.00076583  0.49793351  1
  V  V73  1  0.12476705  0.24851794  0.87668953  1
  V  V74  1  0.49872933  -0.00508602  -0.00211969  1
  V  V75  1  -0.00199426  0.49747626  0.00127532  1
  V  V76  1  0.61587547  0.37387957  0.75259231  1
  V  V77  1  0.86871142  0.37469470  0.50621404  1
  V  V78  1  0.37811592  0.62949971  0.75053137  1
  V  V79  1  0.12491334  0.74966207  0.87500724  1
  V  V80  1  0.37565674  0.87705943  0.49964183  1
  V  V81  1  0.62645719  0.62350353  0.50034404  1
  V  V82  1  0.37385178  0.37630895  0.49923099  1
  V  V83  1  0.37463004  0.12586386  0.75003032  1
  V  V84  1  -0.00041004  0.12572153  0.12451302  1
  V  V85  1  0.74982708  0.12722783  0.37679571  1
  V  V86  1  0.37788118  0.25056851  0.12957808  1
  V  V87  1  0.50045553  0.87599378  0.37543266  1
  V  V88  1  0.37445859  -0.00122856  0.87593222  1
  V  V89  1  0.50151591  0.75092797  0.25022299  1
  V  V90  1  0.37710560  0.12735192  0.25024401  1
  V  V91  1  0.74947737  0.87432895  0.62493539  1
  V  V92  1  0.75097049  0.50001621  0.24845738  1
  Zn  Zn93  1  -0.00300758  0.24994075  0.74850240  1
  Zn  Zn94  1  0.00043001  0.62591764  0.62447078  1
  Zn  Zn95  1  0.49951022  0.00202625  0.49971352  1
  Zn  Zn96  1  0.50023461  0.49978657  0.49996688  1
  Zn  Zn97  1  0.49451206  0.86525643  0.86013924  1
  Zn  Zn98  1  0.00147298  0.74809147  0.74723435  1
  Zn  Zn99  1  0.62635914  0.87503969  0.25057523  1
  Zn  Zn100  1  -0.00254760  0.12950370  0.62559432  1
  Zn  Zn101  1  -0.00011479  0.75350401  0.24985031  1
  Zn  Zn102  1  0.12388191  0.50120284  0.62495271  1
  Zn  Zn103  1  0.87443840  0.12713596  0.25019389  1
  Zn  Zn104  1  0.12288812  0.87311987  0.74812571  1
  Zn  Zn105  1  0.12570049  0.12422663  0.00098669  1
  Zn  Zn106  1  0.37430627  0.25255812  0.62695518  1
  Zn  Zn107  1  0.25044503  0.24812097  0.00160107  1
  Zn  Zn108  1  0.86918162  0.25658038  0.63043863  1
  Zn  Zn109  1  0.87623793  0.50060095  0.37527771  1
  Zn  Zn110  1  0.00238491  0.62622296  0.12584736  1
  Zn  Zn111  1  0.37535906  0.87257509  -0.00207596  1
  Zn  Zn112  1  0.62136156  -0.00155721  0.62430591  1
  Zn  Zn113  1  0.74523325  0.25711355  0.51031996  1
  Zn  Zn114  1  0.87744404  0.74818351  0.62457595  1
  Zn  Zn115  1  0.12544091  0.37659661  0.25072409  1
  Zn  Zn116  1  -0.00151362  0.50123725  0.50316504  1
  Zn  Zn117  1  0.75163312  0.25254632  -0.00292036  1
  Zn  Zn118  1  0.37878436  0.49452064  0.87114076  1
  Zn  Zn119  1  0.61640975  0.86472304  0.74364412  1
  Zn  Zn120  1  0.49418296  0.25553047  0.75446394  1
  Zn  Zn121  1  0.87363241  -0.00201872  0.87557479  1
  Zn  Zn122  1  0.18744986  0.18932864  0.18795550  1
  Zn  Zn123  1  0.18605777  0.18851180  0.68811543  1
  Zn  Zn124  1  0.18761805  0.68786894  0.18736557  1
  Zn  Zn125  1  0.19011647  0.69033235  0.68851461  1
  Zn  Zn126  1  0.68943484  0.18703141  0.18912833  1
  Zn  Zn127  1  0.68841019  0.19234835  0.68657215  1
  Zn  Zn128  1  0.68863022  0.68768379  0.18714541  1
  Zn  Zn129  1  0.69265714  0.68273888  0.68617745  1
  Zn  Zn130  1  0.31259421  0.31325103  0.31124127  1
  Zn  Zn131  1  0.31001615  0.31031036  0.81199859  1
  Zn  Zn132  1  0.31158092  0.81445402  0.31208254  1
  Zn  Zn133  1  0.31225698  0.81335438  0.81286291  1
  Zn  Zn134  1  0.81252321  0.31185845  0.31208853  1
  Zn  Zn135  1  0.80780539  0.31004302  0.81195985  1
  Zn  Zn136  1  0.81260094  0.81315732  0.31139001  1
  Zn  Zn137  1  0.80979417  0.80997631  0.81314411  1
  Zn  Zn138  1  0.18774192  0.43931059  0.43628357  1
  Zn  Zn139  1  0.19015671  0.43633093  0.93826405  1
  Zn  Zn140  1  0.18875149  0.93914847  0.43765763  1
  Zn  Zn141  1  0.18605664  0.93586747  0.93856703  1
  Zn  Zn142  1  0.68852509  0.43993594  0.43492204  1
  Zn  Zn143  1  0.68543477  0.43505530  0.93583795  1
  Zn  Zn144  1  0.68815449  0.93880814  0.43757653  1
  Zn  Zn145  1  0.68297099  0.93339960  0.93528069  1
  Zn  Zn146  1  0.31179298  0.06260426  0.06115915  1
  Zn  Zn147  1  0.31239864  0.06375864  0.56309037  1
  Zn  Zn148  1  0.31479637  0.56122155  0.06231721  1
  Zn  Zn149  1  0.31136321  0.56224864  0.56305324  1
  Zn  Zn150  1  0.81531166  0.06243240  0.06226419  1
  Zn  Zn151  1  0.80839914  0.06349965  0.56383830  1
  Zn  Zn152  1  0.81318852  0.56228005  0.06328435  1
  Zn  Zn153  1  0.81273336  0.55841136  0.56159859  1
  Zn  Zn154  1  0.43848113  0.43742838  0.18641181  1
  Zn  Zn155  1  0.43721936  0.44205189  0.68428328  1
  Zn  Zn156  1  0.43819865  0.93795411  0.18790774  1
  Zn  Zn157  1  0.43796642  0.94146718  0.68718358  1
  Zn  Zn158  1  0.93714609  0.43601126  0.18782242  1
  Zn  Zn159  1  0.94312664  0.44256019  0.68701972  1
  Zn  Zn160  1  0.93685508  0.93803838  0.18674137  1
  Zn  Zn161  1  0.93460892  0.94035128  0.68603660  1
  Zn  Zn162  1  0.06119147  0.06491468  0.31247349  1
  Zn  Zn163  1  0.06068645  0.06034026  0.81262762  1
  Zn  Zn164  1  0.06447728  0.56341378  0.31504876  1
  Zn  Zn165  1  0.06310293  0.56165208  0.81340977  1
  Zn  Zn166  1  0.56376021  0.06159765  0.31225209  1
  Zn  Zn167  1  0.56039969  0.06087514  0.81116002  1
  Zn  Zn168  1  0.56349817  0.56051203  0.31226253  1
  Zn  Zn169  1  0.56295354  0.56321725  0.81086867  1
  Zn  Zn170  1  0.43820776  0.19144836  0.43886099  1
  Zn  Zn171  1  0.43550879  0.18364453  0.94166802  1
  Zn  Zn172  1  0.43985642  0.68844025  0.44052838  1
  Zn  Zn173  1  0.43780250  0.68425029  0.93848483  1
  Zn  Zn174  1  0.93723513  0.18992108  0.43884414  1
  Zn  Zn175  1  0.93713041  0.18467265  0.93709717  1
  Zn  Zn176  1  0.93969287  0.68887224  0.43585846  1
  Zn  Zn177  1  0.93770494  0.68451883  0.93662564  1
  Zn  Zn178  1  0.06254079  0.31398366  0.06195335  1
  Zn  Zn179  1  0.05706957  0.31179717  0.56555644  1
  Zn  Zn180  1  0.06277290  0.81229462  0.06366610  1
  Zn  Zn181  1  0.06061453  0.81090435  0.56488804  1
  Zn  Zn182  1  0.56325770  0.31066096  0.06128118  1
  Zn  Zn183  1  0.55955503  0.31198999  0.56031755  1
  Zn  Zn184  1  0.56483654  0.81164407  0.06118452  1
  Zn  Zn185  1  0.56259358  0.81146496  0.56038814  1
  O  O186  1  0.11847045  0.11920635  0.12472576  1
  O  O187  1  0.12337473  0.11861667  0.61815253  1
  O  O188  1  0.12454763  0.61778763  0.11839253  1
  O  O189  1  0.12900093  0.62866906  0.61135303  1
  O  O190  1  0.61878973  0.12108349  0.12109651  1
  O  O191  1  0.61704808  0.12656021  0.61656576  1
  O  O192  1  0.62167841  0.61837005  0.11942860  1
  O  O193  1  0.61941720  0.61719842  0.62159124  1
  O  O194  1  0.38227243  0.37972477  0.37741741  1
  O  O195  1  0.37024215  0.37342168  0.88988383  1
  O  O196  1  0.37985674  0.88114979  0.37971778  1
  O  O197  1  0.37786250  0.88185415  0.87840627  1
  O  O198  1  0.88452176  0.37625580  0.38090847  1
  O  O199  1  0.88192576  0.38436480  0.86894206  1
  O  O200  1  0.86731572  0.88699286  0.38602453  1
  O  O201  1  0.88235536  0.87337965  0.88104128  1
  O  O202  1  0.25610010  0.00796774  0.36989857  1
  O  O203  1  0.25332025  0.00378554  0.87051511  1
  O  O204  1  0.25654318  0.50705922  0.36846835  1
  O  O205  1  0.25352487  0.50642613  0.86919938  1
  O  O206  1  0.75813246  0.00637893  0.37131252  1
  O  O207  1  0.74775303  0.00661830  0.86782651  1
  O  O208  1  0.75057541  0.50827343  0.36507552  1
  O  O209  1  0.75640441  0.50135507  0.86942382  1
  O  O210  1  0.24633752  0.49565811  0.12985824  1
  O  O211  1  0.24703975  0.49400172  0.63195626  1
  O  O212  1  0.24527501  0.99643414  0.13124596  1
  O  O213  1  0.24381142  0.99617737  0.62964254  1
  O  O214  1  0.74567655  0.49218170  0.12808787  1
  O  O215  1  0.73794200  0.50577465  0.63578627  1
  O  O216  1  0.74621028  0.99606745  0.12988126  1
  O  O217  1  0.74721988  0.99062380  0.63225221  1
  O  O218  1  0.00155790  0.37013532  0.25957055  1
  O  O219  1  0.00548718  0.37660975  0.76347563  1
  O  O220  1  0.01606270  0.87614111  0.24568419  1
  O  O221  1  -0.00288851  0.87415280  0.76138375  1
  O  O222  1  0.50709645  0.38155031  0.26173178  1
  O  O223  1  0.51134556  0.37701821  0.74867764  1
  O  O224  1  0.50221588  0.86866584  0.25663873  1
  O  O225  1  0.50483523  0.87883943  0.74806474  1
  O  O226  1  0.49464755  0.11750711  0.23679877  1
  O  O227  1  0.49396378  0.12500694  0.74101348  1
  O  O228  1  0.49624513  0.63026111  0.24482360  1
  O  O229  1  0.49014443  0.61796571  0.73930633  1
  O  O230  1  0.99802966  0.13245543  0.24305046  1
  O  O231  1  0.98515903  0.12280810  0.75275471  1
  O  O232  1  0.98942452  0.62596862  0.24913731  1
  O  O233  1  0.98725340  0.62354590  0.75313936  1
  O  O234  1  0.37482752  0.25677719  0.01077483  1
  O  O235  1  0.36638394  0.25848472  0.50059363  1
  O  O236  1  0.36927785  0.74912024  0.00734692  1
  O  O237  1  0.37015974  0.75674137  0.50581017  1
  O  O238  1  0.87242917  0.24549088  0.01318028  1
  O  O239  1  0.87405085  0.26614342  0.49865657  1
  O  O240  1  0.86891068  0.75233583  0.00455358  1
  O  O241  1  0.87032645  0.76014766  0.49681472  1
  O  O242  1  0.12906376  0.24503522  0.49493041  1
  O  O243  1  0.12592667  0.24919106  0.98761110  1
  O  O244  1  0.13124796  0.74661944  0.49226492  1
  O  O245  1  0.13118239  0.74313526  0.99591504  1
  O  O246  1  0.62518895  0.24254215  0.48998123  1
  O  O247  1  0.62696787  0.24256997  0.99208471  1
  O  O248  1  0.63224724  0.74297971  0.49388903  1
  O  O249  1  0.63179970  0.74210925  0.99434384  1
  O  O250  1  0.49170943  0.23746125  0.11835822  1
  O  O251  1  0.49721540  0.23951354  0.62771803  1
  O  O252  1  0.49678199  0.74378360  0.12935337  1
  O  O253  1  0.49566926  0.73681295  0.61934776  1
  O  O254  1  0.99326961  0.24779497  0.12806178  1
  O  O255  1  0.98968525  0.24683175  0.63131521  1
  O  O256  1  0.99246171  0.74653503  0.12718686  1
  O  O257  1  0.99424649  0.74476049  0.62958745  1
  O  O258  1  0.00467683  0.25780865  0.36983075  1
  O  O259  1  0.00551998  0.25862087  0.87601560  1
  O  O260  1  0.01642037  0.74922449  0.37212378  1
  O  O261  1  0.00516080  0.75817614  0.87592833  1
  O  O262  1  0.50999813  0.26165771  0.37877362  1
  O  O263  1  0.51286202  0.23937524  0.87500240  1
  O  O264  1  0.50517646  0.75551066  0.37011960  1
  O  O265  1  0.51452312  0.74794078  0.88395024  1
  O  O266  1  0.24434021  0.13116341  0.49443242  1
  O  O267  1  0.24654793  0.12680299  0.99174831  1
  O  O268  1  0.24494100  0.63268091  0.49433720  1
  O  O269  1  0.24621164  0.62874316  0.99520581  1
  O  O270  1  0.73917958  0.12591599  0.49417602  1
  O  O271  1  0.74397994  0.12200780  0.99000786  1
  O  O272  1  0.74677600  0.62979125  0.49373933  1
  O  O273  1  0.74465254  0.62763402  0.99535650  1
  O  O274  1  0.26082646  0.37427684  0.00829482  1
  O  O275  1  0.25384595  0.37115490  0.50421231  1
  O  O276  1  0.25050224  0.86731543  0.00772357  1
  O  O277  1  0.25607661  0.87157368  0.50536461  1
  O  O278  1  0.74421730  0.37355516  0.01440064  1
  O  O279  1  0.76556958  0.37734915  0.49210310  1
  O  O280  1  0.75505939  0.86949764  0.00464101  1
  O  O281  1  0.75804297  0.87159669  0.50636644  1
  O  O282  1  0.13295699  0.50134011  0.24352052  1
  O  O283  1  0.13307767  0.49386943  0.75139415  1
  O  O284  1  0.13082058  0.99462175  0.24740326  1
  O  O285  1  0.13025891  0.99800137  0.74318006  1
  O  O286  1  0.63127871  0.49493439  0.24248225  1
  O  O287  1  0.63110017  0.49301747  0.74526928  1
  O  O288  1  0.63276807  0.99839599  0.24332152  1
  O  O289  1  0.63742769  0.99940234  0.74748525  1
  O  O290  1  0.36927399  0.00671653  0.25551088  1
  O  O291  1  0.36676363  0.00713418  0.75609485  1
  O  O292  1  0.37100867  0.50727662  0.25450941  1
  O  O293  1  0.36954257  0.51032801  0.75115252  1
  O  O294  1  0.87114133  -0.00002007  0.26058915  1
  O  O295  1  0.86147090  0.00604917  0.75321314  1
  O  O296  1  0.86971650  0.50987543  0.24977295  1
  O  O297  1  0.86761646  0.50354992  0.75829318  1
  O  O298  1  0.11606788  0.36960627  0.37525666  1
  O  O299  1  0.11827641  0.36781413  0.87142810  1
  O  O300  1  0.13536898  0.86698787  0.36526214  1
  O  O301  1  0.11464129  0.86842521  0.87465314  1
  O  O302  1  0.61915277  0.36937364  0.37083251  1
  O  O303  1  0.62981054  0.36305921  0.86636118  1
  O  O304  1  0.61963208  0.86846724  0.37514542  1
  O  O305  1  0.62237158  0.86184467  0.87082959  1
  O  O306  1  0.38123857  0.13142477  0.12921807  1
  O  O307  1  0.38220290  0.12694220  0.63057159  1
  O  O308  1  0.38131930  0.63024504  0.13119396  1
  O  O309  1  0.38244917  0.62978161  0.63065772  1
  O  O310  1  0.88076331  0.13351552  0.12774507  1
  O  O311  1  0.87363063  0.12136141  0.63867745  1
  O  O312  1  0.87564316  0.63011767  0.13415199  1
  O  O313  1  0.87307152  0.62318571  0.63702710  1
  O  O314  1  0.26001811  0.25498062  0.12349959  1
  O  O315  1  0.25003441  0.25761804  0.61850849  1
  O  O316  1  0.25621058  0.75435002  0.12072874  1
  O  O317  1  0.25763692  0.75751426  0.61917107  1
  O  O318  1  0.75710074  0.25635530  0.12447013  1
  O  O319  1  0.75618708  0.25043765  0.62227542  1
  O  O320  1  0.75543672  0.75525235  0.11924398  1
  O  O321  1  0.75325808  0.75751406  0.61784105  1
  O  O322  1  0.24469039  0.24620020  0.38016057  1
  O  O323  1  0.23915034  0.24364413  0.87649542  1
  O  O324  1  0.24421496  0.74597755  0.38027266  1
  O  O325  1  0.24533030  0.74405769  0.88171133  1
  O  O326  1  0.73949029  0.24570260  0.37870469  1
  O  O327  1  0.74000857  0.23888139  0.87654624  1
  O  O328  1  0.74473599  0.74495398  0.37919440  1
  O  O329  1  0.74298657  0.74207994  0.88256361  1
  O  O330  1  0.00167710  0.11661045  0.00593264  1
  O  O331  1  0.00491810  0.11589070  0.50109416  1
  O  O332  1  0.00676744  0.61216901  -0.00123225  1
  O  O333  1  0.01263395  0.62524120  0.49789982  1
  O  O334  1  0.50445523  0.11445208  0.01038740  1
  O  O335  1  0.50776864  0.12726172  0.50712964  1
  O  O336  1  0.50491623  0.61478220  0.00721360  1
  O  O337  1  0.50750312  0.62218719  0.50904816  1
  O  O338  1  0.49361282  0.37786823  0.48873838  1
  O  O339  1  0.49128856  0.38437696  1.00848949  1
  O  O340  1  0.49351689  0.87729092  0.49385172  1
  O  O341  1  0.49969561  0.88775764  1.00078015  1
  O  O342  1  0.99181227  0.37620013  0.48974331  1
  O  O343  1  1.00459640  0.38657429  0.98833325  1
  O  O344  1  0.98833198  0.88594967  0.50589802  1
  O  O345  1  0.99473071  0.87810462  0.99247244  1
  O  O346  1  0.49547130  0.49139897  0.37721786  1
  O  O347  1  0.49971896  0.50458154  0.88934936  1
  O  O348  1  0.49343376  0.99487642  0.37593864  1
  O  O349  1  0.49377775  1.00276544  0.88627619  1
  O  O350  1  1.00018910  0.48923699  0.37649008  1
  O  O351  1  0.99310973  0.49243613  0.88194236  1
  O  O352  1  0.98965908  1.00575226  0.38552008  1
  O  O353  1  0.99856815  0.98826116  0.88141334  1
  O  O354  1  0.00494458  0.00529965  0.12081252  1
  O  O355  1  0.00438488  0.00300437  0.61465545  1
  O  O356  1  0.00465264  0.49873819  0.11511777  1
  O  O357  1  0.00793466  0.50824622  0.62107006  1
  O  O358  1  0.50466160  0.00725564  0.11779021  1
  O  O359  1  0.50195697  0.01477955  0.62032014  1
  O  O360  1  0.50661286  0.50497117  0.11774332  1
  O  O361  1  0.51043660  0.51066532  0.62197966  1
  O  O362  1  0.24983069  0.38386238  0.24395470  1
  O  O363  1  0.24528659  0.38032113  0.74547579  1
  O  O364  1  0.24297229  0.88215437  0.24448467  1
  O  O365  1  0.24895658  0.88221203  0.74282998  1
  O  O366  1  0.74398374  0.38049843  0.24122341  1
  O  O367  1  0.74032894  0.38628927  0.75369692  1
  O  O368  1  0.74978516  0.88190775  0.24246758  1
  O  O369  1  0.75072917  0.88134443  0.74077826  1
  O  O370  1  0.25634450  0.12108496  0.25605878  1
  O  O371  1  0.25397925  0.11916457  0.75574594  1
  O  O372  1  0.25757630  0.62173136  0.25503776  1
  O  O373  1  0.25869934  0.61981750  0.75413970  1
  O  O374  1  0.75219693  0.11801702  0.25836769  1
  O  O375  1  0.75344670  0.11668991  0.75832570  1
  O  O376  1  0.75924943  0.62087917  0.25285884  1
  O  O377  1  0.75693533  0.61097656  0.75672558  1
  O  O378  1  0.37105712  0.12294179  0.37033210  1
  O  O379  1  0.36806500  0.11913680  0.87063133  1
  O  O380  1  0.37198922  0.62168821  0.37024464  1
  O  O381  1  0.37060513  0.62402486  0.86543178  1
  O  O382  1  0.86903126  0.11591530  0.37641699  1
  O  O383  1  0.86312206  0.12194688  0.86893295  1
  O  O384  1  0.86980933  0.62565758  0.36512222  1
  O  O385  1  0.86968155  0.61328086  0.86849088  1
  O  O386  1  0.13238919  0.38145693  0.12634658  1
  O  O387  1  0.13073224  0.37532657  0.63272277  1
  O  O388  1  0.13196383  0.88024037  0.13383476  1
  O  O389  1  0.13166262  0.88207439  0.62487727  1
  O  O390  1  0.63198143  0.37768734  0.13030061  1
  O  O391  1  0.61831181  0.38616583  0.63200781  1
  O  O392  1  0.63267705  0.88177938  0.12556976  1
  O  O393  1  0.63792758  0.87550453  0.62214999  1
  O  O394  1  0.11837321  0.25284109  0.25709970  1
  O  O395  1  0.12184245  0.25561203  0.76216775  1
  O  O396  1  0.12697963  0.75855925  0.25729832  1
  O  O397  1  0.12329862  0.75207290  0.75939219  1
  O  O398  1  0.62933698  0.25553604  0.26243735  1
  O  O399  1  0.62205754  0.25853760  0.75766346  1
  O  O400  1  0.61937184  0.75030925  0.25628981  1
  O  O401  1  0.63506773  0.74503882  0.76339813  1
  O  O402  1  0.37203957  0.24465228  0.23764140  1
  O  O403  1  0.37690573  0.24261686  0.74870446  1
  O  O404  1  0.38129719  0.74526233  0.24512216  1
  O  O405  1  0.36855079  0.73688922  0.74342276  1
  O  O406  1  0.88131895  0.24850609  0.23992790  1
  O  O407  1  0.87408193  0.23782482  0.75339231  1
  O  O408  1  0.87688709  0.74227173  0.24532737  1
  O  O409  1  0.87198840  0.73451571  0.75131802  1
  O  O410  1  0.37465201  0.49450534  0.49183315  1
  O  O411  1  0.38398225  0.49120460  1.00053011  1
  O  O412  1  0.37480313  0.99507761  0.49232820  1
  O  O413  1  0.38359188  0.99882553  0.99540526  1
  O  O414  1  0.87733188  0.49003117  0.49424956  1
  O  O415  1  0.88371669  0.50611099  0.98904157  1
  O  O416  1  0.87969763  0.99531258  0.49387380  1
  O  O417  1  0.88154255  0.99113833  0.99855925  1
  O  O418  1  0.11799198  -0.00059214  0.00873908  1
  O  O419  1  0.11728206  0.00463521  0.50284571  1
  O  O420  1  0.11790469  0.50378336  0.00439153  1
  O  O421  1  0.12734570  0.51511074  0.49845827  1
  O  O422  1  0.61759412  0.00467773  0.00464846  1
  O  O423  1  0.62291765  0.01425201  0.49944786  1
  O  O424  1  0.61848406  0.50312660  0.00420444  1
  O  O425  1  0.62730459  0.50484455  0.50912453  1
  O  O426  1  0.37212241  0.36702977  0.11975199  1
  O  O427  1  0.36824719  0.37582016  0.61786269  1
  O  O428  1  0.36905242  0.86831324  0.12446596  1
  O  O429  1  0.36965728  0.87207755  0.61885480  1
  O  O430  1  0.86455997  0.36569462  0.13055054  1
  O  O431  1  0.88140206  0.38055915  0.60875155  1
  O  O432  1  0.86988356  0.86913743  0.11929141  1
  O  O433  1  0.86428956  0.87567356  0.61448948  1
  O  O434  1  0.13110881  0.13068481  0.38083895  1
  O  O435  1  0.12805907  0.13344290  0.87486909  1
  O  O436  1  0.13284702  0.63523061  0.38110445  1
  O  O437  1  0.13176628  0.62938442  0.88080964  1
  O  O438  1  0.62682169  0.13305373  0.38118715  1
  O  O439  1  0.63229687  0.13038631  0.87812107  1
  O  O440  1  0.63054387  0.62960664  0.37985259  1
  O  O441  1  0.63053343  0.62841102  0.88044081  1
