# generated using pymatgen
data_V93Zn93O256
_symmetry_space_group_name_H-M   'P 1'
_cell_length_a   17.05044061
_cell_length_b   17.05144926
_cell_length_c   17.04872935
_cell_angle_alpha   89.97769930
_cell_angle_beta   89.97766215
_cell_angle_gamma   89.96020148
_symmetry_Int_Tables_number   1
_chemical_formula_structural   V93Zn93O256
_chemical_formula_sum   'V93 Zn93 O256'
_cell_volume   4956.65565554
_cell_formula_units_Z   1
loop_
 _symmetry_equiv_pos_site_id
 _symmetry_equiv_pos_as_xyz
  1  'x, y, z'
loop_
 _atom_site_type_symbol
 _atom_site_label
 _atom_site_symmetry_multiplicity
 _atom_site_fract_x
 _atom_site_fract_y
 _atom_site_fract_z
 _atom_site_occupancy
  V  V0  1  0.50432301  0.24795236  0.25303907  1
  V  V1  1  0.87376615  0.00083419  0.87507675  1
  V  V2  1  0.74826023  0.00662299  0.25004774  1
  V  V3  1  0.62518710  0.12416749  0.00064105  1
  V  V4  1  -0.00035296  0.37539388  0.87587114  1
  V  V5  1  0.87586469  0.50045401  0.37348221  1
  V  V6  1  0.74884449  0.25252259  0.00527929  1
  V  V7  1  0.12536545  0.87595303  0.75076364  1
  V  V8  1  -0.00119928  0.50035093  0.00157471  1
  V  V9  1  -0.00035913  0.87116429  0.37190404  1
  V  V10  1  0.87443167  0.12584046  0.74993710  1
  V  V11  1  0.62811886  0.49445090  0.12560697  1
  V  V12  1  0.49968281  0.37439973  0.87496130  1
  V  V13  1  0.50072672  -0.00153810  0.00016850  1
  V  V14  1  0.62570567  0.00040836  0.62522845  1
  V  V15  1  0.37488775  0.75068036  0.62477968  1
  V  V16  1  0.74737762  0.24662330  0.48694361  1
  V  V17  1  0.75183024  0.49666559  0.24763282  1
  V  V18  1  0.49864940  0.49872669  0.49909158  1
  V  V19  1  0.87045455  0.00781421  0.37557637  1
  V  V20  1  -0.00111546  0.87613391  0.87524424  1
  V  V21  1  0.87436756  0.25121043  0.12497723  1
  V  V22  1  0.37650328  0.12446393  0.24914417  1
  V  V23  1  -0.00071301  0.00158701  0.00093498  1
  V  V24  1  0.74969707  0.00066510  0.74995392  1
  V  V25  1  0.12304042  0.62645025  0.00130711  1
  V  V26  1  0.87480658  0.25028771  0.62535471  1
  V  V27  1  0.50219587  0.37175448  0.37503298  1
  V  V28  1  0.12427491  0.25080189  0.87396658  1
  V  V29  1  0.37467256  0.62484291  0.75068125  1
  V  V30  1  0.12378466  0.50107401  0.12583161  1
  V  V31  1  0.62499792  0.62401095  0.49996013  1
  V  V32  1  0.25697601  0.50467042  0.24986976  1
  V  V33  1  0.62541418  0.24923209  0.87583489  1
  V  V34  1  0.74932324  0.37357330  0.62455531  1
  V  V35  1  0.87362491  0.37448203  0.49927091  1
  V  V36  1  0.62432576  0.74939490  0.87652389  1
  V  V37  1  0.24668494  0.75019081  0.49828233  1
  V  V38  1  0.25041958  0.12515324  0.87423355  1
  V  V39  1  0.12470648  0.00149972  0.62440039  1
  V  V40  1  0.37513471  -0.00072268  0.37424483  1
  V  V41  1  0.25003439  0.00092616  0.74984439  1
  V  V42  1  -0.00013398  0.75074441  0.74917139  1
  V  V43  1  0.74965616  0.75045320  0.50145155  1
  V  V44  1  0.50093221  0.12317452  0.12515392  1
  V  V45  1  0.50076855  0.12540419  0.62448320  1
  V  V46  1  0.87388560  0.75177051  0.62596265  1
  V  V47  1  -0.00098320  0.25156800  0.74980023  1
  V  V48  1  0.12580813  0.37609050  0.24971054  1
  V  V49  1  0.12586817  0.25018644  0.37378803  1
  V  V50  1  0.87736805  0.63979195  0.24736855  1
  V  V51  1  0.49877679  0.74721482  0.25134848  1
  V  V52  1  0.49631535  0.62199984  0.13187702  1
  V  V53  1  -0.00414988  0.63773028  0.12992534  1
  V  V54  1  0.25046926  0.37487437  0.12399465  1
  V  V55  1  0.00211456  0.50229933  0.50137407  1
  V  V56  1  0.00069225  0.37567494  0.37453489  1
  V  V57  1  0.49991384  0.74984985  0.75092583  1
  V  V58  1  -0.00071124  0.00197339  0.49964800  1
  V  V59  1  0.62922353  0.12845568  0.48809961  1
  V  V60  1  0.37545312  0.49905587  0.87516179  1
  V  V61  1  0.24861284  0.50003349  0.74960541  1
  V  V62  1  0.25000952  0.74922755  0.00003096  1
  V  V63  1  0.37590390  0.87393292  0.00019032  1
  V  V64  1  0.62541749  0.37438509  0.74955594  1
  V  V65  1  0.49925360  0.49694016  -0.00011657  1
  V  V66  1  0.37511478  0.87497535  0.49974609  1
  V  V67  1  0.12455055  0.12425249  0.00025518  1
  V  V68  1  0.25040705  0.12603146  0.37428451  1
  V  V69  1  0.62619977  0.62431685  0.00012534  1
  V  V70  1  0.12443052  0.00055509  0.12548019  1
  V  V71  1  0.75015905  0.50003022  0.75066880  1
  V  V72  1  0.74909780  0.87546428  0.62584763  1
  V  V73  1  0.87560483  0.62528908  0.75129026  1
  V  V74  1  0.37488988  0.74470871  0.12970183  1
  V  V75  1  0.25191888  0.25136068  0.49887965  1
  V  V76  1  0.75094957  0.62528212  0.37480308  1
  V  V77  1  0.25580611  0.62608570  0.37121410  1
  V  V78  1  0.25037127  0.37630488  0.62366789  1
  V  V79  1  0.62425671  0.74982581  0.37471401  1
  V  V80  1  0.37550160  0.12461358  0.74935013  1
  V  V81  1  0.50008845  0.62427640  0.62400026  1
  V  V82  1  0.12072488  0.86979710  0.25049866  1
  V  V83  1  -0.00026149  0.25012824  0.24933377  1
  V  V84  1  0.87105168  0.37628352  0.00331229  1
  V  V85  1  0.12555412  0.75038057  0.87543360  1
  V  V86  1  0.50132561  0.00104270  0.49922943  1
  V  V87  1  0.50022918  0.24912193  0.74899115  1
  V  V88  1  0.62760787  0.37110143  0.25086846  1
  V  V89  1  0.25015688  0.25066368  0.00050469  1
  V  V90  1  0.50072994  0.87331762  0.37370936  1
  V  V91  1  0.87092655  0.86891533  0.00835388  1
  V  V92  1  0.24874664  0.00004747  0.24975114  1
  Zn  Zn93  1  0.12575692  0.12579564  0.49949191  1
  Zn  Zn94  1  0.87398880  0.87619251  0.49990526  1
  Zn  Zn95  1  0.62741370  0.87256446  0.24701180  1
  Zn  Zn96  1  0.37581137  0.24996743  0.62359090  1
  Zn  Zn97  1  0.75189083  0.85902134  0.13505530  1
  Zn  Zn98  1  0.74989255  0.12460154  0.87597905  1
  Zn  Zn99  1  0.11975980  0.74660001  0.37133458  1
  Zn  Zn100  1  0.12295754  0.37662529  0.74927869  1
  Zn  Zn101  1  0.37619131  0.37553965  0.49763384  1
  Zn  Zn102  1  0.25089384  0.87520380  0.62511109  1
  Zn  Zn103  1  0.49992917  0.87484278  0.87394649  1
  Zn  Zn104  1  0.00297717  0.62736862  0.62334966  1
  Zn  Zn105  1  0.00057844  0.12813340  0.62461887  1
  Zn  Zn106  1  0.12461738  0.62580437  0.49925124  1
  Zn  Zn107  1  0.75057971  0.62502556  0.87581478  1
  Zn  Zn108  1  0.62360073  0.87571550  0.75204480  1
  Zn  Zn109  1  0.62420046  0.49918943  0.62491323  1
  Zn  Zn110  1  0.75448567  0.74410577  0.00588613  1
  Zn  Zn111  1  0.63130803  -0.00582259  0.12226365  1
  Zn  Zn112  1  0.24892218  0.62407876  0.87550059  1
  Zn  Zn113  1  -0.00023044  0.12510568  0.12746156  1
  Zn  Zn114  1  0.12424788  0.50398093  0.62516302  1
  Zn  Zn115  1  0.24863829  0.87363326  0.12707405  1
  Zn  Zn116  1  0.37867159  0.50340208  0.36916999  1
  Zn  Zn117  1  0.87476737  0.50101419  0.87702888  1
  Zn  Zn118  1  0.37542461  0.25024381  0.12333161  1
  Zn  Zn119  1  0.87217449  0.12972579  0.25346642  1
  Zn  Zn120  1  0.37493834  0.37256672  0.00020297  1
  Zn  Zn121  1  0.37455478  -0.00169901  0.87423453  1
  Zn  Zn122  1  0.18749733  0.18749787  0.18635457  1
  Zn  Zn123  1  0.18673923  0.18830077  0.68728361  1
  Zn  Zn124  1  0.18662612  0.68673859  0.18618145  1
  Zn  Zn125  1  0.18605883  0.68602672  0.68428405  1
  Zn  Zn126  1  0.68714574  0.18488467  0.18597100  1
  Zn  Zn127  1  0.68837320  0.18647667  0.68306826  1
  Zn  Zn128  1  0.68824927  0.68638161  0.18747782  1
  Zn  Zn129  1  0.68634171  0.68693132  0.68757755  1
  Zn  Zn130  1  0.31660568  0.31429280  0.31022455  1
  Zn  Zn131  1  0.31359067  0.31217163  0.81207412  1
  Zn  Zn132  1  0.31053994  0.81351157  0.31185564  1
  Zn  Zn133  1  0.31119631  0.81262342  0.81340935  1
  Zn  Zn134  1  0.81393837  0.31526475  0.31077828  1
  Zn  Zn135  1  0.81224531  0.31196659  0.81604273  1
  Zn  Zn136  1  0.81115057  0.81985066  0.31688809  1
  Zn  Zn137  1  0.80971747  0.81335825  0.81638377  1
  Zn  Zn138  1  0.18757339  0.43892054  0.43495403  1
  Zn  Zn139  1  0.18604655  0.43737363  0.93765584  1
  Zn  Zn140  1  0.18646062  0.93660521  0.43622713  1
  Zn  Zn141  1  0.18882333  0.93747097  0.93813765  1
  Zn  Zn142  1  0.68668369  0.43589490  0.43583692  1
  Zn  Zn143  1  0.68799269  0.43630764  0.93625124  1
  Zn  Zn144  1  0.68732964  0.93801842  0.43673766  1
  Zn  Zn145  1  0.68824537  0.93618590  0.93640575  1
  Zn  Zn146  1  0.31222482  0.06236991  0.06395409  1
  Zn  Zn147  1  0.31292997  0.06362487  0.56264756  1
  Zn  Zn148  1  0.31117442  0.56125251  0.06072374  1
  Zn  Zn149  1  0.31356720  0.56454860  0.56084310  1
  Zn  Zn150  1  0.81301474  0.06301880  0.06476214  1
  Zn  Zn151  1  0.81169051  0.06527749  0.56287741  1
  Zn  Zn152  1  0.81338483  0.56432851  0.06721973  1
  Zn  Zn153  1  0.81429481  0.56283295  0.56452249  1
  Zn  Zn154  1  0.43728819  0.43372758  0.18550170  1
  Zn  Zn155  1  0.43555566  0.43621863  0.68635475  1
  Zn  Zn156  1  0.43861456  0.93435615  0.18649102  1
  Zn  Zn157  1  0.43837542  0.93684606  0.68729207  1
  Zn  Zn158  1  0.93834557  0.43940655  0.18568987  1
  Zn  Zn159  1  0.93599098  0.43711214  0.68646919  1
  Zn  Zn160  1  0.93679203  0.93929254  0.18958678  1
  Zn  Zn161  1  0.93658690  0.93785633  0.68732511  1
  Zn  Zn162  1  0.06088701  0.06313964  0.31189155  1
  Zn  Zn163  1  0.06089749  0.06446584  0.81279350  1
  Zn  Zn164  1  0.06490930  0.56611080  0.31234290  1
  Zn  Zn165  1  0.06195286  0.56261871  0.81441962  1
  Zn  Zn166  1  0.56356731  0.06018764  0.31184348  1
  Zn  Zn167  1  0.56299242  0.06281591  0.81405096  1
  Zn  Zn168  1  0.56436125  0.56078826  0.31361421  1
  Zn  Zn169  1  0.56188560  0.56208012  0.81217800  1
  Zn  Zn170  1  0.43910317  0.18672729  0.43651831  1
  Zn  Zn171  1  0.43596724  0.18657092  0.93663197  1
  Zn  Zn172  1  0.43514579  0.68666161  0.43750481  1
  Zn  Zn173  1  0.43860254  0.68475584  0.93893005  1
  Zn  Zn174  1  0.93739615  0.18820258  0.43889257  1
  Zn  Zn175  1  0.93755713  0.18697158  0.93660762  1
  Zn  Zn176  1  0.93396531  0.68759673  0.43713361  1
  Zn  Zn177  1  0.94036538  0.68718789  0.93673429  1
  Zn  Zn178  1  0.06211268  0.31275323  0.06222896  1
  Zn  Zn179  1  0.06447038  0.31560334  0.56285718  1
  Zn  Zn180  1  0.06148331  0.81606558  0.06214949  1
  Zn  Zn181  1  0.06134976  0.81601672  0.56256997  1
  Zn  Zn182  1  0.56140688  0.31096016  0.06472708  1
  Zn  Zn183  1  0.56631219  0.31006087  0.56248173  1
  Zn  Zn184  1  0.56489776  0.81224064  0.06607113  1
  Zn  Zn185  1  0.56318071  0.81320050  0.56280514  1
  O  O186  1  0.12390396  0.11868935  0.11780423  1
  O  O187  1  0.12265865  0.11314372  0.62340990  1
  O  O188  1  0.11609441  0.62002871  0.12114437  1
  O  O189  1  0.12019516  0.62130467  0.61778634  1
  O  O190  1  0.61802150  0.11949146  0.11775900  1
  O  O191  1  0.61836062  0.11845031  0.61768703  1
  O  O192  1  0.61554281  0.61376764  0.11849692  1
  O  O193  1  0.61808230  0.62294303  0.61766257  1
  O  O194  1  0.39013189  0.37895106  0.37498887  1
  O  O195  1  0.38258166  0.38117799  0.87572151  1
  O  O196  1  0.38089237  0.87996510  0.37980919  1
  O  O197  1  0.37697235  0.87464408  0.88884405  1
  O  O198  1  0.88150663  0.38148164  0.38002351  1
  O  O199  1  0.88090085  0.37514319  0.88752541  1
  O  O200  1  0.88446408  0.88711787  0.37797694  1
  O  O201  1  0.88041574  0.88219194  0.88191223  1
  O  O202  1  0.25583256  0.00604851  0.37055706  1
  O  O203  1  0.25013998  0.00722162  0.86810027  1
  O  O204  1  0.25182147  0.50724767  0.36677024  1
  O  O205  1  0.25522517  0.49957292  0.86493365  1
  O  O206  1  0.76010010  -0.00611313  0.36459748  1
  O  O207  1  0.75553765  0.00197711  0.86793292  1
  O  O208  1  0.75454610  0.50541558  0.36755448  1
  O  O209  1  0.75200171  0.50072688  0.86210598  1
  O  O210  1  0.24345341  0.49714976  0.13143846  1
  O  O211  1  0.25233736  0.49331930  0.63233404  1
  O  O212  1  0.24316107  0.99785057  0.13191097  1
  O  O213  1  0.24044907  0.99935702  0.62936236  1
  O  O214  1  0.73854812  0.50520796  0.13625433  1
  O  O215  1  0.74962039  0.49358072  0.63504267  1
  O  O216  1  0.75382802  0.99681091  0.14042891  1
  O  O217  1  0.74538861  0.99500874  0.63015013  1
  O  O218  1  0.00565469  0.37119485  0.25530547  1
  O  O219  1  -0.00062908  0.37004846  0.75691893  1
  O  O220  1  0.00898041  0.88347362  0.26080654  1
  O  O221  1  0.00534100  0.87087371  0.75596004  1
  O  O222  1  0.50720730  0.36802310  0.25536948  1
  O  O223  1  0.50536885  0.36986844  0.75448986  1
  O  O224  1  0.50182778  0.86683148  0.25717533  1
  O  O225  1  0.50241961  0.86637809  0.75328225  1
  O  O226  1  0.49797893  0.13076055  0.24673574  1
  O  O227  1  0.49582871  0.12954953  0.74474125  1
  O  O228  1  0.50472989  0.62696761  0.23812945  1
  O  O229  1  0.49406818  0.62877232  0.74361269  1
  O  O230  1  0.99626396  0.13519244  0.24845842  1
  O  O231  1  0.99261024  0.13333524  0.74876923  1
  O  O232  1  0.98956940  0.61849381  0.24247641  1
  O  O233  1  0.99048208  0.63075159  0.74960999  1
  O  O234  1  0.36630452  0.25112603  0.00168962  1
  O  O235  1  0.36301465  0.25178939  0.49911305  1
  O  O236  1  0.37229777  0.75531132  0.00812650  1
  O  O237  1  0.36720183  0.75500380  0.50467702  1
  O  O238  1  0.86870896  0.25645812  0.00556721  1
  O  O239  1  0.86849782  0.25531606  0.50521350  1
  O  O240  1  0.87540032  0.76643370  -0.00894313  1
  O  O241  1  0.86666450  0.75123540  0.50753739  1
  O  O242  1  0.13583201  0.25068255  0.49342890  1
  O  O243  1  0.12973351  0.24442771  0.99393654  1
  O  O244  1  0.13795398  0.75391177  0.49864713  1
  O  O245  1  0.12975389  0.74695937  0.99547393  1
  O  O246  1  0.63562159  0.24074430  0.50436648  1
  O  O247  1  0.63171089  0.24653789  0.99758021  1
  O  O248  1  0.62953878  0.74292358  0.49484092  1
  O  O249  1  0.61981413  0.73737455  0.99283600  1
  O  O250  1  0.49913800  0.24285699  0.13583452  1
  O  O251  1  0.49881505  0.24410132  0.63113543  1
  O  O252  1  0.49403793  0.73991897  0.13002924  1
  O  O253  1  0.49482475  0.74391613  0.62937157  1
  O  O254  1  0.99174357  0.25040466  0.13070743  1
  O  O255  1  0.99368125  0.25187420  0.63012853  1
  O  O256  1  1.00416925  0.73630165  0.12133652  1
  O  O257  1  0.99269819  0.75180787  0.63166916  1
  O  O258  1  0.00487159  0.25686908  0.37061390  1
  O  O259  1  0.00467458  0.25582049  0.87010462  1
  O  O260  1  0.00084646  0.76691142  0.38622338  1
  O  O261  1  0.00647694  0.75649887  0.86867333  1
  O  O262  1  0.49798231  0.25766737  0.36319503  1
  O  O263  1  0.50604949  0.25458684  0.86950966  1
  O  O264  1  0.50333123  0.75265848  0.37088783  1
  O  O265  1  0.50833151  0.74794441  0.87006546  1
  O  O266  1  0.24944244  0.13489540  0.49344427  1
  O  O267  1  0.24432210  0.12953683  0.99428765  1
  O  O268  1  0.25001963  0.63437498  0.49166202  1
  O  O269  1  0.24116067  0.63079495  0.99910999  1
  O  O270  1  0.74091886  0.13492369  0.50613973  1
  O  O271  1  0.74413377  0.13446296  0.99940947  1
  O  O272  1  0.74583250  0.62886232  0.49500157  1
  O  O273  1  0.73661423  0.61948198  0.99827615  1
  O  O274  1  0.24940452  0.36918458  0.00637750  1
  O  O275  1  0.25182273  0.36890365  0.50507330  1
  O  O276  1  0.25929202  0.86909960  0.00310513  1
  O  O277  1  0.25698094  0.86669755  0.49896518  1
  O  O278  1  0.75898377  0.36536807  -0.00433977  1
  O  O279  1  0.75363441  0.36879392  0.50386270  1
  O  O280  1  0.76568536  0.87749876  0.00081954  1
  O  O281  1  0.75051588  0.86813989  0.50687423  1
  O  O282  1  0.13345962  0.49431524  0.24523770  1
  O  O283  1  0.13668507  0.49924271  0.74945821  1
  O  O284  1  0.12974065  0.99364755  0.24532664  1
  O  O285  1  0.12835907  0.99643753  0.74264185  1
  O  O286  1  0.63215114  0.49361418  0.24387872  1
  O  O287  1  0.63415384  0.49454879  0.74897977  1
  O  O288  1  0.63914885  0.99851104  0.25153499  1
  O  O289  1  0.63073735  0.99981673  0.74380360  1
  O  O290  1  0.37054458  0.00383179  0.25493855  1
  O  O291  1  0.36885995  0.00581449  0.75087275  1
  O  O292  1  0.36066396  0.49565731  0.24786285  1
  O  O293  1  0.36756140  0.50468387  0.75449505  1
  O  O294  1  0.86586896  0.00287806  0.25764460  1
  O  O295  1  0.87026084  0.00562576  0.75497466  1
  O  O296  1  0.86514681  0.49976049  0.25430360  1
  O  O297  1  0.86715988  0.50802932  0.75050028  1
  O  O298  1  0.12004085  0.36939575  0.36883625  1
  O  O299  1  0.11719592  0.36843621  0.87415409  1
  O  O300  1  0.11653819  0.87644170  0.36657960  1
  O  O301  1  0.11890317  0.87047783  0.87073484  1
  O  O302  1  0.61318702  0.38122257  0.36233968  1
  O  O303  1  0.61934231  0.36886925  0.86912016  1
  O  O304  1  0.61728622  0.86679108  0.37507090  1
  O  O305  1  0.62190964  0.86155277  0.87628189  1
  O  O306  1  0.38265623  0.12515024  0.13258616  1
  O  O307  1  0.38254989  0.12639947  0.63081167  1
  O  O308  1  0.38643147  0.63331591  0.11585769  1
  O  O309  1  0.38099773  0.63105811  0.63034913  1
  O  O310  1  0.87825779  0.14036588  0.12517243  1
  O  O311  1  0.87771019  0.13263538  0.63187845  1
  O  O312  1  0.88454627  0.61897370  0.13612945  1
  O  O313  1  0.87626018  0.63189474  0.63672193  1
  O  O314  1  0.25007359  0.25680117  0.11879228  1
  O  O315  1  0.24944320  0.25788456  0.61569068  1
  O  O316  1  0.25984597  0.74915301  0.11937312  1
  O  O317  1  0.25648074  0.75119342  0.61516658  1
  O  O318  1  0.75814575  0.24700858  0.11410210  1
  O  O319  1  0.75685865  0.25700796  0.61846788  1
  O  O320  1  0.74852115  0.74681461  0.11811519  1
  O  O321  1  0.75354257  0.75513319  0.62106020  1
  O  O322  1  0.24660272  0.24748552  0.38023743  1
  O  O323  1  0.24394999  0.24510370  0.87921933  1
  O  O324  1  0.25052679  0.74357383  0.38257480  1
  O  O325  1  0.24302228  0.74759614  0.88170890  1
  O  O326  1  0.75662890  0.25422727  0.38826738  1
  O  O327  1  0.74372137  0.24841872  0.88690150  1
  O  O328  1  0.74478504  0.74446774  0.38164944  1
  O  O329  1  0.73747663  0.74606406  0.88147943  1
  O  O330  1  0.00726382  0.11909150  0.00018326  1
  O  O331  1  0.00385567  0.11381514  0.50160742  1
  O  O332  1  0.00264070  0.61964301  0.00845131  1
  O  O333  1  -0.00173606  0.61366598  0.49895193  1
  O  O334  1  0.50393737  0.11715923  0.00462366  1
  O  O335  1  0.50695979  0.12058958  0.50445218  1
  O  O336  1  0.50914482  0.61698770  0.00943054  1
  O  O337  1  0.50442460  0.61704126  0.50315870  1
  O  O338  1  0.50329814  0.38067560  0.49177441  1
  O  O339  1  0.50072930  0.37999588  0.99340873  1
  O  O340  1  0.49484218  0.88060558  0.49410395  1
  O  O341  1  0.49205987  0.88164176  1.00106745  1
  O  O342  1  0.99373827  0.38200295  0.49420591  1
  O  O343  1  0.99143019  0.38016752  0.99581635  1
  O  O344  1  0.99913712  0.88840622  0.49291227  1
  O  O345  1  0.99070621  0.88123698  0.99451035  1
  O  O346  1  0.49941009  0.49307798  0.38168120  1
  O  O347  1  0.49588386  0.49384792  0.87966452  1
  O  O348  1  0.49415049  0.99392590  0.37978149  1
  O  O349  1  0.49742169  0.99831283  0.88823688  1
  O  O350  1  0.99555385  0.49488845  0.38138167  1
  O  O351  1  0.99748314  0.49425101  0.88350701  1
  O  O352  1  0.99403101  0.99392783  0.38277628  1
  O  O353  1  0.99485192  0.99491136  0.88040003  1
  O  O354  1  0.00598250  0.00299344  0.11882151  1
  O  O355  1  0.00764074  0.00009400  0.61694140  1
  O  O356  1  0.00664260  0.50552257  0.11922175  1
  O  O357  1  -0.00106877  0.49989552  0.61248236  1
  O  O358  1  0.50088343  0.00408631  0.11453345  1
  O  O359  1  0.50535003  0.00518183  0.61790268  1
  O  O360  1  0.50711151  0.50484096  0.12206782  1
  O  O361  1  0.50075550  0.50447364  0.61586668  1
  O  O362  1  0.24454209  0.38268961  0.24526093  1
  O  O363  1  0.25069701  0.38376515  0.74162536  1
  O  O364  1  0.24071957  0.88311569  0.24972603  1
  O  O365  1  0.24326503  0.88199500  0.74871492  1
  O  O366  1  0.73950615  0.38601385  0.25752258  1
  O  O367  1  0.74656859  0.38170646  0.74611422  1
  O  O368  1  0.74916927  0.88733909  0.25001866  1
  O  O369  1  0.74733590  0.88187707  0.74425430  1
  O  O370  1  0.25610681  0.12038614  0.25525554  1
  O  O371  1  0.25509969  0.12068787  0.75427360  1
  O  O372  1  0.24272063  0.61504605  0.25767412  1
  O  O373  1  0.25592226  0.61527945  0.74989826  1
  O  O374  1  0.75163685  0.11188810  0.24847647  1
  O  O375  1  0.75668090  0.11924308  0.75083729  1
  O  O376  1  0.75699954  0.61435122  0.25556908  1
  O  O377  1  0.75767075  0.61662530  0.74983447  1
  O  O378  1  0.37085769  0.11858514  0.36876472  1
  O  O379  1  0.36799415  0.12215459  0.86761127  1
  O  O380  1  0.36122000  0.62312100  0.37617753  1
  O  O381  1  0.37352083  0.61751489  0.86888004  1
  O  O382  1  0.88045566  0.11207456  0.37391829  1
  O  O383  1  0.87308292  0.11862699  0.86881753  1
  O  O384  1  0.87046735  0.61873332  0.36621533  1
  O  O385  1  0.87264048  0.62432160  0.86377225  1
  O  O386  1  0.12994797  0.38139648  0.13016136  1
  O  O387  1  0.13852208  0.38002871  0.62689148  1
  O  O388  1  0.12472850  0.88197292  0.13351664  1
  O  O389  1  0.12636510  0.88671288  0.63144326  1
  O  O390  1  0.61765569  0.38685728  0.13560086  1
  O  O391  1  0.63159287  0.37696139  0.63241925  1
  O  O392  1  0.63070905  0.87835432  0.12886142  1
  O  O393  1  0.63085076  0.88230874  0.62632367  1
  O  O394  1  0.12054074  0.25675479  0.25471828  1
  O  O395  1  0.11806732  0.25229174  0.75612159  1
  O  O396  1  0.13130083  0.76578314  0.25096236  1
  O  O397  1  0.12036550  0.75586854  0.75448581  1
  O  O398  1  0.61761495  0.26062877  0.24165621  1
  O  O399  1  0.62067103  0.25442979  0.75513321  1
  O  O400  1  0.61716464  0.74747269  0.25862431  1
  O  O401  1  0.61886416  0.74746534  0.76069764  1
  O  O402  1  0.38653388  0.24294470  0.24816207  1
  O  O403  1  0.38233397  0.24273742  0.74841736  1
  O  O404  1  0.37974102  0.75527694  0.23629760  1
  O  O405  1  0.37891587  0.74464096  0.74521046  1
  O  O406  1  0.87868278  0.25296057  0.24053621  1
  O  O407  1  0.87895656  0.24655666  0.74557529  1
  O  O408  1  0.86865544  0.73768253  0.25763034  1
  O  O409  1  0.87869335  0.74343796  0.74736667  1
  O  O410  1  0.38909631  0.49868545  0.49759554  1
  O  O411  1  0.38188598  0.49832348  0.99326156  1
  O  O412  1  0.38089187  0.99590866  0.49392513  1
  O  O413  1  0.38239919  0.99063537  1.00105611  1
  O  O414  1  0.88096173  0.49506884  0.49365419  1
  O  O415  1  0.87766758  0.49120744  1.00148507  1
  O  O416  1  0.88257671  1.00026825  0.49450579  1
  O  O417  1  0.87992911  0.99296531  0.99488290  1
  O  O418  1  0.11964546  0.00390734  0.00503302  1
  O  O419  1  0.11810996  0.00033041  0.50782480  1
  O  O420  1  0.11931345  0.50670338  0.00579441  1
  O  O421  1  0.11195391  0.49919625  0.49892086  1
  O  O422  1  0.61640032  0.00465207  -0.00071923  1
  O  O423  1  0.62068540  0.00744440  0.50504283  1
  O  O424  1  0.62096423  0.50350831  0.00728556  1
  O  O425  1  0.61475998  0.50499574  0.49983427  1
  O  O426  1  0.36663324  0.37158609  0.12114255  1
  O  O427  1  0.36291277  0.37166543  0.62123011  1
  O  O428  1  0.37516912  0.86374437  0.11525388  1
  O  O429  1  0.37400286  0.86876331  0.61724171  1
  O  O430  1  0.87998888  0.36495952  0.11325278  1
  O  O431  1  0.86845793  0.36998934  0.61809308  1
  O  O432  1  0.87805527  0.87776998  0.11012541  1
  O  O433  1  0.86744788  0.86904635  0.62423988  1
  O  O434  1  0.13275346  0.13237659  0.37533239  1
  O  O435  1  0.13064836  0.13077754  0.88013822  1
  O  O436  1  0.13624448  0.62948268  0.37847463  1
  O  O437  1  0.12427031  0.63283048  0.88325319  1
  O  O438  1  0.62096477  0.12062655  0.38952084  1
  O  O439  1  0.62589571  0.13259412  0.88304024  1
  O  O440  1  0.63121230  0.62956689  0.38038163  1
  O  O441  1  0.62334991  0.63007773  0.88501709  1
