# generated using pymatgen
data_V93Zn93O256
_symmetry_space_group_name_H-M   'P 1'
_cell_length_a   17.04748793
_cell_length_b   17.04937183
_cell_length_c   17.04867387
_cell_angle_alpha   90.04947520
_cell_angle_beta   89.95753419
_cell_angle_gamma   90.01182416
_symmetry_Int_Tables_number   1
_chemical_formula_structural   V93Zn93O256
_chemical_formula_sum   'V93 Zn93 O256'
_cell_volume   4955.17602581
_cell_formula_units_Z   1
loop_
 _symmetry_equiv_pos_site_id
 _symmetry_equiv_pos_as_xyz
  1  'x, y, z'
loop_
 _atom_site_type_symbol
 _atom_site_label
 _atom_site_symmetry_multiplicity
 _atom_site_fract_x
 _atom_site_fract_y
 _atom_site_fract_z
 _atom_site_occupancy
  V  V0  1  0.62782132  0.62379549  -0.00289228  1
  V  V1  1  0.50182871  0.00073635  0.00079103  1
  V  V2  1  0.24216392  0.37592157  0.62936053  1
  V  V3  1  0.00025072  0.75135988  0.75019190  1
  V  V4  1  0.49878120  0.49601488  0.49791416  1
  V  V5  1  0.25040419  0.62443638  0.87465797  1
  V  V6  1  0.86837996  0.62756185  0.75435846  1
  V  V7  1  0.87656145  0.75055622  0.62609567  1
  V  V8  1  0.74773440  0.25264525  0.50070577  1
  V  V9  1  0.75103309  0.25061500  -0.00074865  1
  V  V10  1  0.12588619  0.87729835  0.75071335  1
  V  V11  1  0.12523348  0.25658811  0.87218297  1
  V  V12  1  0.37298806  0.24933873  0.62608617  1
  V  V13  1  -0.00002141  0.50194261  -0.00032454  1
  V  V14  1  0.74808322  0.87473422  0.62428482  1
  V  V15  1  0.37475720  0.12447624  0.75114883  1
  V  V16  1  0.00042947  0.75137906  0.25139270  1
  V  V17  1  0.62547676  0.24966338  0.87498954  1
  V  V18  1  0.87355498  0.62544151  0.24962573  1
  V  V19  1  0.24133681  0.49619568  0.75091736  1
  V  V20  1  0.25049146  0.00072184  0.75068077  1
  V  V21  1  0.24914215  0.62122288  0.37209589  1
  V  V22  1  0.87586500  0.75139597  0.12418059  1
  V  V23  1  0.12463497  0.25008956  0.37332336  1
  V  V24  1  0.12578882  0.75174209  0.87563711  1
  V  V25  1  0.37544216  0.00099511  0.87572161  1
  V  V26  1  0.00051428  0.00237855  0.00067283  1
  V  V27  1  0.37537409  0.62353815  0.74868938  1
  V  V28  1  0.50097951  0.62166568  0.62451078  1
  V  V29  1  0.49993877  0.37563948  0.87327415  1
  V  V30  1  0.38055187  0.24809535  0.13072800  1
  V  V31  1  0.87616839  0.25126371  0.12435322  1
  V  V32  1  0.62638480  0.12511169  -0.00034081  1
  V  V33  1  0.62472532  0.74679564  0.37455172  1
  V  V34  1  0.87495401  0.87515736  0.49999765  1
  V  V35  1  0.00146648  0.62642410  0.12570153  1
  V  V36  1  0.87506153  0.00105728  0.37441281  1
  V  V37  1  0.62414838  0.49803933  0.12549983  1
  V  V38  1  0.62658401  -0.00133174  0.12530473  1
  V  V39  1  0.61063986  0.25131331  0.37012537  1
  V  V40  1  0.87475606  0.37674201  0.00035720  1
  V  V41  1  0.00084344  0.00078306  0.50033795  1
  V  V42  1  0.75129458  0.74555133  -0.00418283  1
  V  V43  1  0.24881124  0.37826236  0.13062754  1
  V  V44  1  0.74957524  0.12419732  0.37346193  1
  V  V45  1  0.00355525  0.25832939  0.74825499  1
  V  V46  1  0.49972646  0.12326353  0.62471219  1
  V  V47  1  0.25041520  0.12328512  0.37319877  1
  V  V48  1  0.50086083  0.49964072  -0.00240804  1
  V  V49  1  0.62539268  0.62153216  0.49953526  1
  V  V50  1  0.37546905  -0.00323631  0.37498587  1
  V  V51  1  0.87518309  0.00175626  0.87490453  1
  V  V52  1  0.00005999  0.12634988  0.62523667  1
  V  V53  1  0.24998380  0.25103976  -0.00032793  1
  V  V54  1  0.49985126  0.24966685  0.75054407  1
  V  V55  1  0.63258268  0.37466292  0.74193576  1
  V  V56  1  0.24912152  0.25001747  0.50037441  1
  V  V57  1  0.61045323  0.37032428  0.25287079  1
  V  V58  1  0.12591919  0.62639203  0.00097004  1
  V  V59  1  0.74853804  0.62414570  0.37424633  1
  V  V60  1  0.62287610  0.12196377  0.49930475  1
  V  V61  1  0.37511530  0.74793660  0.62544318  1
  V  V62  1  0.37613349  0.74936448  0.12530870  1
  V  V63  1  0.12458112  0.75135035  0.37592380  1
  V  V64  1  0.62623370  0.87383933  0.24930203  1
  V  V65  1  0.87046333  0.25364429  0.62491306  1
  V  V66  1  0.25085851  0.87391417  0.62618768  1
  V  V67  1  0.00116982  0.50174460  0.50229280  1
  V  V68  1  0.50154474  0.87313178  0.87426124  1
  V  V69  1  0.87507100  0.12640731  0.24997132  1
  V  V70  1  0.86638389  0.50629310  0.87527856  1
  V  V71  1  0.00091133  0.37823265  0.87224749  1
  V  V72  1  0.37325674  0.62094553  0.25046341  1
  V  V73  1  0.75020439  0.00102769  0.75022010  1
  V  V74  1  0.12945948  0.50125541  0.13191749  1
  V  V75  1  0.25175091  0.75030843  0.00034786  1
  V  V76  1  0.12750608  0.00226669  0.12625183  1
  V  V77  1  0.74923167  0.49633943  0.24959042  1
  V  V78  1  0.86924536  0.37649116  0.50116530  1
  V  V79  1  0.25110457  0.87654848  0.12611414  1
  V  V80  1  0.49934101  0.87286361  0.37611728  1
  V  V81  1  0.25076090  0.74929999  0.50072001  1
  V  V82  1  0.00100980  0.12727177  0.12570980  1
  V  V83  1  0.37655100  0.87550389  0.00073617  1
  V  V84  1  0.37734538  0.37380904  0.49657153  1
  V  V85  1  0.37121376  0.49681049  0.37198384  1
  V  V86  1  0.37563410  0.49931741  0.87473460  1
  V  V87  1  0.87548183  0.87525864  0.00035380  1
  V  V88  1  0.50057920  0.74743211  0.25012214  1
  V  V89  1  -0.00092288  0.37462172  0.37410958  1
  V  V90  1  0.62746148  0.74522815  0.87292230  1
  V  V91  1  0.00110103  0.87771233  0.87517416  1
  V  V92  1  0.49997964  0.62344712  0.12455784  1
  Zn  Zn93  1  0.64038218  0.49022144  0.61765556  1
  Zn  Zn94  1  0.12087818  0.50009590  0.62939729  1
  Zn  Zn95  1  0.12485449  0.12795491  -0.00066234  1
  Zn  Zn96  1  0.49950734  -0.00467099  0.50212561  1
  Zn  Zn97  1  0.87470205  0.12794147  0.75259019  1
  Zn  Zn98  1  0.75168547  0.87404214  0.12609379  1
  Zn  Zn99  1  0.62207366  -0.00202913  0.62661013  1
  Zn  Zn100  1  0.74970145  0.50054224  0.74462397  1
  Zn  Zn101  1  0.00105763  0.62469445  0.62659436  1
  Zn  Zn102  1  -0.00026334  0.25288033  0.24835718  1
  Zn  Zn103  1  0.75101442  0.74717093  0.49956931  1
  Zn  Zn104  1  0.24828594  0.12669866  0.87465198  1
  Zn  Zn105  1  0.12647702  0.00094908  0.62571968  1
  Zn  Zn106  1  0.37698228  0.37477085  0.00033316  1
  Zn  Zn107  1  0.50183902  0.74876585  0.74883495  1
  Zn  Zn108  1  0.75147780  0.12562442  0.87364996  1
  Zn  Zn109  1  0.12471245  0.62376961  0.50385621  1
  Zn  Zn110  1  0.38477232  0.13000035  0.25603874  1
  Zn  Zn111  1  0.75160338  -0.00207038  0.24898264  1
  Zn  Zn112  1  0.12713753  0.38114528  0.25299515  1
  Zn  Zn113  1  0.50570392  0.13120434  0.13149517  1
  Zn  Zn114  1  0.00034403  0.87599104  0.37419143  1
  Zn  Zn115  1  0.37700259  0.87326756  0.50202535  1
  Zn  Zn116  1  0.25135315  -0.00050280  0.25008273  1
  Zn  Zn117  1  0.12540784  0.12384685  0.50031279  1
  Zn  Zn118  1  0.62368161  0.87337826  0.74930779  1
  Zn  Zn119  1  0.87504965  0.50106365  0.37451272  1
  Zn  Zn120  1  0.74964785  0.37304175  0.12615995  1
  Zn  Zn121  1  0.12580968  0.87652633  0.25087127  1
  Zn  Zn122  1  0.19039379  0.18912411  0.18937137  1
  Zn  Zn123  1  0.18603020  0.18738763  0.68895382  1
  Zn  Zn124  1  0.18884947  0.68861667  0.19000365  1
  Zn  Zn125  1  0.18564472  0.68509048  0.68651481  1
  Zn  Zn126  1  0.68852827  0.18772924  0.18788411  1
  Zn  Zn127  1  0.68643685  0.18657408  0.68708947  1
  Zn  Zn128  1  0.68825697  0.68665743  0.18444174  1
  Zn  Zn129  1  0.68672828  0.68520438  0.68445669  1
  Zn  Zn130  1  0.31138602  0.31346553  0.31119993  1
  Zn  Zn131  1  0.31319144  0.31446946  0.81240997  1
  Zn  Zn132  1  0.31164436  0.81217219  0.31103450  1
  Zn  Zn133  1  0.31425193  0.81237122  0.81157988  1
  Zn  Zn134  1  0.80868100  0.31043315  0.31359115  1
  Zn  Zn135  1  0.81397260  0.31400338  0.81448744  1
  Zn  Zn136  1  0.81168449  0.81338233  0.31327219  1
  Zn  Zn137  1  0.81203479  0.81458919  0.81307768  1
  Zn  Zn138  1  0.18737314  0.43653731  0.44077875  1
  Zn  Zn139  1  0.18735960  0.43689763  0.94132737  1
  Zn  Zn140  1  0.18834553  0.93596198  0.44067581  1
  Zn  Zn141  1  0.18898202  0.93927592  0.93910000  1
  Zn  Zn142  1  0.68437435  0.43499433  0.43166946  1
  Zn  Zn143  1  0.68703765  0.43412740  0.93498799  1
  Zn  Zn144  1  0.68790023  0.93617609  0.43581547  1
  Zn  Zn145  1  0.68887427  0.93360319  0.93734256  1
  Zn  Zn146  1  0.31245428  0.06604781  0.06076363  1
  Zn  Zn147  1  0.31246287  0.06094582  0.56141599  1
  Zn  Zn148  1  0.31330564  0.56164368  0.06094365  1
  Zn  Zn149  1  0.31089072  0.56173113  0.56219596  1
  Zn  Zn150  1  0.81190411  0.06470849  0.06203596  1
  Zn  Zn151  1  0.81233225  0.06360700  0.56248367  1
  Zn  Zn152  1  0.81214141  0.56372450  0.06403901  1
  Zn  Zn153  1  0.81324512  0.56377989  0.56639561  1
  Zn  Zn154  1  0.43410603  0.43625858  0.18592578  1
  Zn  Zn155  1  0.43585946  0.43627903  0.68622361  1
  Zn  Zn156  1  0.44002783  0.93918822  0.19055313  1
  Zn  Zn157  1  0.43824630  0.93595808  0.68844948  1
  Zn  Zn158  1  0.93832257  0.43892925  0.18667540  1
  Zn  Zn159  1  0.93123047  0.43993216  0.68686087  1
  Zn  Zn160  1  0.94032173  0.93760031  0.18852062  1
  Zn  Zn161  1  0.93594853  0.93789423  0.68770791  1
  Zn  Zn162  1  0.06181473  0.06428309  0.31104028  1
  Zn  Zn163  1  0.06344226  0.06802511  0.81238571  1
  Zn  Zn164  1  0.06066180  0.56479799  0.31514666  1
  Zn  Zn165  1  0.05842806  0.56632729  0.81379698  1
  Zn  Zn166  1  0.55970623  0.06207711  0.31014561  1
  Zn  Zn167  1  0.56397705  0.06172340  0.81290307  1
  Zn  Zn168  1  0.55952735  0.55765688  0.31363646  1
  Zn  Zn169  1  0.56497750  0.56050066  0.80891215  1
  Zn  Zn170  1  0.43534324  0.18432258  0.43968678  1
  Zn  Zn171  1  0.43856676  0.18682174  0.94064489  1
  Zn  Zn172  1  0.43698492  0.68469086  0.43925660  1
  Zn  Zn173  1  0.43997320  0.68636386  0.93637841  1
  Zn  Zn174  1  0.93657510  0.18749568  0.43760370  1
  Zn  Zn175  1  0.93802219  0.18715094  0.93750691  1
  Zn  Zn176  1  0.93523732  0.68752276  0.43733561  1
  Zn  Zn177  1  0.93884226  0.68816924  0.93667759  1
  Zn  Zn178  1  0.06282836  0.31553299  0.06026858  1
  Zn  Zn179  1  0.06110717  0.31341422  0.55977614  1
  Zn  Zn180  1  0.06334910  0.81528387  0.06316472  1
  Zn  Zn181  1  0.06390858  0.81338394  0.56330973  1
  Zn  Zn182  1  0.56496353  0.31602940  0.06182069  1
  Zn  Zn183  1  0.56020085  0.30900176  0.56145577  1
  Zn  Zn184  1  0.56361955  0.81285782  0.06159153  1
  Zn  Zn185  1  0.56245430  0.80826776  0.56079637  1
  O  O186  1  0.12147656  0.11790886  0.12519438  1
  O  O187  1  0.11196920  0.12555397  0.62216157  1
  O  O188  1  0.12256027  0.62029790  0.12041817  1
  O  O189  1  0.11896647  0.62000801  0.62133366  1
  O  O190  1  0.62640531  0.11541306  0.11859345  1
  O  O191  1  0.61903116  0.12574257  0.61400689  1
  O  O192  1  0.61845154  0.61797262  0.11893882  1
  O  O193  1  0.61858845  0.62020632  0.61680826  1
  O  O194  1  0.36310953  0.38266896  0.38683909  1
  O  O195  1  0.38229121  0.38175751  0.87637839  1
  O  O196  1  0.37983139  0.88056603  0.37620072  1
  O  O197  1  0.38048511  0.88000491  0.88165146  1
  O  O198  1  0.88305653  0.37352442  0.38443702  1
  O  O199  1  0.88182208  0.38537654  0.88027531  1
  O  O200  1  0.87664175  0.88175543  0.38222201  1
  O  O201  1  0.88227825  0.88143014  0.88082724  1
  O  O202  1  0.25522982  0.00755897  0.37619169  1
  O  O203  1  0.25727713  0.00237096  0.87002515  1
  O  O204  1  0.25867628  0.50955241  0.38279238  1
  O  O205  1  0.25415479  0.50376487  0.87001868  1
  O  O206  1  0.75717244  0.00709889  0.37479713  1
  O  O207  1  0.75588291  -0.00177417  0.86566214  1
  O  O208  1  0.75052222  0.50487103  0.36381247  1
  O  O209  1  0.76391155  0.49651525  0.87261572  1
  O  O210  1  0.24013148  0.49146465  0.11563971  1
  O  O211  1  0.24924200  0.49247378  0.63360540  1
  O  O212  1  0.24318321  0.99662463  0.12413072  1
  O  O213  1  0.24921962  0.99379121  0.63201930  1
  O  O214  1  0.74302803  0.50100488  0.13499395  1
  O  O215  1  0.75256918  0.49752855  0.63031840  1
  O  O216  1  0.73823271  0.99705925  0.12427647  1
  O  O217  1  0.75087017  0.99170236  0.63203709  1
  O  O218  1  0.00089677  0.37534076  0.26334687  1
  O  O219  1  -0.00776594  0.36450898  0.75377329  1
  O  O220  1  0.00431643  0.86699434  0.25376892  1
  O  O221  1  0.00540307  0.87208000  0.75622708  1
  O  O222  1  0.51187771  0.37886810  0.24704071  1
  O  O223  1  0.50485681  0.36829562  0.75445814  1
  O  O224  1  0.50595414  0.86634445  0.25586985  1
  O  O225  1  0.50306014  0.87087756  0.75841900  1
  O  O226  1  0.49596901  0.12218099  0.24293846  1
  O  O227  1  0.49509000  0.12988857  0.74475677  1
  O  O228  1  0.49444430  0.62788476  0.24407047  1
  O  O229  1  0.49276791  0.62319536  0.74199559  1
  O  O230  1  0.99303488  0.12920164  0.24384646  1
  O  O231  1  0.99686442  0.13657502  0.74041197  1
  O  O232  1  0.99364964  0.63085020  0.24498655  1
  O  O233  1  0.99066127  0.63437756  0.74995333  1
  O  O234  1  0.36503890  0.25266982  0.00703939  1
  O  O235  1  0.36926464  0.25632455  0.50496486  1
  O  O236  1  0.37126672  0.75437821  0.00566299  1
  O  O237  1  0.36845294  0.74925543  0.50726849  1
  O  O238  1  0.87158737  0.25708684  0.00374951  1
  O  O239  1  0.86751122  0.25633654  0.50493734  1
  O  O240  1  0.86962150  0.75414982  0.00312042  1
  O  O241  1  0.87359090  0.75679698  0.50693112  1
  O  O242  1  0.12990663  0.24978087  0.48836209  1
  O  O243  1  0.13310402  0.25083783  0.99227834  1
  O  O244  1  0.12979121  0.74803079  0.49081432  1
  O  O245  1  0.13157353  0.74634163  0.99566918  1
  O  O246  1  0.63032480  0.24335569  0.49295270  1
  O  O247  1  0.63052711  0.24606694  0.99517354  1
  O  O248  1  0.62693330  0.73957508  0.49160392  1
  O  O249  1  0.63256158  0.74487778  0.99413729  1
  O  O250  1  0.48238726  0.25321966  0.11493948  1
  O  O251  1  0.49162715  0.24287834  0.63042102  1
  O  O252  1  0.49532714  0.74334742  0.12937125  1
  O  O253  1  0.49401713  0.73996431  0.62586843  1
  O  O254  1  0.99529816  0.24600135  0.12561594  1
  O  O255  1  0.99328484  0.24575225  0.62908727  1
  O  O256  1  0.99656873  0.74518621  0.12970375  1
  O  O257  1  0.99332166  0.75298936  0.63304807  1
  O  O258  1  0.00779220  0.25848432  0.37754997  1
  O  O259  1  0.00472339  0.25680163  0.86708205  1
  O  O260  1  0.00965265  0.74933776  0.37129973  1
  O  O261  1  0.00680291  0.75823262  0.87118919  1
  O  O262  1  0.51185682  0.24408015  0.37909151  1
  O  O263  1  0.50515933  0.25479181  0.86993754  1
  O  O264  1  0.50445739  0.75153650  0.36899143  1
  O  O265  1  0.50969364  0.75523507  0.87509456  1
  O  O266  1  0.24821174  0.13094337  0.49070432  1
  O  O267  1  0.24771396  0.13906685  0.99659660  1
  O  O268  1  0.24952638  0.63047413  0.48873481  1
  O  O269  1  0.24578988  0.63109064  0.99430325  1
  O  O270  1  0.74200825  0.13268087  0.49524812  1
  O  O271  1  0.74384282  0.13229085  0.99702234  1
  O  O272  1  0.74406835  0.62355122  0.49178559  1
  O  O273  1  0.74452269  0.63723714  1.00523179  1
  O  O274  1  0.25138757  0.36608000  0.00955476  1
  O  O275  1  0.25834692  0.37027526  0.50899143  1
  O  O276  1  0.25729552  0.86948935  0.00545498  1
  O  O277  1  0.25204147  0.86698494  0.50837505  1
  O  O278  1  0.75691440  0.36942827  0.00198630  1
  O  O279  1  0.75884722  0.36443386  0.49056342  1
  O  O280  1  0.75776108  0.86386551  0.00244260  1
  O  O281  1  0.75559739  0.87495015  0.50946032  1
  O  O282  1  0.11971560  0.50267735  0.23552147  1
  O  O283  1  0.13779589  0.50450964  0.75312834  1
  O  O284  1  0.12715026  0.99954141  0.23810664  1
  O  O285  1  0.13114549  0.99538113  0.74999060  1
  O  O286  1  0.63074164  0.49206756  0.24682082  1
  O  O287  1  0.62750365  0.48884550  0.74645573  1
  O  O288  1  0.62633467  0.99260103  0.24060032  1
  O  O289  1  0.63708866  0.99673086  0.74838987  1
  O  O290  1  0.37188614  -0.00008005  0.26413747  1
  O  O291  1  0.37007959  0.00518134  0.75640817  1
  O  O292  1  0.38131817  0.50402504  0.26372947  1
  O  O293  1  0.36574651  0.50480010  0.75549252  1
  O  O294  1  0.87536460  0.00728346  0.25605171  1
  O  O295  1  0.86640292  0.00161003  0.75546943  1
  O  O296  1  0.86566944  0.50608173  0.24946494  1
  O  O297  1  0.87596232  0.50989897  0.75949970  1
  O  O298  1  0.11786938  0.36825509  0.37536365  1
  O  O299  1  0.11724461  0.36464256  0.88088819  1
  O  O300  1  0.12512355  0.86248922  0.37414311  1
  O  O301  1  0.12088745  0.87104552  0.87138386  1
  O  O302  1  0.62794331  0.36283316  0.36498015  1
  O  O303  1  0.61826634  0.36854390  0.86602357  1
  O  O304  1  0.62006063  0.86751258  0.36982937  1
  O  O305  1  0.61933143  0.86298754  0.87546535  1
  O  O306  1  0.37224950  0.14109272  0.12560904  1
  O  O307  1  0.37900626  0.13014430  0.63011562  1
  O  O308  1  0.37974531  0.62866454  0.12981497  1
  O  O309  1  0.37942004  0.62844790  0.62925036  1
  O  O310  1  0.88132618  0.13085362  0.12954726  1
  O  O311  1  0.88449734  0.13674302  0.62325034  1
  O  O312  1  0.88214255  0.63149631  0.12987809  1
  O  O313  1  0.87978514  0.63366453  0.63519085  1
  O  O314  1  0.25516225  0.25777104  0.11719160  1
  O  O315  1  0.25347791  0.25622719  0.62163212  1
  O  O316  1  0.25655944  0.75441567  0.11937633  1
  O  O317  1  0.25496524  0.75359331  0.62075210  1
  O  O318  1  0.75826122  0.25105764  0.11687119  1
  O  O319  1  0.75924536  0.24226859  0.61207997  1
  O  O320  1  0.75720240  0.75119471  0.11509588  1
  O  O321  1  0.75636751  0.76016186  0.62415595  1
  O  O322  1  0.24409314  0.24374841  0.37985853  1
  O  O323  1  0.24230991  0.25391276  0.88169697  1
  O  O324  1  0.24341082  0.74243124  0.37984613  1
  O  O325  1  0.24572580  0.74523182  0.88098585  1
  O  O326  1  0.74422118  0.24247273  0.38566648  1
  O  O327  1  0.74412206  0.24880183  0.88150184  1
  O  O328  1  0.74251849  0.74186470  0.37522254  1
  O  O329  1  0.74134866  0.75660710  0.88603186  1
  O  O330  1  0.00195068  0.11951593  0.00779183  1
  O  O331  1  -0.00062252  0.11798367  0.50818169  1
  O  O332  1  0.00680036  0.62269614  0.00630920  1
  O  O333  1  -0.00304072  0.61158080  0.49957307  1
  O  O334  1  0.50800637  0.11816116  0.00506404  1
  O  O335  1  0.50889434  0.12356808  0.50609652  1
  O  O336  1  0.50656582  0.61910476  0.00554395  1
  O  O337  1  0.50472889  0.61498598  0.50453529  1
  O  O338  1  0.48517748  0.38055410  0.50606266  1
  O  O339  1  0.50100496  0.38302276  0.99128822  1
  O  O340  1  0.49841199  0.87488192  0.49187009  1
  O  O341  1  0.49476767  0.87989835  0.99440182  1
  O  O342  1  0.99077531  0.38038679  0.49179070  1
  O  O343  1  0.99373829  0.38313580  0.99343866  1
  O  O344  1  0.99407683  0.88633978  0.50120346  1
  O  O345  1  0.99564851  0.88174721  0.99439153  1
  O  O346  1  0.48627407  0.50448300  0.38900185  1
  O  O347  1  0.49516054  0.49579184  0.87860478  1
  O  O348  1  0.49127498  0.99176815  0.37694027  1
  O  O349  1  0.49564434  0.99376437  0.88090758  1
  O  O350  1  0.99833143  0.49051203  0.38258115  1
  O  O351  1  0.99320973  0.49683189  0.88099154  1
  O  O352  1  0.99528488  1.00132338  0.38546667  1
  O  O353  1  0.99673267  0.99683289  0.88023882  1
  O  O354  1  0.00881943  0.00618867  0.12020637  1
  O  O355  1  -0.00243651  0.01011175  0.61795670  1
  O  O356  1  0.00798926  0.50698020  0.11898897  1
  O  O357  1  0.00023554  0.49714089  0.61467776  1
  O  O358  1  0.51246756  -0.00315342  0.11795910  1
  O  O359  1  0.50213390  0.00675204  0.62249697  1
  O  O360  1  0.50433947  0.50446794  0.11825135  1
  O  O361  1  0.49504719  0.50431166  0.61046205  1
  O  O362  1  0.24605979  0.37208209  0.23525162  1
  O  O363  1  0.25638260  0.38463535  0.74048676  1
  O  O364  1  0.24704364  0.87696238  0.24090092  1
  O  O365  1  0.24538541  0.88065781  0.74643804  1
  O  O366  1  0.74622203  0.38617606  0.24942742  1
  O  O367  1  0.73593741  0.37280087  0.75490461  1
  O  O368  1  0.74212357  0.87663436  0.24693894  1
  O  O369  1  0.75069412  0.88343253  0.74026053  1
  O  O370  1  0.25488581  0.12502196  0.26442912  1
  O  O371  1  0.25677504  0.11969592  0.75142670  1
  O  O372  1  0.25720181  0.63030726  0.26363994  1
  O  O373  1  0.25502133  0.61639899  0.75610724  1
  O  O374  1  0.75717889  0.12238369  0.25654733  1
  O  O375  1  0.75274598  0.11398238  0.74940234  1
  O  O376  1  0.75272841  0.61561826  0.25325944  1
  O  O377  1  0.76571718  0.62916806  0.74957416  1
  O  O378  1  0.36619993  0.11689624  0.37693501  1
  O  O379  1  0.37506167  0.11883156  0.86888240  1
  O  O380  1  0.36737959  0.61695669  0.37105079  1
  O  O381  1  0.36925374  0.61966662  0.87029822  1
  O  O382  1  0.86983219  0.12124770  0.37063811  1
  O  O383  1  0.87304590  0.11751245  0.87272944  1
  O  O384  1  0.86750208  0.62372758  0.36669094  1
  O  O385  1  0.88202341  0.61665341  0.86777886  1
  O  O386  1  0.13051350  0.38494661  0.12539109  1
  O  O387  1  0.13871688  0.37594272  0.61884187  1
  O  O388  1  0.13204355  0.88602125  0.12407482  1
  O  O389  1  0.13236532  0.87662584  0.63380187  1
  O  O390  1  0.62849999  0.38036430  0.13447213  1
  O  O391  1  0.61710969  0.37278422  0.63658941  1
  O  O392  1  0.62614870  0.88220403  0.12978731  1
  O  O393  1  0.63608923  0.87478647  0.62481145  1
  O  O394  1  0.12376530  0.25325377  0.26385596  1
  O  O395  1  0.11381042  0.24847933  0.75801676  1
  O  O396  1  0.11935127  0.74945007  0.26001645  1
  O  O397  1  0.12117506  0.75673815  0.75732884  1
  O  O398  1  0.63231724  0.25869418  0.25862450  1
  O  O399  1  0.61905538  0.25441753  0.75429647  1
  O  O400  1  0.61912763  0.75230690  0.25391506  1
  O  O401  1  0.62553557  0.74966036  0.76080423  1
  O  O402  1  0.36981124  0.25217914  0.23373240  1
  O  O403  1  0.37986735  0.24458803  0.74549660  1
  O  O404  1  0.38133337  0.74247373  0.24423747  1
  O  O405  1  0.37539711  0.74062594  0.74411018  1
  O  O406  1  0.87559658  0.24469127  0.24356024  1
  O  O407  1  0.88173578  0.25041109  0.74043359  1
  O  O408  1  0.88007081  0.74513647  0.24431579  1
  O  O409  1  0.88080872  0.74622699  0.74831446  1
  O  O410  1  0.37875658  0.49224410  0.49315719  1
  O  O411  1  0.38256151  0.49919680  0.99262591  1
  O  O412  1  0.37596681  0.99667658  0.48746546  1
  O  O413  1  0.38084726  0.99518986  0.99624199  1
  O  O414  1  0.88181461  0.49017466  0.49768586  1
  O  O415  1  0.88010102  0.49907507  0.99398835  1
  O  O416  1  0.88315974  0.99692215  0.49546457  1
  O  O417  1  0.88083573  0.99523190  0.99565428  1
  O  O418  1  0.12044651  0.00310181  0.00968635  1
  O  O419  1  0.11296164  0.00140060  0.50323410  1
  O  O420  1  0.11935356  0.50763565  0.00783762  1
  O  O421  1  0.11220870  0.49972982  0.50095043  1
  O  O422  1  0.62206786  0.00336587  0.00595987  1
  O  O423  1  0.62523273  0.01295341  0.49998599  1
  O  O424  1  0.62145993  0.50377584  0.00411065  1
  O  O425  1  0.61401489  0.50031743  0.49767507  1
  O  O426  1  0.36619475  0.36697666  0.12202857  1
  O  O427  1  0.36480737  0.36883149  0.61672424  1
  O  O428  1  0.37213078  0.86958327  0.12011939  1
  O  O429  1  0.36848223  0.86659669  0.62570329  1
  O  O430  1  0.87480062  0.37044736  0.11784611  1
  O  O431  1  0.88015771  0.36271764  0.61267902  1
  O  O432  1  0.87665920  0.86899908  0.11781436  1
  O  O433  1  0.86654623  0.87097735  0.62045795  1
  O  O434  1  0.13250245  0.13289775  0.37662113  1
  O  O435  1  0.12594913  0.14157870  0.87760471  1
  O  O436  1  0.13285755  0.63312455  0.37651318  1
  O  O437  1  0.13047594  0.63207327  0.88144745  1
  O  O438  1  0.62930698  0.13093985  0.38203830  1
  O  O439  1  0.62651016  0.13224757  0.88143221  1
  O  O440  1  0.62844899  0.62722468  0.37904016  1
  O  O441  1  0.61856908  0.63613528  0.88163933  1
