# generated using pymatgen
data_V93Zn93O256
_symmetry_space_group_name_H-M   'P 1'
_cell_length_a   17.04942918
_cell_length_b   17.05159267
_cell_length_c   17.05251804
_cell_angle_alpha   89.98512060
_cell_angle_beta   89.90804685
_cell_angle_gamma   89.99721135
_symmetry_Int_Tables_number   1
_chemical_formula_structural   V93Zn93O256
_chemical_formula_sum   'V93 Zn93 O256'
_cell_volume   4957.50014913
_cell_formula_units_Z   1
loop_
 _symmetry_equiv_pos_site_id
 _symmetry_equiv_pos_as_xyz
  1  'x, y, z'
loop_
 _atom_site_type_symbol
 _atom_site_label
 _atom_site_symmetry_multiplicity
 _atom_site_fract_x
 _atom_site_fract_y
 _atom_site_fract_z
 _atom_site_occupancy
  V  V0  1  0.37632647  0.24974084  0.12463076  1
  V  V1  1  0.49808862  0.62432950  0.62406667  1
  V  V2  1  0.62606777  0.49967855  0.62454093  1
  V  V3  1  0.37621180  0.74985627  0.12358811  1
  V  V4  1  0.62874822  0.87534312  0.74337405  1
  V  V5  1  0.24740334  0.49973078  0.75179111  1
  V  V6  1  0.50300857  0.62485305  0.12245229  1
  V  V7  1  0.50104355  0.87505040  0.37364417  1
  V  V8  1  0.75630884  0.37634283  0.11899316  1
  V  V9  1  0.25105560  0.37507965  0.12589674  1
  V  V10  1  0.24902816  -0.00149563  0.75051242  1
  V  V11  1  0.24821697  0.25000007  -0.00077398  1
  V  V12  1  0.49879967  0.12595964  0.62436937  1
  V  V13  1  0.00032685  0.74713652  0.75193045  1
  V  V14  1  -0.00002395  0.87053262  0.87778154  1
  V  V15  1  0.87613941  0.12558484  0.25039645  1
  V  V16  1  0.49956482  0.87520682  0.87245144  1
  V  V17  1  0.49789740  0.74996521  0.74774177  1
  V  V18  1  0.75231085  0.25330296  0.49899374  1
  V  V19  1  0.37444526  0.87443754  0.50018782  1
  V  V20  1  0.75107001  -0.00018862  0.24812533  1
  V  V21  1  0.24917366  0.12770065  0.37730902  1
  V  V22  1  0.37578927  0.00007578  0.37404675  1
  V  V23  1  0.62506477  0.25027181  0.87307386  1
  V  V24  1  0.87535809  0.62487980  0.25326496  1
  V  V25  1  0.12208674  0.37359948  0.75444304  1
  V  V26  1  0.87442427  0.12397128  0.74991027  1
  V  V27  1  0.87598023  -0.00056657  0.37553290  1
  V  V28  1  -0.00809957  0.37304033  0.88096105  1
  V  V29  1  0.74995293  0.12494567  0.87391222  1
  V  V30  1  0.12213756  0.50082017  0.62613887  1
  V  V31  1  0.62639687  0.50192479  0.12309270  1
  V  V32  1  0.12434779  0.37480392  0.25400525  1
  V  V33  1  0.37451627  0.87458212  -0.00130574  1
  V  V34  1  0.50080625  0.12605873  0.12354104  1
  V  V35  1  0.49959125  0.49904570  0.49877419  1
  V  V36  1  0.87621592  0.25270169  0.12171954  1
  V  V37  1  0.24988002  0.87522464  0.12473407  1
  V  V38  1  0.86861124  0.87426613  0.50529849  1
  V  V39  1  0.37547121  0.62496349  0.24905219  1
  V  V40  1  0.00118811  0.12445746  0.12516332  1
  V  V41  1  0.24952324  0.62605033  0.37550670  1
  V  V42  1  0.50070022  0.00006151  -0.00170692  1
  V  V43  1  0.86777002  0.75292026  0.62647006  1
  V  V44  1  0.24890466  0.74987456  0.50065716  1
  V  V45  1  0.62619881  0.74908617  0.37409040  1
  V  V46  1  0.24989869  0.50018344  0.24933793  1
  V  V47  1  0.74969131  -0.00184249  0.74543615  1
  V  V48  1  0.50029955  0.37425849  0.87406957  1
  V  V49  1  0.62468064  0.62507806  0.49845079  1
  V  V50  1  0.37470621  0.49929270  0.87723739  1
  V  V51  1  0.75011695  0.50485184  0.75357890  1
  V  V52  1  0.62834761  0.87538952  0.24717336  1
  V  V53  1  0.62589349  0.12505349  0.49900596  1
  V  V54  1  0.00159284  0.62423217  0.12579689  1
  V  V55  1  0.24950548  0.87425672  0.62600515  1
  V  V56  1  0.37426565  -0.00005181  0.87436128  1
  V  V57  1  0.37677078  0.12509009  0.24839110  1
  V  V58  1  0.12498896  0.75010585  0.37770542  1
  V  V59  1  -0.00334486  -0.00415326  0.00071608  1
  V  V60  1  0.00090718  0.25066475  0.25110614  1
  V  V61  1  0.62916485  -0.00204194  0.62334837  1
  V  V62  1  0.00138934  0.12461731  0.62576290  1
  V  V63  1  0.50124477  0.75018136  0.24829927  1
  V  V64  1  0.87560107  0.49469628  0.38092137  1
  V  V65  1  0.37558863  0.49962271  0.37486209  1
  V  V66  1  0.25062452  -0.00037829  0.24868388  1
  V  V67  1  0.62716406  -0.00061260  0.12306357  1
  V  V68  1  0.75465164  0.25165954  -0.00134867  1
  V  V69  1  0.37264747  0.37307446  0.50132518  1
  V  V70  1  0.37422456  0.62497386  0.74965617  1
  V  V71  1  0.00188013  0.75063910  0.25396665  1
  V  V72  1  0.50155343  0.00025052  0.49863776  1
  V  V73  1  0.37538282  0.12543661  0.74823921  1
  V  V74  1  0.87545999  0.25361361  0.62401200  1
  V  V75  1  0.87061711  0.50576131  0.87714041  1
  V  V76  1  0.87315820  0.75713895  0.12051862  1
  V  V77  1  0.75294175  0.37691121  0.62152485  1
  V  V78  1  -0.00406454  0.49425849  0.50220748  1
  V  V79  1  0.00000547  0.00104485  0.50180667  1
  V  V80  1  0.62432760  0.37309317  0.24922313  1
  V  V81  1  0.12483324  0.87039621  0.75405289  1
  V  V82  1  0.24193121  0.74890090  -0.00249438  1
  V  V83  1  0.63002366  0.74312598  0.87444330  1
  V  V84  1  0.12533899  -0.00006869  0.12490487  1
  V  V85  1  -0.00641211  0.49534879  0.00326768  1
  V  V86  1  0.62573961  0.12446479  -0.00187963  1
  V  V87  1  0.75075035  0.62613208  0.37685768  1
  V  V88  1  0.24858531  0.12515699  0.87498112  1
  V  V89  1  0.00112761  0.87423401  0.37788738  1
  V  V90  1  0.75063826  0.12620494  0.37478988  1
  V  V91  1  0.87349919  -0.00526331  0.87832511  1
  V  V92  1  0.24300313  0.62784233  0.87702676  1
  Zn  Zn93  1  0.12611164  0.12680786  0.50138070  1
  Zn  Zn94  1  0.24686872  0.24993442  0.50403457  1
  Zn  Zn95  1  -0.00166035  0.24893963  0.75397234  1
  Zn  Zn96  1  0.62453277  0.37306559  0.74819715  1
  Zn  Zn97  1  0.37355376  0.25068207  0.62579281  1
  Zn  Zn98  1  0.75829046  0.75002963  -0.01073878  1
  Zn  Zn99  1  0.12492966  0.00025478  0.62527082  1
  Zn  Zn100  1  0.50092049  0.50210213  -0.00114572  1
  Zn  Zn101  1  0.37345868  0.74871484  0.62417045  1
  Zn  Zn102  1  0.74676960  0.75342557  0.50504466  1
  Zn  Zn103  1  0.12188375  0.62512931  -0.00210284  1
  Zn  Zn104  1  -0.00497285  0.37136088  0.38059131  1
  Zn  Zn105  1  0.12625233  0.87522896  0.25212740  1
  Zn  Zn106  1  0.75732914  0.88080204  0.11091283  1
  Zn  Zn107  1  0.63181478  0.62218440  -0.00757420  1
  Zn  Zn108  1  -0.00337337  0.62503837  0.62511539  1
  Zn  Zn109  1  0.62413443  0.25080173  0.37357030  1
  Zn  Zn110  1  0.50080351  0.37218913  0.37440365  1
  Zn  Zn111  1  0.75162826  0.49880712  0.25050679  1
  Zn  Zn112  1  0.49990452  0.25009692  0.74709515  1
  Zn  Zn113  1  0.12198609  0.24933681  0.37946809  1
  Zn  Zn114  1  0.12569990  0.49993682  0.12410553  1
  Zn  Zn115  1  0.12417341  0.12415262  -0.00193718  1
  Zn  Zn116  1  0.86973378  0.62885777  0.75228867  1
  Zn  Zn117  1  0.24894290  0.37198024  0.62669629  1
  Zn  Zn118  1  0.50152885  0.24939643  0.25091136  1
  Zn  Zn119  1  0.37508442  0.37610038  0.00134857  1
  Zn  Zn120  1  0.12093793  0.24750447  0.87624677  1
  Zn  Zn121  1  0.12395784  0.62415286  0.50167309  1
  Zn  Zn122  1  0.18725663  0.18765469  0.18847430  1
  Zn  Zn123  1  0.18926809  0.19034789  0.68828791  1
  Zn  Zn124  1  0.18730229  0.68956422  0.18875250  1
  Zn  Zn125  1  0.18666999  0.68753869  0.68860182  1
  Zn  Zn126  1  0.68897370  0.18836591  0.18526319  1
  Zn  Zn127  1  0.68578822  0.18646735  0.68714684  1
  Zn  Zn128  1  0.69079008  0.68655286  0.18729363  1
  Zn  Zn129  1  0.68546006  0.68655702  0.68767558  1
  Zn  Zn130  1  0.31410102  0.31180764  0.31289025  1
  Zn  Zn131  1  0.31206897  0.31110591  0.81182909  1
  Zn  Zn132  1  0.31251798  0.81254381  0.31228781  1
  Zn  Zn133  1  0.31261990  0.81025724  0.81322947  1
  Zn  Zn134  1  0.81043013  0.31296926  0.30788658  1
  Zn  Zn135  1  0.81174342  0.31606441  0.80966266  1
  Zn  Zn136  1  0.81260137  0.81312565  0.31263382  1
  Zn  Zn137  1  0.81227959  0.81494064  0.81007060  1
  Zn  Zn138  1  0.18742817  0.43868949  0.43870523  1
  Zn  Zn139  1  0.18247924  0.43835916  0.94050304  1
  Zn  Zn140  1  0.18632646  0.93993723  0.43987738  1
  Zn  Zn141  1  0.18441277  0.93701462  0.93778314  1
  Zn  Zn142  1  0.68892058  0.43890502  0.43616998  1
  Zn  Zn143  1  0.68703355  0.43598005  0.93770216  1
  Zn  Zn144  1  0.68843354  0.93791761  0.43452850  1
  Zn  Zn145  1  0.68901923  0.93035117  0.93572677  1
  Zn  Zn146  1  0.31277938  0.06360393  0.06129903  1
  Zn  Zn147  1  0.31283223  0.06051166  0.56311902  1
  Zn  Zn148  1  0.31255785  0.56341221  0.06256424  1
  Zn  Zn149  1  0.31012950  0.56000276  0.56283989  1
  Zn  Zn150  1  0.81416165  0.06595926  0.06168829  1
  Zn  Zn151  1  0.81324455  0.06412074  0.56223584  1
  Zn  Zn152  1  0.80904884  0.56853624  0.05819798  1
  Zn  Zn153  1  0.81382805  0.56747369  0.56441894  1
  Zn  Zn154  1  0.43925436  0.43713222  0.18667739  1
  Zn  Zn155  1  0.43721329  0.43758315  0.68753608  1
  Zn  Zn156  1  0.43885627  0.93788884  0.18585258  1
  Zn  Zn157  1  0.43827354  0.93866263  0.68519270  1
  Zn  Zn158  1  0.93770576  0.43771184  0.19128365  1
  Zn  Zn159  1  0.93637377  0.43732308  0.69183054  1
  Zn  Zn160  1  0.94057353  0.93750044  0.19132037  1
  Zn  Zn161  1  0.93722583  0.93617679  0.68878953  1
  Zn  Zn162  1  0.06445365  0.06152247  0.31265972  1
  Zn  Zn163  1  0.06343854  0.06068775  0.81172531  1
  Zn  Zn164  1  0.06283277  0.56113591  0.31577061  1
  Zn  Zn165  1  0.05885208  0.56014066  0.81524694  1
  Zn  Zn166  1  0.56438686  0.06372038  0.31100329  1
  Zn  Zn167  1  0.56205678  0.06266385  0.81029662  1
  Zn  Zn168  1  0.56243331  0.56051985  0.31061471  1
  Zn  Zn169  1  0.56102406  0.56030227  0.80747152  1
  Zn  Zn170  1  0.43869737  0.19056780  0.43543712  1
  Zn  Zn171  1  0.43615048  0.18845794  0.93612342  1
  Zn  Zn172  1  0.43686281  0.68767700  0.43696745  1
  Zn  Zn173  1  0.43976409  0.68715896  0.93767574  1
  Zn  Zn174  1  0.93718581  0.18836325  0.43888337  1
  Zn  Zn175  1  0.93681300  0.18425365  0.93923848  1
  Zn  Zn176  1  0.93977534  0.68459171  0.44314027  1
  Zn  Zn177  1  0.93808262  0.68401585  0.93826832  1
  Zn  Zn178  1  0.06445456  0.31352005  0.06508661  1
  Zn  Zn179  1  0.06402241  0.31207417  0.56268147  1
  Zn  Zn180  1  0.06117674  0.81394556  0.06526361  1
  Zn  Zn181  1  0.06072786  0.81275990  0.56587349  1
  Zn  Zn182  1  0.56423982  0.31347001  0.05940087  1
  Zn  Zn183  1  0.56254768  0.31246960  0.56179330  1
  Zn  Zn184  1  0.56446641  0.81472612  0.06022482  1
  Zn  Zn185  1  0.56086103  0.81137705  0.56182668  1
  O  O186  1  0.11827899  0.11773719  0.12460053  1
  O  O187  1  0.11098061  0.12494692  0.62807075  1
  O  O188  1  0.11053012  0.62446370  0.12812064  1
  O  O189  1  0.12159190  0.61101164  0.62857709  1
  O  O190  1  0.62153671  0.11919310  0.11751281  1
  O  O191  1  0.61913790  0.11869990  0.61794999  1
  O  O192  1  0.62036973  0.61488407  0.13018341  1
  O  O193  1  0.61844702  0.61953897  0.61836948  1
  O  O194  1  0.37580732  0.38235059  0.38268306  1
  O  O195  1  0.38122110  0.38447972  0.87436811  1
  O  O196  1  0.38145492  0.88034124  0.37913156  1
  O  O197  1  0.37952640  0.88052241  0.87921581  1
  O  O198  1  0.87406762  0.39126483  0.36520317  1
  O  O199  1  0.88595428  0.38477624  0.86986357  1
  O  O200  1  0.88176672  0.87967713  0.38322973  1
  O  O201  1  0.88448904  0.88763265  0.86764075  1
  O  O202  1  0.25640200  0.00647701  0.36944456  1
  O  O203  1  0.25507833  0.00390564  0.87078713  1
  O  O204  1  0.25545248  0.50685377  0.36885630  1
  O  O205  1  0.25684889  0.50663077  0.87284652  1
  O  O206  1  0.75672311  0.00657369  0.36855000  1
  O  O207  1  0.75699919  0.00452944  0.86922583  1
  O  O208  1  0.75920179  0.50794622  0.37410868  1
  O  O209  1  0.75952258  0.48849842  0.86573489  1
  O  O210  1  0.24925771  0.49466201  0.13147322  1
  O  O211  1  0.23854059  0.49772646  0.63330935  1
  O  O212  1  0.24612930  0.99492766  0.12815735  1
  O  O213  1  0.24843602  0.99242623  0.63316466  1
  O  O214  1  0.74424735  0.49281505  0.12527038  1
  O  O215  1  0.74777281  0.49281068  0.62955831  1
  O  O216  1  0.74617463  1.00054434  0.12976383  1
  O  O217  1  0.74220847  1.00775672  0.63253934  1
  O  O218  1  0.00971896  0.36962932  0.25063034  1
  O  O219  1  0.00655558  0.37416295  0.76150719  1
  O  O220  1  0.00208555  0.86865688  0.26049348  1
  O  O221  1  0.00627350  0.86847010  0.75771239  1
  O  O222  1  0.51247081  0.37347548  0.24918970  1
  O  O223  1  0.50116072  0.37418180  0.76191585  1
  O  O224  1  0.50637532  0.87004349  0.25414775  1
  O  O225  1  0.50697762  0.87128248  0.75308856  1
  O  O226  1  0.49481751  0.12414751  0.24092483  1
  O  O227  1  0.49301004  0.12326972  0.74223989  1
  O  O228  1  0.49455756  0.63105919  0.24393021  1
  O  O229  1  0.49324390  0.62911468  0.74285421  1
  O  O230  1  0.99504259  0.12962669  0.24513307  1
  O  O231  1  0.99328530  0.12580037  0.74260242  1
  O  O232  1  0.99331044  0.62919876  0.24552624  1
  O  O233  1  1.00017845  0.63864429  0.75384543  1
  O  O234  1  0.36342794  0.25087143  0.00505995  1
  O  O235  1  0.37380831  0.26267202  0.49986239  1
  O  O236  1  0.36780846  0.75537832  0.00501591  1
  O  O237  1  0.36804323  0.75697735  0.50010822  1
  O  O238  1  0.86699281  0.24177627  0.00912616  1
  O  O239  1  0.86294598  0.24363683  0.51216812  1
  O  O240  1  0.88011884  0.74441654  0.01867943  1
  O  O241  1  0.87532265  0.75766947  0.50897287  1
  O  O242  1  0.12826060  0.24579659  0.49626584  1
  O  O243  1  0.13696952  0.24779708  1.00046130  1
  O  O244  1  0.13051702  0.74836626  0.49604876  1
  O  O245  1  0.13837995  0.74813533  1.00614954  1
  O  O246  1  0.63740673  0.24415988  0.49945849  1
  O  O247  1  0.63312435  0.24328073  0.99323455  1
  O  O248  1  0.62530687  0.74421221  0.49270348  1
  O  O249  1  0.61837088  0.75302950  0.97836640  1
  O  O250  1  0.49461347  0.24289949  0.12224279  1
  O  O251  1  0.49769622  0.24074003  0.62566723  1
  O  O252  1  0.49636519  0.74611034  0.12928972  1
  O  O253  1  0.49728956  0.74202893  0.63001552  1
  O  O254  1  0.99576730  0.24470935  0.13018071  1
  O  O255  1  0.98981391  0.24327515  0.62582682  1
  O  O256  1  0.99283221  0.74309560  0.13188586  1
  O  O257  1  0.99083980  0.74966775  0.63651052  1
  O  O258  1  -0.00098606  0.25329135  0.36772970  1
  O  O259  1  -0.00071891  0.25887567  0.87642844  1
  O  O260  1  0.00518198  0.75373878  0.37347541  1
  O  O261  1  -0.01092746  0.76190389  0.86760165  1
  O  O262  1  0.50646021  0.25384391  0.36963393  1
  O  O263  1  0.50533409  0.25837873  0.87458121  1
  O  O264  1  0.50571285  0.75504557  0.36806053  1
  O  O265  1  0.50496707  0.75636747  0.86595171  1
  O  O266  1  0.25078499  0.12304278  0.48847683  1
  O  O267  1  0.24903070  0.13339004  0.99441393  1
  O  O268  1  0.24835712  0.63075548  0.49341640  1
  O  O269  1  0.24862303  0.63250143  0.99433821  1
  O  O270  1  0.74569944  0.13310458  0.49488534  1
  O  O271  1  0.74457848  0.12997043  0.99270947  1
  O  O272  1  0.74194178  0.62805836  0.49445009  1
  O  O273  1  0.74261415  0.63926942  1.00555132  1
  O  O274  1  0.24957548  0.36656184  0.00579046  1
  O  O275  1  0.26131446  0.37641345  0.50134399  1
  O  O276  1  0.25456367  0.86761417  0.00318063  1
  O  O277  1  0.25504573  0.87065831  0.50550712  1
  O  O278  1  0.74470108  0.36763044  0.01213087  1
  O  O279  1  0.74550032  0.36624798  0.51059253  1
  O  O280  1  0.74883875  0.86294622  0.00005745  1
  O  O281  1  0.76443487  0.87370951  0.49357329  1
  O  O282  1  0.13062915  0.49167892  0.24904303  1
  O  O283  1  0.12586453  0.49233032  0.74576739  1
  O  O284  1  0.13232332  0.99742735  0.24290919  1
  O  O285  1  0.13030573  0.98828720  0.74858287  1
  O  O286  1  0.62782547  0.49231486  0.23932846  1
  O  O287  1  0.63303014  0.49720349  0.74293975  1
  O  O288  1  0.63140698  0.99585715  0.24294814  1
  O  O289  1  0.62893628  0.99276765  0.74436222  1
  O  O290  1  0.37070260  0.00485114  0.25411285  1
  O  O291  1  0.36891644  0.00359650  0.75598290  1
  O  O292  1  0.37008912  0.50552716  0.25432141  1
  O  O293  1  0.36838204  0.50465054  0.75925170  1
  O  O294  1  0.87158616  0.00609102  0.25578195  1
  O  O295  1  0.87012072  0.00412874  0.75794249  1
  O  O296  1  0.87666760  0.51248517  0.25887247  1
  O  O297  1  0.86711029  0.50243341  0.75815594  1
  O  O298  1  0.12496866  0.37423525  0.36291523  1
  O  O299  1  0.11301127  0.37641456  0.86823684  1
  O  O300  1  0.11878527  0.86868997  0.37611949  1
  O  O301  1  0.11306320  0.87959502  0.86494055  1
  O  O302  1  0.62761685  0.37598883  0.36134529  1
  O  O303  1  0.61596329  0.36946553  0.87386626  1
  O  O304  1  0.61994294  0.86991702  0.36807705  1
  O  O305  1  0.61712953  0.86766361  0.86180209  1
  O  O306  1  0.38120124  0.12906303  0.12891188  1
  O  O307  1  0.38235298  0.12243409  0.63091349  1
  O  O308  1  0.38173091  0.63035868  0.12980756  1
  O  O309  1  0.37972074  0.62364739  0.63173804  1
  O  O310  1  0.88185477  0.13067605  0.13175673  1
  O  O311  1  0.88190011  0.13301606  0.63033676  1
  O  O312  1  0.88471283  0.63264729  0.13548301  1
  O  O313  1  0.87865932  0.63693548  0.63024294  1
  O  O314  1  0.25579343  0.25370835  0.11792154  1
  O  O315  1  0.25491507  0.25458912  0.62222605  1
  O  O316  1  0.25661906  0.75407408  0.11757041  1
  O  O317  1  0.25093282  0.75582841  0.61927904  1
  O  O318  1  0.75606360  0.25720202  0.11889950  1
  O  O319  1  0.75553536  0.25622340  0.61910062  1
  O  O320  1  0.76900082  0.75198688  0.13299622  1
  O  O321  1  0.76263668  0.74744083  0.62622730  1
  O  O322  1  0.25082090  0.23634422  0.37493185  1
  O  O323  1  0.24875829  0.24475724  0.88469533  1
  O  O324  1  0.24531091  0.74576886  0.38044470  1
  O  O325  1  0.25767365  0.73915390  0.88624075  1
  O  O326  1  0.75224344  0.24585683  0.38424936  1
  O  O327  1  0.74692128  0.24543433  0.87841420  1
  O  O328  1  0.74316881  0.74374467  0.37602388  1
  O  O329  1  0.73275941  0.75267851  0.86667290  1
  O  O330  1  0.00202189  0.11318024  0.00607171  1
  O  O331  1  -0.00264395  0.11947986  0.51104579  1
  O  O332  1  0.00163999  0.61748755  0.00978699  1
  O  O333  1  0.00523236  0.61145568  0.50400084  1
  O  O334  1  0.50553045  0.11922928  0.00300143  1
  O  O335  1  0.50553474  0.11865314  0.50315375  1
  O  O336  1  0.50702026  0.62348358  0.00742345  1
  O  O337  1  0.50452187  0.61918254  0.50402016  1
  O  O338  1  0.49186925  0.38219896  0.49871310  1
  O  O339  1  0.49715058  0.37804386  0.98676419  1
  O  O340  1  0.49556080  0.88033785  0.49284281  1
  O  O341  1  0.49373706  0.88105663  0.99339016  1
  O  O342  1  1.00302514  0.38896544  0.49942654  1
  O  O343  1  1.00473366  0.38414730  0.99350095  1
  O  O344  1  0.99108100  0.88100332  0.49652438  1
  O  O345  1  1.00569264  0.88470206  0.99060107  1
  O  O346  1  0.49319882  0.49896573  0.38092798  1
  O  O347  1  0.49133679  0.49344374  0.87416699  1
  O  O348  1  0.49612667  0.99481726  0.37883703  1
  O  O349  1  0.49449979  0.99531320  0.87946346  1
  O  O350  1  0.99231505  0.49860262  0.38405043  1
  O  O351  1  0.99158231  0.49323775  0.88389432  1
  O  O352  1  0.99421157  0.99594017  0.38102448  1
  O  O353  1  0.99244759  0.99320792  0.88146485  1
  O  O354  1  0.00307103  0.00307476  0.11830115  1
  O  O355  1  -0.00293578  0.01057817  0.62162071  1
  O  O356  1  -0.00340777  0.50817528  0.11943438  1
  O  O357  1  0.00482653  0.49993184  0.62102631  1
  O  O358  1  0.50632402  0.00549332  0.11741790  1
  O  O359  1  0.50763029  0.00539574  0.61704438  1
  O  O360  1  0.50981129  0.50532359  0.12323387  1
  O  O361  1  0.50616814  0.50534898  0.61983407  1
  O  O362  1  0.24383904  0.37982076  0.24594488  1
  O  O363  1  0.23809422  0.38213300  0.75406254  1
  O  O364  1  0.25093335  0.88143658  0.24259907  1
  O  O365  1  0.24242561  0.87694644  0.74833239  1
  O  O366  1  0.74122912  0.37676989  0.23756901  1
  O  O367  1  0.74782375  0.38430006  0.73805227  1
  O  O368  1  0.74516568  0.88340786  0.24842026  1
  O  O369  1  0.73654680  0.88305239  0.75442874  1
  O  O370  1  0.25696127  0.11885621  0.25626315  1
  O  O371  1  0.25466390  0.11808149  0.75535982  1
  O  O372  1  0.25653590  0.62111181  0.25426111  1
  O  O373  1  0.25396968  0.62085348  0.75904852  1
  O  O374  1  0.75645582  0.12030583  0.25437918  1
  O  O375  1  0.75458537  0.11857381  0.75569220  1
  O  O376  1  0.76162236  0.62358818  0.25661285  1
  O  O377  1  0.74901258  0.60876239  0.74518034  1
  O  O378  1  0.36924459  0.11862189  0.36902503  1
  O  O379  1  0.36939513  0.11818120  0.86938471  1
  O  O380  1  0.36975780  0.62043812  0.36822436  1
  O  O381  1  0.36820285  0.61633824  0.87049239  1
  O  O382  1  0.87013413  0.11925619  0.37015800  1
  O  O383  1  0.87016826  0.11484938  0.86945026  1
  O  O384  1  0.87193243  0.61967939  0.36902819  1
  O  O385  1  0.87911315  0.61063758  0.87195382  1
  O  O386  1  0.13193249  0.37626216  0.13777092  1
  O  O387  1  0.12205367  0.38485815  0.63751429  1
  O  O388  1  0.13210580  0.88159124  0.12776067  1
  O  O389  1  0.12996500  0.87681780  0.63668119  1
  O  O390  1  0.63264145  0.38242341  0.12982120  1
  O  O391  1  0.63482788  0.38131819  0.62531417  1
  O  O392  1  0.62646306  0.88222582  0.13082740  1
  O  O393  1  0.61813408  0.88034329  0.63571600  1
  O  O394  1  0.11969453  0.25873919  0.25210032  1
  O  O395  1  0.12160507  0.26262249  0.75294875  1
  O  O396  1  0.11935434  0.75258886  0.25847048  1
  O  O397  1  0.11464097  0.76067729  0.74626752  1
  O  O398  1  0.62568714  0.26035574  0.24876642  1
  O  O399  1  0.62248951  0.25172829  0.75792747  1
  O  O400  1  0.62032399  0.75479041  0.25380596  1
  O  O401  1  0.61869115  0.75698087  0.75444362  1
  O  O402  1  0.37681924  0.24287922  0.24171155  1
  O  O403  1  0.37769936  0.24048852  0.74891956  1
  O  O404  1  0.38098357  0.74528265  0.24357417  1
  O  O405  1  0.38045656  0.74301775  0.74814649  1
  O  O406  1  0.88048912  0.24423877  0.24308692  1
  O  O407  1  0.87359204  0.24314224  0.73973801  1
  O  O408  1  0.88237460  0.74073352  0.24664027  1
  O  O409  1  0.88227887  0.75205773  0.74357801  1
  O  O410  1  0.37950021  0.49360937  0.49457776  1
  O  O411  1  0.37597831  0.49905799  0.98793135  1
  O  O412  1  0.38193454  0.99358192  0.49327453  1
  O  O413  1  0.38027713  0.99432076  0.99408103  1
  O  O414  1  0.88265097  0.50730321  0.49115571  1
  O  O415  1  0.88526421  0.50523762  0.99377006  1
  O  O416  1  0.87927802  0.99332731  0.49568623  1
  O  O417  1  0.88461779  1.00523348  0.98989934  1
  O  O418  1  0.11458004  0.00121116  0.00608148  1
  O  O419  1  0.11555444  0.00405638  0.50537026  1
  O  O420  1  0.11070941  0.50375732  0.00486001  1
  O  O421  1  0.11807189  0.49949773  0.51132889  1
  O  O422  1  0.62021948  0.00479940  0.00233445  1
  O  O423  1  0.62121987  0.00433579  0.50296643  1
  O  O424  1  0.62452007  0.50102585  0.01183430  1
  O  O425  1  0.61997932  0.50558631  0.50461718  1
  O  O426  1  0.36906547  0.36885643  0.12365335  1
  O  O427  1  0.37293973  0.37715005  0.61428615  1
  O  O428  1  0.37034759  0.87007090  0.11819142  1
  O  O429  1  0.36848796  0.87377089  0.61807246  1
  O  O430  1  0.86368320  0.36985725  0.13336462  1
  O  O431  1  0.86555429  0.36428416  0.63149762  1
  O  O432  1  0.87936531  0.85991717  0.13220320  1
  O  O433  1  0.88099178  0.86695774  0.61549582  1
  O  O434  1  0.13740235  0.12493170  0.37497675  1
  O  O435  1  0.13216447  0.12685666  0.87623927  1
  O  O436  1  0.13253730  0.63175994  0.37603043  1
  O  O437  1  0.13967735  0.61811577  0.87624956  1
  O  O438  1  0.63372891  0.12558224  0.38071638  1
  O  O439  1  0.63050911  0.12911297  0.87917233  1
  O  O440  1  0.62963174  0.62929238  0.37832957  1
  O  O441  1  0.61650981  0.64057398  0.86947141  1
