# generated using pymatgen
data_V93Zn93O256
_symmetry_space_group_name_H-M   'P 1'
_cell_length_a   17.04155532
_cell_length_b   17.04066620
_cell_length_c   17.04235911
_cell_angle_alpha   89.96195452
_cell_angle_beta   89.97689370
_cell_angle_gamma   90.02510005
_symmetry_Int_Tables_number   1
_chemical_formula_structural   V93Zn93O256
_chemical_formula_sum   'V93 Zn93 O256'
_cell_volume   4949.08984070
_cell_formula_units_Z   1
loop_
 _symmetry_equiv_pos_site_id
 _symmetry_equiv_pos_as_xyz
  1  'x, y, z'
loop_
 _atom_site_type_symbol
 _atom_site_label
 _atom_site_symmetry_multiplicity
 _atom_site_fract_x
 _atom_site_fract_y
 _atom_site_fract_z
 _atom_site_occupancy
  V  V0  1  0.74923962  -0.00185200  0.24826257  1
  V  V1  1  0.75119216  0.87406149  0.62463468  1
  V  V2  1  0.50098912  0.62601987  0.62579199  1
  V  V3  1  0.75055876  0.75097345  -0.00122383  1
  V  V4  1  0.12624691  0.00028385  0.62540891  1
  V  V5  1  0.61964618  0.87214139  0.74966385  1
  V  V6  1  0.25082762  0.12741523  0.87483431  1
  V  V7  1  0.00157589  0.49378367  0.49996048  1
  V  V8  1  0.12482364  0.12568283  0.50003334  1
  V  V9  1  0.24963527  0.00156259  0.74976840  1
  V  V10  1  0.50075266  0.74825703  0.25145766  1
  V  V11  1  0.12541109  0.87571507  0.75060195  1
  V  V12  1  0.00030424  0.87341249  0.37635709  1
  V  V13  1  -0.00191005  0.12266924  0.62832871  1
  V  V14  1  0.24971183  0.00097289  0.25112887  1
  V  V15  1  0.24925193  0.25229711  0.00001874  1
  V  V16  1  0.75141758  0.62198629  0.37514374  1
  V  V17  1  -0.00175718  0.74624659  0.75254313  1
  V  V18  1  0.87639411  0.87315739  0.49947308  1
  V  V19  1  0.50080928  0.37570358  0.87308289  1
  V  V20  1  -0.00128834  0.24729307  0.75018920  1
  V  V21  1  0.74981031  0.25006433  -0.00331185  1
  V  V22  1  0.87521486  0.24531512  0.62713837  1
  V  V23  1  0.12459418  0.87392699  0.25267959  1
  V  V24  1  0.74950166  0.12319754  0.37401567  1
  V  V25  1  0.12543797  0.25267532  0.87408879  1
  V  V26  1  0.37395599  0.49237436  0.37989427  1
  V  V27  1  0.37392031  0.62401238  0.25235327  1
  V  V28  1  0.62476018  0.25023433  0.87183040  1
  V  V29  1  0.12569370  0.61930452  0.50678083  1
  V  V30  1  0.24660709  0.49954756  0.25141261  1
  V  V31  1  0.62510867  0.49867581  0.62373166  1
  V  V32  1  0.38037907  0.63129998  0.75173064  1
  V  V33  1  0.00003772  -0.00006436  -0.00021588  1
  V  V34  1  0.12438792  0.74950649  0.37899456  1
  V  V35  1  0.87517914  0.74933406  0.12720735  1
  V  V36  1  0.11865252  0.25622751  0.37531555  1
  V  V37  1  0.37627486  0.00113899  0.87535539  1
  V  V38  1  0.62430552  0.62276083  0.00018486  1
  V  V39  1  0.49940184  0.12590126  0.62270902  1
  V  V40  1  0.49522735  0.49035709  0.50013986  1
  V  V41  1  -0.00245626  0.25636549  0.25420919  1
  V  V42  1  0.75497048  0.00441752  0.74805208  1
  V  V43  1  0.37427860  0.12548991  0.24910323  1
  V  V44  1  0.24989748  0.74911037  0.50249764  1
  V  V45  1  0.00022097  0.62366907  0.12544848  1
  V  V46  1  0.87777356  0.49213159  0.37658095  1
  V  V47  1  0.87603130  0.00483726  0.87161729  1
  V  V48  1  0.37456131  0.75007432  0.12754252  1
  V  V49  1  0.37945587  0.75173171  0.62729623  1
  V  V50  1  0.75349001  0.50155134  0.74741683  1
  V  V51  1  0.87652444  0.50328988  0.87106605  1
  V  V52  1  0.12415721  0.00028291  0.12648636  1
  V  V53  1  0.00039995  0.37587830  0.87411387  1
  V  V54  1  0.37423951  0.00136138  0.37496491  1
  V  V55  1  0.61868450  0.75062406  0.86982142  1
  V  V56  1  0.37625882  0.87685191  -0.00010190  1
  V  V57  1  0.25028561  0.74976281  0.00129274  1
  V  V58  1  -0.00105562  0.12547082  0.12502662  1
  V  V59  1  0.00012668  0.87601536  0.87536247  1
  V  V60  1  0.75533732  0.62744801  0.86847796  1
  V  V61  1  0.49908377  0.12475972  0.12301245  1
  V  V62  1  0.50006693  0.00009746  0.49920183  1
  V  V63  1  0.75168476  0.37366485  0.62330862  1
  V  V64  1  0.75106414  0.24818095  0.49915797  1
  V  V65  1  0.62439835  0.12396207  -0.00218128  1
  V  V66  1  0.00247410  0.61844887  0.62963663  1
  V  V67  1  0.74490601  0.37811968  0.12406845  1
  V  V68  1  0.24976166  0.87492568  0.12614590  1
  V  V69  1  0.12538433  0.12645819  0.00071094  1
  V  V70  1  0.87436585  0.12366986  0.24897163  1
  V  V71  1  0.24565289  0.50122702  0.74708940  1
  V  V72  1  0.37387012  0.25032529  0.12585390  1
  V  V73  1  0.37404980  0.37629099  -0.00009153  1
  V  V74  1  0.49988797  0.87307759  0.37496513  1
  V  V75  1  0.62444841  0.25146720  0.37150684  1
  V  V76  1  0.87356236  0.25009997  0.12336995  1
  V  V77  1  0.62482411  -0.00089704  0.12332494  1
  V  V78  1  0.37693453  0.50113281  0.87641521  1
  V  V79  1  0.74939977  0.74626651  0.50013774  1
  V  V80  1  0.87595482  0.74300952  0.63056112  1
  V  V81  1  0.87505334  -0.00275717  0.37477772  1
  V  V82  1  0.37511281  0.12740029  0.74838347  1
  V  V83  1  0.37445597  0.87479612  0.50109514  1
  V  V84  1  0.75148177  0.12526968  0.87103004  1
  V  V85  1  0.24739931  0.37913767  0.62485095  1
  V  V86  1  0.24943850  0.62771231  0.87748574  1
  V  V87  1  0.24735839  0.37651398  0.12658228  1
  V  V88  1  0.74913603  0.87445296  0.12419699  1
  V  V89  1  0.37589815  0.25664818  0.61968678  1
  V  V90  1  0.87468850  0.37558460  -0.00279059  1
  V  V91  1  0.25234394  0.25583316  0.49805527  1
  V  V92  1  0.62555299  0.00042591  0.62300357  1
  Zn  Zn93  1  0.49865865  0.87488423  0.87277298  1
  Zn  Zn94  1  0.62510913  0.87310272  0.25068340  1
  Zn  Zn95  1  0.87575686  0.62194536  0.25133089  1
  Zn  Zn96  1  0.12415412  0.75235167  0.87866358  1
  Zn  Zn97  1  0.50055380  0.25146763  0.74623040  1
  Zn  Zn98  1  0.62082808  0.37904386  0.24944657  1
  Zn  Zn99  1  0.11672414  0.37965657  0.25190854  1
  Zn  Zn100  1  0.49984847  0.62187660  0.12547627  1
  Zn  Zn101  1  0.12458525  0.62575516  0.00308358  1
  Zn  Zn102  1  0.50108568  0.50062538  0.00317713  1
  Zn  Zn103  1  0.62470717  0.37372479  0.74800835  1
  Zn  Zn104  1  0.49627292  0.37151295  0.37322765  1
  Zn  Zn105  1  0.49957199  0.25277908  0.24865203  1
  Zn  Zn106  1  0.74913178  0.49989858  0.24976190  1
  Zn  Zn107  1  0.62215674  0.50166039  0.12930465  1
  Zn  Zn108  1  0.00256908  0.50096338  -0.00020316  1
  Zn  Zn109  1  0.62461697  0.12349574  0.49738968  1
  Zn  Zn110  1  0.50169650  -0.00207150  -0.00305082  1
  Zn  Zn111  1  0.88239065  0.36937443  0.49543040  1
  Zn  Zn112  1  0.62297534  0.62253475  0.49815174  1
  Zn  Zn113  1  0.24889010  0.62308938  0.37891980  1
  Zn  Zn114  1  0.12160536  0.49933581  0.12360654  1
  Zn  Zn115  1  0.12419222  0.38052007  0.74841250  1
  Zn  Zn116  1  0.25053355  0.87559842  0.62681515  1
  Zn  Zn117  1  0.62525386  0.74772755  0.37463526  1
  Zn  Zn118  1  0.24867233  0.12693105  0.37428732  1
  Zn  Zn119  1  0.87532754  0.87626190  0.00040746  1
  Zn  Zn120  1  -0.00000894  0.74744588  0.25318410  1
  Zn  Zn121  1  0.00131765  -0.00170094  0.50065145  1
  Zn  Zn122  1  0.18589894  0.18918566  0.18936130  1
  Zn  Zn123  1  0.18726780  0.18978007  0.68634420  1
  Zn  Zn124  1  0.18621836  0.68661616  0.18996063  1
  Zn  Zn125  1  0.18804070  0.68937940  0.68950058  1
  Zn  Zn126  1  0.68635299  0.18727483  0.18588079  1
  Zn  Zn127  1  0.68478721  0.18680811  0.68654743  1
  Zn  Zn128  1  0.68838425  0.68584975  0.18840927  1
  Zn  Zn129  1  0.68610943  0.68678474  0.68733845  1
  Zn  Zn130  1  0.30962743  0.31320407  0.31163382  1
  Zn  Zn131  1  0.31477640  0.31403471  0.80984536  1
  Zn  Zn132  1  0.31110909  0.81176445  0.31522539  1
  Zn  Zn133  1  0.31244910  0.81481180  0.81319974  1
  Zn  Zn134  1  0.80947530  0.31254501  0.30998376  1
  Zn  Zn135  1  0.81405957  0.31406034  0.80928177  1
  Zn  Zn136  1  0.81197044  0.81151262  0.31146345  1
  Zn  Zn137  1  0.81233181  0.81700324  0.81219474  1
  Zn  Zn138  1  0.18577100  0.43649387  0.43788157  1
  Zn  Zn139  1  0.18562151  0.44169158  0.93858312  1
  Zn  Zn140  1  0.18869580  0.93723516  0.43961813  1
  Zn  Zn141  1  0.18848161  0.93809653  0.93806192  1
  Zn  Zn142  1  0.68717495  0.43560553  0.44020073  1
  Zn  Zn143  1  0.68792835  0.43823707  0.93599793  1
  Zn  Zn144  1  0.68620870  0.93398565  0.43571316  1
  Zn  Zn145  1  0.68852739  0.93681077  0.93628690  1
  Zn  Zn146  1  0.31203532  0.06230044  0.06236423  1
  Zn  Zn147  1  0.31169664  0.06650849  0.56190194  1
  Zn  Zn148  1  0.31380499  0.56180997  0.06549794  1
  Zn  Zn149  1  0.31445412  0.56246599  0.56365736  1
  Zn  Zn150  1  0.81158473  0.06236687  0.05950721  1
  Zn  Zn151  1  0.81361670  0.06213479  0.55944185  1
  Zn  Zn152  1  0.81238429  0.56328930  0.05817269  1
  Zn  Zn153  1  0.81698958  0.56089061  0.56026990  1
  Zn  Zn154  1  0.43899800  0.43810599  0.18886217  1
  Zn  Zn155  1  0.43354217  0.44050227  0.68877879  1
  Zn  Zn156  1  0.43877721  0.93779921  0.18761895  1
  Zn  Zn157  1  0.43736410  0.94084703  0.68744883  1
  Zn  Zn158  1  0.93037635  0.43980893  0.18715116  1
  Zn  Zn159  1  0.93627698  0.43329147  0.68700831  1
  Zn  Zn160  1  0.93814608  0.93428782  0.18883995  1
  Zn  Zn161  1  0.93786603  0.93381420  0.68734673  1
  Zn  Zn162  1  0.06103219  0.06474614  0.31425613  1
  Zn  Zn163  1  0.06413990  0.06399125  0.81250559  1
  Zn  Zn164  1  0.06023940  0.56529312  0.31587174  1
  Zn  Zn165  1  0.06450681  0.56471080  0.81418418  1
  Zn  Zn166  1  0.56180521  0.06347927  0.30942532  1
  Zn  Zn167  1  0.56204388  0.06170582  0.80873795  1
  Zn  Zn168  1  0.56452792  0.56005111  0.31349237  1
  Zn  Zn169  1  0.56569466  0.56084860  0.81163312  1
  Zn  Zn170  1  0.43742086  0.18708391  0.43637808  1
  Zn  Zn171  1  0.43848215  0.18967917  0.93772518  1
  Zn  Zn172  1  0.43560095  0.68277851  0.43845323  1
  Zn  Zn173  1  0.43866988  0.69020111  0.94046254  1
  Zn  Zn174  1  0.93705859  0.18404268  0.43883191  1
  Zn  Zn175  1  0.93726614  0.18740911  0.93686076  1
  Zn  Zn176  1  0.93800046  0.68327155  0.44020739  1
  Zn  Zn177  1  0.93693781  0.68783789  0.94113806  1
  Zn  Zn178  1  0.06155784  0.31507628  0.06393930  1
  Zn  Zn179  1  0.06731308  0.31174037  0.56583376  1
  Zn  Zn180  1  0.06302330  0.81130043  0.06274132  1
  Zn  Zn181  1  0.06237859  0.81120189  0.56487925  1
  Zn  Zn182  1  0.56074912  0.31108828  0.05906394  1
  Zn  Zn183  1  0.56610811  0.31144621  0.55919452  1
  Zn  Zn184  1  0.56200289  0.81113391  0.06155716  1
  Zn  Zn185  1  0.56301187  0.81310583  0.56163427  1
  O  O186  1  0.11907582  0.12028792  0.12017446  1
  O  O187  1  0.11665881  0.12153051  0.62031673  1
  O  O188  1  0.11268891  0.62455100  0.12645613  1
  O  O189  1  0.11488615  0.63159652  0.61733933  1
  O  O190  1  0.62054988  0.11997727  0.11727474  1
  O  O191  1  0.61834126  0.11781760  0.62129755  1
  O  O192  1  0.62743620  0.62619160  0.11070348  1
  O  O193  1  0.61512255  0.61897836  0.62624895  1
  O  O194  1  0.37425104  0.38847039  0.37206466  1
  O  O195  1  0.38207330  0.37992414  0.87940880  1
  O  O196  1  0.38004058  0.88066523  0.38182545  1
  O  O197  1  0.37636761  0.88182146  0.88039300  1
  O  O198  1  0.86796624  0.38667850  0.37714232  1
  O  O199  1  0.88008454  0.38300546  0.87766035  1
  O  O200  1  0.87997247  0.87760754  0.37979689  1
  O  O201  1  0.88081376  0.88686933  0.87740682  1
  O  O202  1  0.25635524  0.00152888  0.36929269  1
  O  O203  1  0.25536062  0.00821098  0.87004956  1
  O  O204  1  0.25583531  0.49992641  0.36905765  1
  O  O205  1  0.25770323  0.50936028  0.86822710  1
  O  O206  1  0.75506086  0.00230907  0.36869832  1
  O  O207  1  0.75738621  0.00379912  0.86685619  1
  O  O208  1  0.75852275  0.50865863  0.38146009  1
  O  O209  1  0.75649850  0.50706274  0.86649078  1
  O  O210  1  0.24943202  0.49572744  0.13686578  1
  O  O211  1  0.26170711  0.49070248  0.63539100  1
  O  O212  1  0.24336085  0.99462725  0.13047493  1
  O  O213  1  0.24444074  1.00092976  0.63209451  1
  O  O214  1  0.75034971  0.48889826  0.12169737  1
  O  O215  1  0.74826236  0.49671841  0.63034618  1
  O  O216  1  0.74573027  0.99500255  0.12870135  1
  O  O217  1  0.74794272  0.99499922  0.63027404  1
  O  O218  1  -0.00404245  0.35966935  0.24283504  1
  O  O219  1  0.00373851  0.36576979  0.75415813  1
  O  O220  1  0.00729711  0.87149064  0.25748408  1
  O  O221  1  0.00551538  0.86625886  0.75515423  1
  O  O222  1  0.50322337  0.36987050  0.25421464  1
  O  O223  1  0.49935321  0.37607159  0.76176956  1
  O  O224  1  0.49836143  0.86388648  0.25623440  1
  O  O225  1  0.51630487  0.88145814  0.74918042  1
  O  O226  1  0.49176879  0.12750717  0.24117999  1
  O  O227  1  0.49307308  0.12693186  0.74047401  1
  O  O228  1  0.49341487  0.63416880  0.25166220  1
  O  O229  1  0.49010098  0.61723937  0.73965984  1
  O  O230  1  0.99313993  0.13245118  0.24350904  1
  O  O231  1  1.00607896  0.13485076  0.73944398  1
  O  O232  1  0.99624101  0.62836728  0.24081304  1
  O  O233  1  1.00768520  0.63659433  0.74313542  1
  O  O234  1  0.36746702  0.25633817  0.00492134  1
  O  O235  1  0.36405356  0.24516070  0.50787826  1
  O  O236  1  0.36966381  0.75649515  0.00706368  1
  O  O237  1  0.37041813  0.75378989  0.50879861  1
  O  O238  1  0.86929491  0.25507408  0.00306010  1
  O  O239  1  0.87135214  0.25019963  0.50882159  1
  O  O240  1  0.86890269  0.75242420  0.01029888  1
  O  O241  1  0.86742752  0.75276078  0.50954983  1
  O  O242  1  0.13037009  0.24550227  0.49378057  1
  O  O243  1  0.12960535  0.24581365  0.99464127  1
  O  O244  1  0.12962650  0.74159038  0.49892016  1
  O  O245  1  0.13482649  0.74719718  0.99843934  1
  O  O246  1  0.63280370  0.24572534  0.48988211  1
  O  O247  1  0.63125093  0.24353038  0.99117794  1
  O  O248  1  0.63918761  0.74762828  0.50211251  1
  O  O249  1  0.63183400  0.74296102  0.98991036  1
  O  O250  1  0.49146071  0.24306313  0.12322307  1
  O  O251  1  0.49110888  0.24654429  0.62138470  1
  O  O252  1  0.49328120  0.74841318  0.13575906  1
  O  O253  1  0.48978690  0.73952317  0.61775756  1
  O  O254  1  0.99332770  0.24402549  0.13147406  1
  O  O255  1  0.99546370  0.24276655  0.63098153  1
  O  O256  1  0.99073281  0.74353035  0.12594152  1
  O  O257  1  0.99322120  0.74211577  0.63297403  1
  O  O258  1  0.00495113  0.24296832  0.36547903  1
  O  O259  1  0.00358550  0.25387867  0.86713049  1
  O  O260  1  0.00545991  0.75469927  0.37700698  1
  O  O261  1  -0.00211168  0.75487190  0.86721411  1
  O  O262  1  0.51060282  0.25032500  0.37520833  1
  O  O263  1  0.50483991  0.25986550  0.87249469  1
  O  O264  1  0.49811424  0.75331896  0.36783521  1
  O  O265  1  0.51541302  0.75126023  0.87608116  1
  O  O266  1  0.24238517  0.13824664  0.50034874  1
  O  O267  1  0.24442622  0.13210517  0.99523248  1
  O  O268  1  0.24038482  0.62912829  0.50456691  1
  O  O269  1  0.25420523  0.63098771  0.99096004  1
  O  O270  1  0.74903990  0.12982812  0.49183761  1
  O  O271  1  0.74456875  0.13081212  0.99161710  1
  O  O272  1  0.75085993  0.63219345  0.49499894  1
  O  O273  1  0.74351857  0.63069670  0.98775365  1
  O  O274  1  0.25443560  0.37117690  0.00499444  1
  O  O275  1  0.24426375  0.36392100  0.50878905  1
  O  O276  1  0.25520551  0.87026132  0.00683037  1
  O  O277  1  0.25728352  0.86819039  0.50469005  1
  O  O278  1  0.75516066  0.36911125  0.00313436  1
  O  O279  1  0.75304872  0.36560992  0.50792753  1
  O  O280  1  0.75149560  0.86834310  0.00575953  1
  O  O281  1  0.75569425  0.86482492  0.50478784  1
  O  O282  1  0.13486629  0.49937050  0.25395174  1
  O  O283  1  0.14182635  0.50246236  0.75462843  1
  O  O284  1  0.12908736  0.99530174  0.24569017  1
  O  O285  1  0.13061987  0.99632578  0.74541668  1
  O  O286  1  0.63233524  0.49699766  0.24735602  1
  O  O287  1  0.63698243  0.49730034  0.74372107  1
  O  O288  1  0.63170223  0.99810576  0.24193717  1
  O  O289  1  0.63540433  0.99199910  0.74362045  1
  O  O290  1  0.36910453  0.00472803  0.25494322  1
  O  O291  1  0.36889140  0.00737771  0.75434100  1
  O  O292  1  0.36574774  0.50486247  0.25843828  1
  O  O293  1  0.36717202  0.51251316  0.75654593  1
  O  O294  1  0.86971117  0.00406295  0.25429425  1
  O  O295  1  0.86491558  -0.00792891  0.75786771  1
  O  O296  1  0.86945377  0.50206674  0.26205519  1
  O  O297  1  0.86507633  0.49535086  0.75950004  1
  O  O298  1  0.12483743  0.36039785  0.37377499  1
  O  O299  1  0.11870887  0.36986115  0.87350023  1
  O  O300  1  0.11975488  0.87011939  0.37252616  1
  O  O301  1  0.11807564  0.87590698  0.86887302  1
  O  O302  1  0.62721765  0.36154218  0.37428037  1
  O  O303  1  0.61674411  0.37003441  0.87448666  1
  O  O304  1  0.61630150  0.86825348  0.37205630  1
  O  O305  1  0.62711970  0.86723726  0.86630917  1
  O  O306  1  0.37855669  0.13039675  0.12858395  1
  O  O307  1  0.37920509  0.13542580  0.62861090  1
  O  O308  1  0.37520457  0.63303029  0.13386780  1
  O  O309  1  0.38200219  0.63226073  0.63315134  1
  O  O310  1  0.87862360  0.13025561  0.12846802  1
  O  O311  1  0.88553391  0.13396864  0.62012074  1
  O  O312  1  0.88007517  0.63354161  0.12448120  1
  O  O313  1  0.88504291  0.63639900  0.62096754  1
  O  O314  1  0.25329915  0.25579899  0.11936792  1
  O  O315  1  0.25679384  0.25694350  0.61815886  1
  O  O316  1  0.25496044  0.75589623  0.12227674  1
  O  O317  1  0.26293016  0.75069255  0.62171914  1
  O  O318  1  0.75438062  0.25577615  0.11611374  1
  O  O319  1  0.75847296  0.25075165  0.62186164  1
  O  O320  1  0.75731527  0.75356984  0.11983922  1
  O  O321  1  0.75814325  0.75172084  0.62032680  1
  O  O322  1  0.24122478  0.24966427  0.38307054  1
  O  O323  1  0.24591602  0.24690709  0.87982198  1
  O  O324  1  0.24344202  0.74748283  0.38492423  1
  O  O325  1  0.25161383  0.74185233  0.88131373  1
  O  O326  1  0.74479147  0.24273145  0.37865191  1
  O  O327  1  0.74695209  0.24553869  0.87650032  1
  O  O328  1  0.75398210  0.74132309  0.38552263  1
  O  O329  1  0.74626226  0.74354732  0.87682906  1
  O  O330  1  0.00595728  0.12068889  0.00519492  1
  O  O331  1  0.00615853  0.12283655  0.51190418  1
  O  O332  1  0.00077527  0.62421855  0.01133315  1
  O  O333  1  0.00715988  0.61710794  0.51073437  1
  O  O334  1  0.50658089  0.12349341  0.00496480  1
  O  O335  1  0.50060201  0.11689005  0.50525741  1
  O  O336  1  0.51230828  0.62549688  -0.00024998  1
  O  O337  1  0.50013712  0.61624648  0.51218478  1
  O  O338  1  0.50192643  0.38729459  0.49800881  1
  O  O339  1  0.49310829  0.37549283  0.98819297  1
  O  O340  1  0.49385873  0.88015340  0.49524940  1
  O  O341  1  0.49138193  0.87634943  0.99703073  1
  O  O342  1  1.00328888  0.38982998  0.51217795  1
  O  O343  1  0.99202073  0.37618649  0.99209442  1
  O  O344  1  0.99382964  0.87506358  0.49532939  1
  O  O345  1  1.00028033  0.88290551  0.99379219  1
  O  O346  1  0.49174155  0.49995797  0.38443782  1
  O  O347  1  0.49573328  0.49222131  0.87612412  1
  O  O348  1  0.49404641  0.99430976  0.37901998  1
  O  O349  1  0.49199521  0.99840831  0.87534732  1
  O  O350  1  0.98971442  0.50680250  0.38767903  1
  O  O351  1  0.99049404  0.49669395  0.87105538  1
  O  O352  1  0.99288301  0.99279557  0.37647204  1
  O  O353  1  0.99360437  0.99780616  0.87815144  1
  O  O354  1  0.00440545  0.00504829  0.12059029  1
  O  O355  1  0.00495626  0.00844575  0.62709166  1
  O  O356  1  -0.00363334  0.51098598  0.12449431  1
  O  O357  1  -0.00933620  0.51228765  0.62083302  1
  O  O358  1  0.50667801  0.00636999  0.12262177  1
  O  O359  1  0.50508272  0.00564041  0.61840913  1
  O  O360  1  0.50360887  0.50438232  0.12044068  1
  O  O361  1  0.50164744  0.50588064  0.61907864  1
  O  O362  1  0.24725193  0.38505167  0.24472062  1
  O  O363  1  0.25127188  0.38565921  0.74467363  1
  O  O364  1  0.24482928  0.88088465  0.24559642  1
  O  O365  1  0.24421422  0.88307280  0.74887736  1
  O  O366  1  0.74790407  0.37349177  0.23383523  1
  O  O367  1  0.74979205  0.38544041  0.74280341  1
  O  O368  1  0.74813171  0.88022681  0.24306521  1
  O  O369  1  0.74272561  0.88462016  0.74390290  1
  O  O370  1  0.25536341  0.11810573  0.25016417  1
  O  O371  1  0.25453566  0.12206132  0.75521091  1
  O  O372  1  0.25446712  0.61510445  0.25339065  1
  O  O373  1  0.25975348  0.62148046  0.75705874  1
  O  O374  1  0.75620867  0.11822966  0.25319181  1
  O  O375  1  0.74491677  0.11102016  0.75326861  1
  O  O376  1  0.75316474  0.62549508  0.26346362  1
  O  O377  1  0.74585802  0.61543843  0.75838175  1
  O  O378  1  0.37222757  0.11883322  0.36795041  1
  O  O379  1  0.36925520  0.12295852  0.86943922  1
  O  O380  1  0.37100500  0.61369025  0.37017899  1
  O  O381  1  0.37047806  0.62403900  0.86845320  1
  O  O382  1  0.86950735  0.11746236  0.36893146  1
  O  O383  1  0.86968457  0.11262927  0.87763348  1
  O  O384  1  0.86685937  0.61520680  0.37758758  1
  O  O385  1  0.86406296  0.61766090  0.87946538  1
  O  O386  1  0.13125071  0.37812250  0.12972638  1
  O  O387  1  0.14231019  0.36978008  0.63096296  1
  O  O388  1  0.12969604  0.88063337  0.13175160  1
  O  O389  1  0.12562740  0.88179436  0.63236658  1
  O  O390  1  0.63593891  0.37487138  0.11905210  1
  O  O391  1  0.63277156  0.38078785  0.62605768  1
  O  O392  1  0.63157292  0.88013982  0.12551400  1
  O  O393  1  0.63165132  0.87900029  0.63070262  1
  O  O394  1  0.11451918  0.24969068  0.25811319  1
  O  O395  1  0.11531900  0.25167349  0.75586541  1
  O  O396  1  0.12524579  0.75699881  0.25991661  1
  O  O397  1  0.11553834  0.75668939  0.75280671  1
  O  O398  1  0.62494240  0.24984982  0.26029141  1
  O  O399  1  0.62159229  0.25378175  0.75572215  1
  O  O400  1  0.61236933  0.74984658  0.25084653  1
  O  O401  1  0.63412324  0.76081493  0.75779845  1
  O  O402  1  0.37246513  0.24316800  0.24311227  1
  O  O403  1  0.37579604  0.24453517  0.73838921  1
  O  O404  1  0.38083208  0.74486796  0.24788534  1
  O  O405  1  0.37144256  0.74074449  0.74188757  1
  O  O406  1  0.87956628  0.24303246  0.24454024  1
  O  O407  1  0.88765304  0.25316670  0.74066764  1
  O  O408  1  0.87559941  0.74750327  0.23765174  1
  O  O409  1  0.88525755  0.75721465  0.74074963  1
  O  O410  1  0.38303965  0.50577233  0.49168613  1
  O  O411  1  0.37526669  0.49399263  0.99334717  1
  O  O412  1  0.37949161  0.99550929  0.49592132  1
  O  O413  1  0.37429157  0.99439067  0.99323154  1
  O  O414  1  0.88470387  0.49543004  0.49435834  1
  O  O415  1  0.87468105  0.49470229  0.98492218  1
  O  O416  1  0.87650156  0.99111435  0.49323341  1
  O  O417  1  0.88142312  0.99917686  0.99026827  1
  O  O418  1  0.12026884  0.00677597  0.00644960  1
  O  O419  1  0.12421524  0.00671596  0.50721081  1
  O  O420  1  0.12090354  0.50729634  0.00409542  1
  O  O421  1  0.11761020  0.51114738  0.49599261  1
  O  O422  1  0.62560686  0.00645461  0.00458174  1
  O  O423  1  0.61897884  -0.00138548  0.50576085  1
  O  O424  1  0.62577462  0.51350675  -0.00353160  1
  O  O425  1  0.61473328  0.50188522  0.50662969  1
  O  O426  1  0.36749649  0.36989001  0.11940867  1
  O  O427  1  0.36585717  0.36402414  0.63033185  1
  O  O428  1  0.36829773  0.87036005  0.12120516  1
  O  O429  1  0.37731605  0.86624456  0.62106140  1
  O  O430  1  0.86565091  0.36925145  0.11669414  1
  O  O431  1  0.87072656  0.36076753  0.62249059  1
  O  O432  1  0.86964025  0.86586346  0.12332274  1
  O  O433  1  0.87088040  0.86427639  0.61989217  1
  O  O434  1  0.12573778  0.13551617  0.38153641  1
  O  O435  1  0.13098979  0.13185870  0.88119706  1
  O  O436  1  0.12517053  0.63157558  0.38950201  1
  O  O437  1  0.14004774  0.62908655  0.87618068  1
  O  O438  1  0.63161491  0.13196405  0.37459831  1
  O  O439  1  0.63125368  0.12968989  0.87750966  1
  O  O440  1  0.63735912  0.62711601  0.37913536  1
  O  O441  1  0.63462448  0.63237508  0.87756970  1
