# generated using pymatgen
data_V93Zn93O256
_symmetry_space_group_name_H-M   'P 1'
_cell_length_a   17.04701201
_cell_length_b   17.04813339
_cell_length_c   17.05119343
_cell_angle_alpha   90.03053682
_cell_angle_beta   89.96048611
_cell_angle_gamma   90.02129785
_symmetry_Int_Tables_number   1
_chemical_formula_structural   V93Zn93O256
_chemical_formula_sum   'V93 Zn93 O256'
_cell_volume   4955.41108448
_cell_formula_units_Z   1
loop_
 _symmetry_equiv_pos_site_id
 _symmetry_equiv_pos_as_xyz
  1  'x, y, z'
loop_
 _atom_site_type_symbol
 _atom_site_label
 _atom_site_symmetry_multiplicity
 _atom_site_fract_x
 _atom_site_fract_y
 _atom_site_fract_z
 _atom_site_occupancy
  V  V0  1  0.25012455  0.37685150  0.12380071  1
  V  V1  1  0.61869022  -0.00028848  0.12348260  1
  V  V2  1  0.50279866  0.62529193  0.62401010  1
  V  V3  1  0.75082649  0.37355177  0.12470257  1
  V  V4  1  0.62382192  0.12366681  0.50056112  1
  V  V5  1  0.38044748  0.88275308  0.00091119  1
  V  V6  1  0.25170804  0.62635183  0.87443230  1
  V  V7  1  0.49937900  0.25168260  0.74904221  1
  V  V8  1  0.62381253  -0.00459188  0.63333871  1
  V  V9  1  0.00072186  0.74928895  0.25031855  1
  V  V10  1  0.75054772  0.50005833  0.75009934  1
  V  V11  1  0.37631448  0.75191480  0.62378686  1
  V  V12  1  0.50272799  0.87644587  0.36825786  1
  V  V13  1  0.37413284  0.24963514  0.62370324  1
  V  V14  1  0.50113947  0.37553979  0.87363865  1
  V  V15  1  0.12789443  0.12524160  -0.00177467  1
  V  V16  1  0.37626652  0.75223887  0.12517208  1
  V  V17  1  0.50267168  0.50064020  0.49924718  1
  V  V18  1  0.50032221  0.62660582  0.12415747  1
  V  V19  1  0.00171945  0.62452349  0.12427426  1
  V  V20  1  0.24997904  0.87943014  0.12973852  1
  V  V21  1  0.49815483  0.24604857  0.24913129  1
  V  V22  1  0.12580587  0.62534238  -0.00026916  1
  V  V23  1  0.37232903  0.12638536  0.75298171  1
  V  V24  1  0.12920049  0.24514223  0.87330627  1
  V  V25  1  0.37518337  0.00527031  0.87739074  1
  V  V26  1  -0.00084527  0.12496752  0.12542066  1
  V  V27  1  0.62368573  0.24884226  0.37420907  1
  V  V28  1  0.74980464  0.74911315  0.00009201  1
  V  V29  1  0.00067787  0.62273239  0.62437372  1
  V  V30  1  0.37386502  0.24900807  0.12554729  1
  V  V31  1  0.87444740  0.12369021  0.25008109  1
  V  V32  1  0.24945508  0.00572556  0.75419884  1
  V  V33  1  0.12581901  0.62296666  0.49981089  1
  V  V34  1  -0.00061221  0.87441929  0.37546123  1
  V  V35  1  0.87276526  0.62196717  0.25242949  1
  V  V36  1  0.24987098  0.24769496  -0.00343179  1
  V  V37  1  0.12575830  0.87698591  0.24993398  1
  V  V38  1  0.74421190  0.87489029  0.12892518  1
  V  V39  1  -0.00010887  -0.00037631  0.50133515  1
  V  V40  1  -0.00062238  0.25211749  0.25101813  1
  V  V41  1  0.12685056  0.50083331  0.12387126  1
  V  V42  1  0.24974339  0.24243171  0.49522795  1
  V  V43  1  0.74948071  0.24822589  0.50045840  1
  V  V44  1  -0.00110733  0.12386362  0.62515578  1
  V  V45  1  0.12818609  0.24420047  0.37410631  1
  V  V46  1  0.24958108  0.37615890  0.62421809  1
  V  V47  1  0.87360869  -0.00184286  0.37538264  1
  V  V48  1  0.12648527  0.74995501  0.37505710  1
  V  V49  1  0.75009473  0.37292994  0.62566574  1
  V  V50  1  0.12664098  0.75110974  0.87444403  1
  V  V51  1  0.62399420  0.37358763  0.24923810  1
  V  V52  1  -0.00092850  0.24820120  0.74933597  1
  V  V53  1  0.74506942  0.87409763  0.63239578  1
  V  V54  1  0.37671929  0.62748599  0.75083929  1
  V  V55  1  0.62870679  0.75282613  0.36934488  1
  V  V56  1  0.62498769  0.37433398  0.74989472  1
  V  V57  1  0.00107955  0.37421516  0.87491643  1
  V  V58  1  0.50409462  0.87782522  0.87338640  1
  V  V59  1  -0.00026578  0.74960609  0.74988104  1
  V  V60  1  0.25100897  0.75239525  -0.00074130  1
  V  V61  1  0.25207648  0.74993824  0.50062706  1
  V  V62  1  0.12678993  0.87561079  0.75090257  1
  V  V63  1  0.35809850  0.12345682  0.25427155  1
  V  V64  1  0.87181950  0.87042611  0.50256732  1
  V  V65  1  0.61749246  0.12275804  0.00141427  1
  V  V66  1  -0.00011286  -0.00029017  -0.00028038  1
  V  V67  1  0.87542798  0.50005147  0.87604623  1
  V  V68  1  0.37593330  0.37479218  -0.00050296  1
  V  V69  1  0.62687973  0.62723751  -0.00163360  1
  V  V70  1  0.87767164  0.37526414  0.49768917  1
  V  V71  1  0.12436529  0.00019643  0.62649971  1
  V  V72  1  0.50742860  0.75617021  0.74995694  1
  V  V73  1  0.49852056  0.00054691  0.49839401  1
  V  V74  1  0.74931116  0.24752494  -0.00131836  1
  V  V75  1  0.37623087  0.50146737  0.87482195  1
  V  V76  1  0.37712528  0.62708800  0.24840563  1
  V  V77  1  0.87503213  0.24662327  0.62605170  1
  V  V78  1  0.12740259  0.00080811  0.12969417  1
  V  V79  1  0.37512801  0.37498429  0.49845978  1
  V  V80  1  0.87550846  0.74938571  0.12546620  1
  V  V81  1  0.74824369  0.12242417  0.37551955  1
  V  V82  1  0.37477574  0.87607053  0.49900706  1
  V  V83  1  0.25084814  0.50030795  0.74782817  1
  V  V84  1  0.49937008  0.12475826  0.62500186  1
  V  V85  1  0.37632617  0.50090804  0.37421285  1
  V  V86  1  0.25103753  0.50023571  0.24852387  1
  V  V87  1  0.74237890  -0.00380594  0.25099602  1
  V  V88  1  0.25139552  0.62529807  0.37426139  1
  V  V89  1  0.87646596  0.87715001  -0.00042602  1
  V  V90  1  0.35949319  0.00425733  0.37293817  1
  V  V91  1  0.50131961  0.50106192  -0.00084522  1
  V  V92  1  0.62506506  0.49973339  0.12512412  1
  Zn  Zn93  1  0.00095736  0.87667242  0.87488046  1
  Zn  Zn94  1  0.62985987  0.62515637  0.49829562  1
  Zn  Zn95  1  0.87364897  0.00292606  0.87297858  1
  Zn  Zn96  1  0.00051363  0.49901991  -0.00041590  1
  Zn  Zn97  1  0.62909634  0.75529440  0.87217542  1
  Zn  Zn98  1  0.74980634  -0.00150100  0.75540547  1
  Zn  Zn99  1  0.25123017  0.87575520  0.62605071  1
  Zn  Zn100  1  0.00201997  0.37709128  0.37513341  1
  Zn  Zn101  1  0.12629837  0.37583101  0.74807108  1
  Zn  Zn102  1  0.74959223  0.49877746  0.25211628  1
  Zn  Zn103  1  0.74932230  0.61927801  0.37912663  1
  Zn  Zn104  1  0.00202249  0.49818861  0.49757673  1
  Zn  Zn105  1  0.50495556  0.75407925  0.24647157  1
  Zn  Zn106  1  0.75058197  0.62856965  0.87319543  1
  Zn  Zn107  1  0.62449849  0.24671296  0.87430392  1
  Zn  Zn108  1  0.87566898  0.24958600  0.12454678  1
  Zn  Zn109  1  0.50098767  0.37530194  0.37456684  1
  Zn  Zn110  1  0.87455527  0.62552652  0.74916230  1
  Zn  Zn111  1  0.87580384  0.37274449  0.00071661  1
  Zn  Zn112  1  0.49416596  0.11729903  0.12264249  1
  Zn  Zn113  1  0.62745402  0.49958595  0.62296966  1
  Zn  Zn114  1  0.12536033  0.49784824  0.62377590  1
  Zn  Zn115  1  0.12485624  0.37613845  0.25071329  1
  Zn  Zn116  1  0.74665188  0.74579271  0.50348802  1
  Zn  Zn117  1  0.87066783  0.74799158  0.62709066  1
  Zn  Zn118  1  0.87511174  0.49857649  0.37525230  1
  Zn  Zn119  1  0.74923691  0.12053111  0.87380489  1
  Zn  Zn120  1  0.12797123  0.12108430  0.49642751  1
  Zn  Zn121  1  0.87083370  0.12090727  0.75307348  1
  Zn  Zn122  1  0.18418188  0.19095740  0.18378650  1
  Zn  Zn123  1  0.18589312  0.18713132  0.68561376  1
  Zn  Zn124  1  0.18929783  0.68911338  0.18723964  1
  Zn  Zn125  1  0.18754716  0.68708749  0.68632711  1
  Zn  Zn126  1  0.68603532  0.18519176  0.18590277  1
  Zn  Zn127  1  0.68726112  0.18478483  0.68937563  1
  Zn  Zn128  1  0.68729195  0.68754255  0.18829267  1
  Zn  Zn129  1  0.68813858  0.68697315  0.68638685  1
  Zn  Zn130  1  0.31193467  0.31365091  0.31308827  1
  Zn  Zn131  1  0.31247869  0.31439403  0.81155230  1
  Zn  Zn132  1  0.31519093  0.81446728  0.31263617  1
  Zn  Zn133  1  0.31559408  0.81634357  0.81160193  1
  Zn  Zn134  1  0.81139633  0.31063889  0.31273032  1
  Zn  Zn135  1  0.81319293  0.31023939  0.81355189  1
  Zn  Zn136  1  0.81273399  0.81139746  0.31186229  1
  Zn  Zn137  1  0.81318047  0.81375650  0.81376665  1
  Zn  Zn138  1  0.18602309  0.43408914  0.43588534  1
  Zn  Zn139  1  0.18810062  0.43682888  0.93606752  1
  Zn  Zn140  1  0.18523926  0.93441004  0.44115911  1
  Zn  Zn141  1  0.18923620  0.93915713  0.93853156  1
  Zn  Zn142  1  0.69031460  0.43682721  0.43474943  1
  Zn  Zn143  1  0.68734523  0.43613438  0.93720228  1
  Zn  Zn144  1  0.68514285  0.93475351  0.44233235  1
  Zn  Zn145  1  0.68770286  0.94006110  0.94082866  1
  Zn  Zn146  1  0.31052815  0.06543391  0.06435355  1
  Zn  Zn147  1  0.31276979  0.06062712  0.56521254  1
  Zn  Zn148  1  0.31402297  0.56407745  0.06131232  1
  Zn  Zn149  1  0.31515382  0.56340773  0.56181185  1
  Zn  Zn150  1  0.81012087  0.06322272  0.06258747  1
  Zn  Zn151  1  0.81112139  0.05911907  0.56565849  1
  Zn  Zn152  1  0.81268426  0.56100781  0.06268479  1
  Zn  Zn153  1  0.81426744  0.56240881  0.56264029  1
  Zn  Zn154  1  0.43853358  0.43663908  0.18709880  1
  Zn  Zn155  1  0.43594123  0.43798200  0.68608530  1
  Zn  Zn156  1  0.43278939  0.94076508  0.19315214  1
  Zn  Zn157  1  0.43709906  0.93808086  0.68868931  1
  Zn  Zn158  1  0.93797200  0.43840949  0.18529116  1
  Zn  Zn159  1  0.93702203  0.43532870  0.68694027  1
  Zn  Zn160  1  0.93649484  0.93781258  0.18746627  1
  Zn  Zn161  1  0.93548464  0.93660398  0.68873961  1
  Zn  Zn162  1  0.06259528  0.06344358  0.31298009  1
  Zn  Zn163  1  0.05822979  0.06284719  0.81317559  1
  Zn  Zn164  1  0.06080918  0.55986366  0.31375330  1
  Zn  Zn165  1  0.06499466  0.56179464  0.81062902  1
  Zn  Zn166  1  0.55755406  0.06265423  0.31172549  1
  Zn  Zn167  1  0.55966464  0.06435243  0.81606692  1
  Zn  Zn168  1  0.56442318  0.56540822  0.31136467  1
  Zn  Zn169  1  0.56572668  0.56511029  0.81275691  1
  Zn  Zn170  1  0.43570095  0.18534705  0.43461770  1
  Zn  Zn171  1  0.43847811  0.18834094  0.93669110  1
  Zn  Zn172  1  0.44094237  0.68945381  0.43588150  1
  Zn  Zn173  1  0.43915893  0.69202583  0.93787600  1
  Zn  Zn174  1  0.93863644  0.18687885  0.43741084  1
  Zn  Zn175  1  0.93581224  0.18620995  0.93772270  1
  Zn  Zn176  1  0.93875168  0.68651048  0.43766658  1
  Zn  Zn177  1  0.93772566  0.68675898  0.93679804  1
  Zn  Zn178  1  0.06329919  0.31330307  0.06161916  1
  Zn  Zn179  1  0.06442955  0.31053373  0.56287280  1
  Zn  Zn180  1  0.06253451  0.81180789  0.06276676  1
  Zn  Zn181  1  0.06342780  0.81203150  0.56419658  1
  Zn  Zn182  1  0.56219207  0.31029831  0.06279645  1
  Zn  Zn183  1  0.56326394  0.31342237  0.56265427  1
  Zn  Zn184  1  0.56285798  0.81364367  0.05998808  1
  Zn  Zn185  1  0.56377945  0.81272491  0.55635376  1
  O  O186  1  0.11954235  0.11719184  0.12051278  1
  O  O187  1  0.11668135  0.11770480  0.62218266  1
  O  O188  1  0.12198338  0.62130853  0.11964474  1
  O  O189  1  0.11717093  0.62443106  0.61804354  1
  O  O190  1  0.62213717  0.11608594  0.11960436  1
  O  O191  1  0.61795702  0.11716141  0.61860320  1
  O  O192  1  0.61994553  0.62013401  0.11929861  1
  O  O193  1  0.61204065  0.62220289  0.62330676  1
  O  O194  1  0.37767808  0.38316431  0.38055831  1
  O  O195  1  0.38117561  0.38180881  0.87996296  1
  O  O196  1  0.38125804  0.88382475  0.37959012  1
  O  O197  1  0.38095724  0.88334647  0.88365746  1
  O  O198  1  0.87527241  0.37044670  0.38763771  1
  O  O199  1  0.88474718  0.38229158  0.87524103  1
  O  O200  1  0.87939851  0.87860239  0.38197145  1
  O  O201  1  0.87756775  0.87402615  0.89181114  1
  O  O202  1  0.26067244  -0.00438142  0.38032853  1
  O  O203  1  0.26110055  -0.00486442  0.86474181  1
  O  O204  1  0.25611039  0.50583517  0.36901047  1
  O  O205  1  0.25740597  0.50629981  0.86977002  1
  O  O206  1  0.75221842  0.00147565  0.36890763  1
  O  O207  1  0.75291889  -0.00039172  0.87339838  1
  O  O208  1  0.75628746  0.50124703  0.36875002  1
  O  O209  1  0.75919508  0.49715952  0.86629870  1
  O  O210  1  0.24713497  0.49684095  0.12882042  1
  O  O211  1  0.25361250  0.49398768  0.63014743  1
  O  O212  1  0.23803960  0.99080769  0.11906935  1
  O  O213  1  0.24406275  0.99825869  0.63582621  1
  O  O214  1  0.74361924  0.48886474  0.12541822  1
  O  O215  1  0.75108368  0.49284298  0.63574397  1
  O  O216  1  0.74289488  0.99310303  0.13350673  1
  O  O217  1  0.73896869  0.99141660  0.62486162  1
  O  O218  1  -0.00034384  0.36193141  0.24837998  1
  O  O219  1  0.00188926  0.36832070  0.75917531  1
  O  O220  1  0.00437074  0.86910331  0.25540381  1
  O  O221  1  0.00710714  0.86437557  0.75107512  1
  O  O222  1  0.50401938  0.36333977  0.25058769  1
  O  O223  1  0.50405162  0.37155507  0.75318415  1
  O  O224  1  0.49376305  0.87379579  0.26446791  1
  O  O225  1  0.49222980  0.86564464  0.75972360  1
  O  O226  1  0.49372175  0.13702558  0.24777915  1
  O  O227  1  0.49316676  0.13214713  0.74395491  1
  O  O228  1  0.49362408  0.62674066  0.24085959  1
  O  O229  1  0.49579047  0.63230872  0.74264095  1
  O  O230  1  0.99444792  0.13251587  0.24544899  1
  O  O231  1  0.99839232  0.13200013  0.74204437  1
  O  O232  1  0.99377610  0.63078975  0.24424162  1
  O  O233  1  1.00277655  0.63367556  0.74177174  1
  O  O234  1  0.37025159  0.25512860  0.00456135  1
  O  O235  1  0.36894633  0.25421647  0.50320985  1
  O  O236  1  0.36975032  0.76093132  0.00546397  1
  O  O237  1  0.37166246  0.75519068  0.50378439  1
  O  O238  1  0.86339902  0.25155094  0.00453282  1
  O  O239  1  0.86850945  0.25488465  0.50520771  1
  O  O240  1  0.87124064  0.75667697  0.00673311  1
  O  O241  1  0.87498736  0.76240021  0.49992371  1
  O  O242  1  0.13342979  0.24840177  0.49198104  1
  O  O243  1  0.12944156  0.24551605  0.99208668  1
  O  O244  1  0.13141744  0.74499860  0.49390373  1
  O  O245  1  0.13152820  0.74586086  0.99520950  1
  O  O246  1  0.62936510  0.24368360  0.49510932  1
  O  O247  1  0.63247458  0.24186055  1.00095175  1
  O  O248  1  0.62511715  0.74625132  0.48628064  1
  O  O249  1  0.63270557  0.74414665  1.00006859  1
  O  O250  1  0.49168101  0.25076622  0.13494609  1
  O  O251  1  0.49357933  0.24526007  0.62894294  1
  O  O252  1  0.49440386  0.74601030  0.12552383  1
  O  O253  1  0.49665395  0.74452672  0.63019187  1
  O  O254  1  1.00088131  0.24402062  0.13393095  1
  O  O255  1  0.99539594  0.24402384  0.62998029  1
  O  O256  1  0.99585094  0.74472378  0.13121892  1
  O  O257  1  1.00117245  0.74155127  0.63479815  1
  O  O258  1  0.00664262  0.25050692  0.36532427  1
  O  O259  1  0.00740005  0.25780589  0.87066363  1
  O  O260  1  0.00715775  0.75521108  0.36987378  1
  O  O261  1  0.00771197  0.74934358  0.86548162  1
  O  O262  1  0.50507565  0.25098591  0.36579682  1
  O  O263  1  0.49937215  0.25865284  0.86669573  1
  O  O264  1  0.50889530  0.75869185  0.37313477  1
  O  O265  1  0.49926427  0.75968787  0.86614740  1
  O  O266  1  0.24953800  0.13928473  0.50755871  1
  O  O267  1  0.24088962  0.13529452  1.00633283  1
  O  O268  1  0.24733517  0.63070375  0.49347361  1
  O  O269  1  0.24669858  0.63256828  0.99405052  1
  O  O270  1  0.74412020  0.12800534  0.49489948  1
  O  O271  1  0.73953155  0.13472134  1.00398064  1
  O  O272  1  0.74893165  0.62820535  0.49738421  1
  O  O273  1  0.74503896  0.63198841  1.00088966  1
  O  O274  1  0.25732965  0.37001542  0.00408299  1
  O  O275  1  0.25674141  0.36681867  0.50527208  1
  O  O276  1  0.25840712  0.87144362  0.00923801  1
  O  O277  1  0.25688324  0.86698430  0.50264668  1
  O  O278  1  0.74758288  0.36623184  0.00961497  1
  O  O279  1  0.75623492  0.36737820  0.50584826  1
  O  O280  1  0.75882195  0.87004602  0.01089195  1
  O  O281  1  0.75925827  0.87393295  0.50857448  1
  O  O282  1  0.13320866  0.50009247  0.24274645  1
  O  O283  1  0.13629878  0.49806256  0.74711801  1
  O  O284  1  0.11689583  0.99358498  0.23773837  1
  O  O285  1  0.13200619  0.99649587  0.74827006  1
  O  O286  1  0.62448310  0.49248439  0.24227200  1
  O  O287  1  0.63554389  0.49421107  0.74939335  1
  O  O288  1  0.63764142  1.00608370  0.24384471  1
  O  O289  1  0.62014005  1.00405471  0.73506359  1
  O  O290  1  0.37674041  0.01218845  0.26063739  1
  O  O291  1  0.36713077  0.00557878  0.75602436  1
  O  O292  1  0.37132929  0.50675704  0.25387827  1
  O  O293  1  0.37201989  0.50760688  0.75595229  1
  O  O294  1  0.86544320  0.00356549  0.25562068  1
  O  O295  1  0.87183445  0.00074485  0.75371283  1
  O  O296  1  0.87499193  0.51186248  0.24838075  1
  O  O297  1  0.86593543  0.49801408  0.75815639  1
  O  O298  1  0.12219371  0.36159636  0.37100188  1
  O  O299  1  0.11608903  0.36701974  0.87371621  1
  O  O300  1  0.11918926  0.86969564  0.37015246  1
  O  O301  1  0.12517749  0.86832118  0.87000821  1
  O  O302  1  0.62411378  0.36616653  0.36761068  1
  O  O303  1  0.61743351  0.37398564  0.86791402  1
  O  O304  1  0.61516633  0.86447923  0.38147696  1
  O  O305  1  0.60744124  0.87574259  0.88705062  1
  O  O306  1  0.37630682  0.12975543  0.13471145  1
  O  O307  1  0.38101564  0.13032573  0.63150014  1
  O  O308  1  0.38053982  0.63214608  0.12781243  1
  O  O309  1  0.38575197  0.63116706  0.62986330  1
  O  O310  1  0.88141177  0.12448017  0.13261720  1
  O  O311  1  0.88154658  0.13058359  0.62371927  1
  O  O312  1  0.88110038  0.63009294  0.13157596  1
  O  O313  1  0.88725035  0.62831612  0.62769246  1
  O  O314  1  0.25494797  0.25777821  0.11778282  1
  O  O315  1  0.25519860  0.25613894  0.61728635  1
  O  O316  1  0.25545960  0.75972623  0.11870014  1
  O  O317  1  0.25846174  0.74986232  0.61877967  1
  O  O318  1  0.74889357  0.25821519  0.11820790  1
  O  O319  1  0.75425045  0.25359550  0.61902529  1
  O  O320  1  0.75466891  0.75832564  0.12202176  1
  O  O321  1  0.75057751  0.75896742  0.62313266  1
  O  O322  1  0.24213753  0.25581819  0.38497664  1
  O  O323  1  0.23729223  0.25917568  0.88036934  1
  O  O324  1  0.24618626  0.74506210  0.37969235  1
  O  O325  1  0.24746330  0.74604135  0.87903388  1
  O  O326  1  0.74318170  0.24143351  0.37982520  1
  O  O327  1  0.74605464  0.25207081  0.88852367  1
  O  O328  1  0.73621418  0.75409293  0.37594576  1
  O  O329  1  0.74801483  0.74974349  0.88290636  1
  O  O330  1  0.00727696  0.12015142  0.00734965  1
  O  O331  1  -0.00014288  0.11623994  0.50634108  1
  O  O332  1  0.00793389  0.62485627  0.00649363  1
  O  O333  1  0.00630232  0.62600436  0.50945900  1
  O  O334  1  0.51199755  0.13280085  0.00573896  1
  O  O335  1  0.50382857  0.12079377  0.50564583  1
  O  O336  1  0.50513026  0.62093594  0.00468882  1
  O  O337  1  0.49786580  0.61623257  0.50865415  1
  O  O338  1  0.49460951  0.38483519  0.50006046  1
  O  O339  1  0.49544433  0.38082582  0.99482412  1
  O  O340  1  0.49253612  0.88118586  0.49030972  1
  O  O341  1  0.48554032  0.87118586  0.99292105  1
  O  O342  1  0.98826548  0.37255657  0.50152439  1
  O  O343  1  0.99826210  0.37574542  0.98762827  1
  O  O344  1  0.99216500  0.87895485  0.49559045  1
  O  O345  1  0.99107162  0.87961008  1.00326361  1
  O  O346  1  0.49554344  0.50072316  0.38399160  1
  O  O347  1  0.49524447  0.49610574  0.87953035  1
  O  O348  1  0.49573971  0.99289957  0.38073067  1
  O  O349  1  0.48496405  0.99000831  0.86606221  1
  O  O350  1  0.99411994  0.49464309  0.37873153  1
  O  O351  1  0.99329568  0.49161016  0.87303642  1
  O  O352  1  0.99378137  0.99351889  0.37979837  1
  O  O353  1  0.99886142  0.99574664  0.88618141  1
  O  O354  1  0.00849276  0.00392323  0.11989866  1
  O  O355  1  0.00530895  0.00342165  0.62045503  1
  O  O356  1  0.00814274  0.50625422  0.12201289  1
  O  O357  1  0.00177098  0.51155429  0.62564183  1
  O  O358  1  0.51512356  -0.00205712  0.13649127  1
  O  O359  1  0.50427354  0.00439425  0.61888806  1
  O  O360  1  0.50469734  0.50532417  0.11770516  1
  O  O361  1  0.49910790  0.50887527  0.61677628  1
  O  O362  1  0.25111077  0.38269294  0.24156638  1
  O  O363  1  0.25191251  0.38224337  0.74142880  1
  O  O364  1  0.24365340  0.86890979  0.23652640  1
  O  O365  1  0.24605899  0.88577000  0.74816337  1
  O  O366  1  0.74334644  0.37134032  0.23935012  1
  O  O367  1  0.74559229  0.38072833  0.74568955  1
  O  O368  1  0.75701892  0.88422538  0.23917200  1
  O  O369  1  0.75420590  0.87478689  0.73538383  1
  O  O370  1  0.25964538  0.13284884  0.24701238  1
  O  O371  1  0.25588036  0.11418060  0.74514920  1
  O  O372  1  0.25686507  0.62055670  0.25424050  1
  O  O373  1  0.25749537  0.62184975  0.75537469  1
  O  O374  1  0.75434468  0.11632126  0.25567376  1
  O  O375  1  0.75102222  0.12027521  0.75367474  1
  O  O376  1  0.76270853  0.62449079  0.24911522  1
  O  O377  1  0.75161387  0.61311208  0.75060539  1
  O  O378  1  0.37777352  0.11554456  0.36658384  1
  O  O379  1  0.38178647  0.11437467  0.86903713  1
  O  O380  1  0.37078659  0.62099895  0.36922094  1
  O  O381  1  0.37127480  0.62144873  0.87135608  1
  O  O382  1  0.86786283  0.11732542  0.37120660  1
  O  O383  1  0.87031509  0.12207650  0.87361102  1
  O  O384  1  0.87452890  0.62734772  0.36251335  1
  O  O385  1  0.87438050  0.61263764  0.87165723  1
  O  O386  1  0.13266800  0.38253034  0.12480026  1
  O  O387  1  0.13436456  0.37677464  0.62670330  1
  O  O388  1  0.13153943  0.88134978  0.12845218  1
  O  O389  1  0.12681156  0.88203362  0.63278402  1
  O  O390  1  0.63151829  0.37950829  0.12919491  1
  O  O391  1  0.63201525  0.37700307  0.63132875  1
  O  O392  1  0.63748186  0.88308746  0.11700444  1
  O  O393  1  0.63277376  0.88457589  0.61579890  1
  O  O394  1  0.11582753  0.25023578  0.25611938  1
  O  O395  1  0.11976740  0.25123425  0.75839948  1
  O  O396  1  0.12041497  0.75590615  0.25526129  1
  O  O397  1  0.11964806  0.75494111  0.75465311  1
  O  O398  1  0.61632266  0.25228587  0.25370195  1
  O  O399  1  0.61682456  0.25661977  0.75045771  1
  O  O400  1  0.62318454  0.74861649  0.26340413  1
  O  O401  1  0.61080939  0.74585709  0.75142588  1
  O  O402  1  0.38028757  0.24376701  0.24677467  1
  O  O403  1  0.37888278  0.24593821  0.74410908  1
  O  O404  1  0.37670816  0.74456468  0.24244353  1
  O  O405  1  0.38403861  0.74574787  0.74416921  1
  O  O406  1  0.88311132  0.24223530  0.24972004  1
  O  O407  1  0.88173262  0.24967762  0.74211192  1
  O  O408  1  0.88114200  0.74338291  0.24474491  1
  O  O409  1  0.88821310  0.74857972  0.75068588  1
  O  O410  1  0.38380343  0.49586099  0.49423154  1
  O  O411  1  0.38139677  0.49535384  0.99445201  1
  O  O412  1  0.37951201  0.99725926  0.49297717  1
  O  O413  1  0.36612585  0.99234138  0.99150927  1
  O  O414  1  0.87642945  0.48511539  0.50145535  1
  O  O415  1  0.87667283  0.49651451  0.98822176  1
  O  O416  1  0.87893293  0.98941275  0.49488248  1
  O  O417  1  0.88100349  0.98986819  1.00580215  1
  O  O418  1  0.12051577  0.00423386  0.00858484  1
  O  O419  1  0.11802431  -0.00008994  0.50666668  1
  O  O420  1  0.12606331  0.50825191  0.00492542  1
  O  O421  1  0.12414757  0.50773876  0.50147839  1
  O  O422  1  0.63095633  0.01109045  0.01376067  1
  O  O423  1  0.61794951  0.00588692  0.50743247  1
  O  O424  1  0.62014540  0.50593444  0.00507283  1
  O  O425  1  0.61368652  0.50089244  0.50085284  1
  O  O426  1  0.37003846  0.37013156  0.11824218  1
  O  O427  1  0.37007469  0.36859179  0.61818009  1
  O  O428  1  0.36840409  0.87522150  0.11978729  1
  O  O429  1  0.37576028  0.86961486  0.61689048  1
  O  O430  1  0.86300450  0.37356135  0.12320707  1
  O  O431  1  0.86949348  0.36689575  0.61766208  1
  O  O432  1  0.86717867  0.86988206  0.11875276  1
  O  O433  1  0.86655668  0.87331042  0.61544716  1
  O  O434  1  0.12053507  0.13854987  0.37735446  1
  O  O435  1  0.11765441  0.13849407  0.88131208  1
  O  O436  1  0.13174901  0.63105946  0.37897047  1
  O  O437  1  0.13253366  0.63107927  0.87964042  1
  O  O438  1  0.62904290  0.12838022  0.38078542  1
  O  O439  1  0.62504822  0.12609639  0.88754551  1
  O  O440  1  0.62555554  0.63926349  0.37610278  1
  O  O441  1  0.62852512  0.62886534  0.88426578  1
