# generated using pymatgen
data_V93Zn93O256
_symmetry_space_group_name_H-M   'P 1'
_cell_length_a   17.06593370
_cell_length_b   17.06568435
_cell_length_c   17.06291275
_cell_angle_alpha   90.06272331
_cell_angle_beta   90.13849403
_cell_angle_gamma   90.03094511
_symmetry_Int_Tables_number   1
_chemical_formula_structural   V93Zn93O256
_chemical_formula_sum   'V93 Zn93 O256'
_cell_volume   4969.41583807
_cell_formula_units_Z   1
loop_
 _symmetry_equiv_pos_site_id
 _symmetry_equiv_pos_as_xyz
  1  'x, y, z'
loop_
 _atom_site_type_symbol
 _atom_site_label
 _atom_site_symmetry_multiplicity
 _atom_site_fract_x
 _atom_site_fract_y
 _atom_site_fract_z
 _atom_site_occupancy
  V  V0  1  0.37542088  0.87614910  0.00009680  1
  V  V1  1  0.24913930  0.37461960  0.62472747  1
  V  V2  1  0.12514195  0.74999796  0.87510122  1
  V  V3  1  0.49501227  0.00274994  0.49562537  1
  V  V4  1  0.62496005  0.00227360  0.12461096  1
  V  V5  1  0.37686190  0.12429932  0.25379827  1
  V  V6  1  0.24748522  0.24976615  0.00002703  1
  V  V7  1  0.25112928  0.62511748  0.37512404  1
  V  V8  1  0.75300655  0.12909669  0.36994729  1
  V  V9  1  0.24941762  0.12535383  0.87571772  1
  V  V10  1  -0.00013444  0.74727095  0.74898880  1
  V  V11  1  0.50021562  0.62669405  0.12640443  1
  V  V12  1  0.25042365  0.87648452  0.12473766  1
  V  V13  1  0.62359848  0.75102533  0.87514717  1
  V  V14  1  0.24889600  0.49824478  0.75023224  1
  V  V15  1  0.37614515  0.75022447  0.12557347  1
  V  V16  1  0.24967757  0.75070997  -0.00050980  1
  V  V17  1  0.86742630  0.37273614  0.50633704  1
  V  V18  1  0.24955323  0.87505624  0.62474455  1
  V  V19  1  0.49813029  0.62383112  0.62573235  1
  V  V20  1  0.87794133  0.24527014  0.13301523  1
  V  V21  1  0.37409294  0.37517958  0.00232749  1
  V  V22  1  0.74923843  0.49599276  0.75254557  1
  V  V23  1  0.63110629  0.12885606  0.50072874  1
  V  V24  1  0.49875522  0.00140508  0.00059850  1
  V  V25  1  0.87799952  0.50022589  0.37396234  1
  V  V26  1  -0.00454161  0.24588189  0.73686330  1
  V  V27  1  0.49960980  0.50042915  0.00146597  1
  V  V28  1  0.11774398  0.36756085  0.25324955  1
  V  V29  1  0.49861130  0.50160143  0.50259576  1
  V  V30  1  0.50128010  0.37621030  0.37649257  1
  V  V31  1  0.63042878  0.87453445  0.74643212  1
  V  V32  1  0.25460543  0.00000218  0.25186313  1
  V  V33  1  0.37617273  0.62539759  0.25004898  1
  V  V34  1  0.49549500  0.87883787  0.37304338  1
  V  V35  1  0.00076947  0.49820229  0.49808551  1
  V  V36  1  0.00209659  0.87468517  0.37145014  1
  V  V37  1  0.74946126  0.24839972  -0.00015039  1
  V  V38  1  0.25029751  0.00008509  0.75035408  1
  V  V39  1  0.75156993  0.50523378  0.25015966  1
  V  V40  1  0.75973037  0.11799045  0.86892837  1
  V  V41  1  0.24821819  0.24872475  0.49915740  1
  V  V42  1  0.63005713  0.25423603  0.38065490  1
  V  V43  1  0.62141135  0.49938641  0.62840847  1
  V  V44  1  0.12412605  0.12352294  0.50435922  1
  V  V45  1  0.24881368  0.62504265  0.87625999  1
  V  V46  1  0.12463049  0.87406689  0.74936103  1
  V  V47  1  0.63175065  -0.00393896  0.62509484  1
  V  V48  1  0.50100352  0.12602980  0.12599981  1
  V  V49  1  0.75057168  0.75100115  0.00089349  1
  V  V50  1  0.87546947  0.62184678  0.75003917  1
  V  V51  1  0.37386988  0.50001366  0.87656493  1
  V  V52  1  0.49834520  0.24907859  0.75135535  1
  V  V53  1  0.75053512  0.37374298  0.12487453  1
  V  V54  1  0.24964950  0.49862423  0.25048846  1
  V  V55  1  0.37374771  0.62498918  0.75120535  1
  V  V56  1  0.00089798  0.36940803  0.87506006  1
  V  V57  1  0.37299085  0.87922508  0.49686415  1
  V  V58  1  0.12460908  0.62457725  0.49853527  1
  V  V59  1  0.37577715  0.49989453  0.37529926  1
  V  V60  1  0.12503549  0.50035801  0.12543609  1
  V  V61  1  0.62558622  0.50097592  0.12604485  1
  V  V62  1  0.62548004  0.62585230  0.00110348  1
  V  V63  1  0.75329616  0.87664498  0.12399474  1
  V  V64  1  0.37560368  0.25048584  0.12633827  1
  V  V65  1  0.75086951  0.62320380  0.87625698  1
  V  V66  1  0.00060070  -0.00040252  0.50388315  1
  V  V67  1  0.87811858  0.62861124  0.24658045  1
  V  V68  1  -0.00072493  0.62412472  0.62447840  1
  V  V69  1  0.37374422  0.37423655  0.49925568  1
  V  V70  1  0.86859306  0.86783011  0.49944224  1
  V  V71  1  0.87719009  0.00408172  0.36845685  1
  V  V72  1  -0.00550319  0.00126647  -0.00479108  1
  V  V73  1  0.62450225  0.37499140  0.75264761  1
  V  V74  1  0.49909471  0.37418768  0.87692081  1
  V  V75  1  0.50016038  0.12522474  0.62534460  1
  V  V76  1  0.12765824  0.87452468  0.24833627  1
  V  V77  1  0.37486158  0.24935880  0.62541477  1
  V  V78  1  0.24946701  0.75080910  0.49966237  1
  V  V79  1  0.62580912  0.87563213  0.25115729  1
  V  V80  1  0.87575874  0.37329917  0.00128861  1
  V  V81  1  0.37196635  0.75007259  0.62605693  1
  V  V82  1  0.62442090  0.24816970  0.87718200  1
  V  V83  1  0.49858860  0.75094903  0.75216339  1
  V  V84  1  0.25486045  0.12199574  0.37620245  1
  V  V85  1  0.37497995  -0.00044975  0.87528265  1
  V  V86  1  -0.00811184  0.87963942  0.87266876  1
  V  V87  1  0.12554111  0.75015954  0.37272764  1
  V  V88  1  0.00099491  0.50033733  -0.00056634  1
  V  V89  1  -0.00130804  0.12597753  0.13092168  1
  V  V90  1  0.12608900  0.49925066  0.62417506  1
  V  V91  1  0.62488318  0.37739310  0.25302651  1
  V  V92  1  0.12438097  -0.00035826  0.62418182  1
  Zn  Zn93  1  0.93739521  0.18600609  0.29743105  1
  Zn  Zn94  1  0.12364958  0.24845805  0.87208575  1
  Zn  Zn95  1  0.50079484  0.25139392  0.25165451  1
  Zn  Zn96  1  0.87161055  0.87773895  -0.00719182  1
  Zn  Zn97  1  0.86944306  0.74625233  0.62143093  1
  Zn  Zn98  1  -0.00543719  0.36098960  0.37444552  1
  Zn  Zn99  1  0.75619372  0.00545632  0.24470075  1
  Zn  Zn100  1  0.74179021  0.37005836  0.62137136  1
  Zn  Zn101  1  0.85326530  0.23503984  0.62133140  1
  Zn  Zn102  1  0.76138588  -0.00637252  0.75259134  1
  Zn  Zn103  1  0.50035833  0.87756745  0.87439334  1
  Zn  Zn104  1  0.37544896  0.12379171  0.74936918  1
  Zn  Zn105  1  0.70967022  0.80602354  0.55752395  1
  Zn  Zn106  1  0.00056462  0.63012506  0.12155673  1
  Zn  Zn107  1  0.12434237  0.62638028  0.00065759  1
  Zn  Zn108  1  0.50097085  0.74963427  0.25407666  1
  Zn  Zn109  1  0.11611050  0.24262689  0.37179067  1
  Zn  Zn110  1  0.12244487  0.12436509  0.00126522  1
  Zn  Zn111  1  0.12450541  0.37249337  0.74930956  1
  Zn  Zn112  1  0.62586958  0.12405736  -0.00089959  1
  Zn  Zn113  1  0.24976333  0.37321817  0.12771334  1
  Zn  Zn114  1  0.62975930  0.63298440  0.50293766  1
  Zn  Zn115  1  0.75270979  0.64107339  0.38966307  1
  Zn  Zn116  1  0.12457979  0.00223596  0.12284474  1
  Zn  Zn117  1  0.00221080  0.75083953  0.24417088  1
  Zn  Zn118  1  0.87962323  0.75202758  0.12113722  1
  Zn  Zn119  1  0.87515547  0.49809789  0.87553304  1
  Zn  Zn120  1  0.89782208  0.10178965  0.72066140  1
  Zn  Zn121  1  0.62955343  0.75380642  0.38511325  1
  Zn  Zn122  1  0.18670526  0.18569409  0.18487839  1
  Zn  Zn123  1  0.18436061  0.18898756  0.68918500  1
  Zn  Zn124  1  0.18902052  0.68711495  0.18652168  1
  Zn  Zn125  1  0.18625850  0.68585558  0.68794049  1
  Zn  Zn126  1  0.68681364  0.19052070  0.18995923  1
  Zn  Zn127  1  0.68602099  0.18753076  0.69071746  1
  Zn  Zn128  1  0.68885496  0.69173059  0.18998640  1
  Zn  Zn129  1  0.68720999  0.68274390  0.69013733  1
  Zn  Zn130  1  0.30790113  0.31048135  0.31330498  1
  Zn  Zn131  1  0.31320987  0.31243906  0.81256879  1
  Zn  Zn132  1  0.31436321  0.81223219  0.31261980  1
  Zn  Zn133  1  0.31203062  0.81366732  0.81388103  1
  Zn  Zn134  1  0.80746813  0.31884382  0.31607552  1
  Zn  Zn135  1  0.81400253  0.30775658  0.81173763  1
  Zn  Zn136  1  0.81186927  0.81356109  0.31230254  1
  Zn  Zn137  1  0.81130405  0.80613799  0.80742951  1
  Zn  Zn138  1  0.18692748  0.43624100  0.43515064  1
  Zn  Zn139  1  0.18596442  0.43489778  0.93702730  1
  Zn  Zn140  1  0.18843190  0.93846102  0.43473429  1
  Zn  Zn141  1  0.18244343  0.93866875  0.93825456  1
  Zn  Zn142  1  0.69084717  0.45608165  0.44207867  1
  Zn  Zn143  1  0.68742758  0.43663544  0.93819693  1
  Zn  Zn144  1  0.68657423  0.94561457  0.43167859  1
  Zn  Zn145  1  0.68423454  0.93807167  0.93718840  1
  Zn  Zn146  1  0.31403737  0.06370613  0.06430778  1
  Zn  Zn147  1  0.31226683  0.06282568  0.56458917  1
  Zn  Zn148  1  0.31081366  0.56318617  0.06349397  1
  Zn  Zn149  1  0.31208027  0.56230696  0.56259880  1
  Zn  Zn150  1  0.81433024  0.06418868  0.05849254  1
  Zn  Zn151  1  0.81255926  0.05793657  0.55815408  1
  Zn  Zn152  1  0.81453249  0.56262241  0.06259283  1
  Zn  Zn153  1  0.81014549  0.55859246  0.56726591  1
  Zn  Zn154  1  0.43829394  0.43775457  0.18866074  1
  Zn  Zn155  1  0.43597747  0.43580168  0.68918552  1
  Zn  Zn156  1  0.43766914  0.93974349  0.18713099  1
  Zn  Zn157  1  0.43986155  0.93853990  0.68653484  1
  Zn  Zn158  1  0.93844925  0.43639766  0.18556050  1
  Zn  Zn159  1  0.93896443  0.43747806  0.68886188  1
  Zn  Zn160  1  0.94128690  0.94014448  0.18468526  1
  Zn  Zn161  1  0.93611130  0.93102034  0.68382645  1
  Zn  Zn162  1  0.06909152  0.05736154  0.31440855  1
  Zn  Zn163  1  0.06400066  0.06301211  0.81309855  1
  Zn  Zn164  1  0.06160381  0.56097869  0.31065666  1
  Zn  Zn165  1  0.06350038  0.56063761  0.81294006  1
  Zn  Zn166  1  0.56506480  0.06285888  0.31231177  1
  Zn  Zn167  1  0.56539917  0.06266865  0.81268276  1
  Zn  Zn168  1  0.56448348  0.56732578  0.31728500  1
  Zn  Zn169  1  0.56173880  0.56312772  0.81380293  1
  Zn  Zn170  1  0.44051437  0.19010340  0.43749816  1
  Zn  Zn171  1  0.43562784  0.18641887  0.93924489  1
  Zn  Zn172  1  0.44094007  0.69075354  0.43776386  1
  Zn  Zn173  1  0.43732141  0.68830470  0.93848215  1
  Zn  Zn174  1  0.93716120  0.18638670  0.46001801  1
  Zn  Zn175  1  0.93591360  0.18707784  0.94056582  1
  Zn  Zn176  1  0.93967430  0.68673684  0.43198261  1
  Zn  Zn177  1  0.93617446  0.68959936  0.93594675  1
  Zn  Zn178  1  0.06198754  0.31128407  0.06567622  1
  Zn  Zn179  1  0.06189040  0.31450037  0.55894091  1
  Zn  Zn180  1  0.06221095  0.81543891  0.06047721  1
  Zn  Zn181  1  0.05945708  0.81199164  0.56126794  1
  Zn  Zn182  1  0.56271197  0.31174303  0.06395850  1
  Zn  Zn183  1  0.56150280  0.31323357  0.56379173  1
  Zn  Zn184  1  0.56257503  0.81440008  0.06349785  1
  Zn  Zn185  1  0.54854007  0.81422595  0.56415626  1
  O  O186  1  0.11386251  0.12477566  0.12151696  1
  O  O187  1  0.13544201  0.11605530  0.61091320  1
  O  O188  1  0.12360603  0.61184453  0.12432571  1
  O  O189  1  0.12050215  0.61913728  0.61770291  1
  O  O190  1  0.61889298  0.12022080  0.12609645  1
  O  O191  1  0.61906815  0.11862166  0.61713256  1
  O  O192  1  0.62065117  0.62052458  0.12103403  1
  O  O193  1  0.61384587  0.61582077  0.62854871  1
  O  O194  1  0.37913648  0.37950671  0.37975214  1
  O  O195  1  0.37994198  0.38090458  0.88192390  1
  O  O196  1  0.38542071  0.87316180  0.38095900  1
  O  O197  1  0.37609645  0.88181577  0.88206178  1
  O  O198  1  0.87613161  0.38442281  0.38254220  1
  O  O199  1  0.88508233  0.37459509  0.88286274  1
  O  O200  1  0.88226737  0.88413574  0.38060289  1
  O  O201  1  0.88918407  0.86816189  0.87084650  1
  O  O202  1  0.24851997  0.01039894  0.36497476  1
  O  O203  1  0.25410556  0.00694877  0.87101360  1
  O  O204  1  0.25645007  0.50603762  0.37117595  1
  O  O205  1  0.25475448  0.50421199  0.87115025  1
  O  O206  1  0.76116438  0.01128506  0.37250946  1
  O  O207  1  0.74419912  0.01509016  0.87623004  1
  O  O208  1  0.76181834  0.49649327  0.35908565  1
  O  O209  1  0.75104741  0.50595467  0.87199577  1
  O  O210  1  0.24081222  0.49774440  0.13008792  1
  O  O211  1  0.24602660  0.49469367  0.62995533  1
  O  O212  1  0.24994570  0.99585887  0.13479083  1
  O  O213  1  0.24504616  0.99322388  0.63013617  1
  O  O214  1  0.74578860  0.49436494  0.13156726  1
  O  O215  1  0.73958877  0.49259349  0.63727974  1
  O  O216  1  0.74518981  0.99413265  0.12424175  1
  O  O217  1  0.73342313  1.00412722  0.62489895  1
  O  O218  1  0.01421923  0.37893364  0.25173472  1
  O  O219  1  0.00042161  0.36539766  0.75855079  1
  O  O220  1  0.00950876  0.87637966  0.25474898  1
  O  O221  1  0.00670317  0.86791848  0.75439360  1
  O  O222  1  0.50735348  0.37662581  0.25874151  1
  O  O223  1  0.50312644  0.36969631  0.75867385  1
  O  O224  1  0.50574625  0.87894746  0.25816028  1
  O  O225  1  0.50915330  0.86839467  0.75032313  1
  O  O226  1  0.49081414  0.12535186  0.24726072  1
  O  O227  1  0.49899133  0.13121686  0.74330733  1
  O  O228  1  0.49382481  0.62616748  0.24398917  1
  O  O229  1  0.49187710  0.63009208  0.74647047  1
  O  O230  1  1.00504639  0.11742641  0.23829578  1
  O  O231  1  1.00121584  0.14152699  0.75733029  1
  O  O232  1  0.98967954  0.62465537  0.24672924  1
  O  O233  1  0.99626183  0.62724525  0.74496142  1
  O  O234  1  0.36668840  0.25545258  0.00561191  1
  O  O235  1  0.36930673  0.25483151  0.50511256  1
  O  O236  1  0.36933258  0.75571214  0.00544556  1
  O  O237  1  0.36845503  0.75700401  0.50611479  1
  O  O238  1  0.86823640  0.25566545  0.01082520  1
  O  O239  1  0.87596012  0.26959401  0.50391965  1
  O  O240  1  0.86549379  0.75452237  0.00099964  1
  O  O241  1  0.87966152  0.76493793  0.49293645  1
  O  O242  1  0.12974276  0.23913312  0.49938515  1
  O  O243  1  0.13829349  0.25033007  0.99921638  1
  O  O244  1  0.13038764  0.74462090  0.49362771  1
  O  O245  1  0.13256206  0.74924630  0.99329664  1
  O  O246  1  0.61776873  0.24023687  0.49176326  1
  O  O247  1  0.63168432  0.24977428  0.99521122  1
  O  O248  1  0.62330474  0.75289313  0.50563011  1
  O  O249  1  0.62983319  0.74494569  0.99567570  1
  O  O250  1  0.49387399  0.24467094  0.12894483  1
  O  O251  1  0.49437525  0.24486021  0.63065010  1
  O  O252  1  0.49320082  0.74398703  0.12568860  1
  O  O253  1  0.48911283  0.74393855  0.63307311  1
  O  O254  1  0.98943744  0.23982590  0.11978260  1
  O  O255  1  1.00151871  0.25446075  0.63704050  1
  O  O256  1  0.99777369  0.74817789  0.12624059  1
  O  O257  1  0.99771280  0.74174154  0.63033493  1
  O  O258  1  -0.00133087  0.24370092  0.37689683  1
  O  O259  1  0.00020572  0.25910060  0.87278018  1
  O  O260  1  0.00930776  0.75632764  0.36971165  1
  O  O261  1  0.00694519  0.75722658  0.86937540  1
  O  O262  1  0.51129057  0.25775563  0.37405722  1
  O  O263  1  0.50240542  0.25511070  0.87244167  1
  O  O264  1  0.50404363  0.76604709  0.37454002  1
  O  O265  1  0.50557855  0.75051058  0.86944436  1
  O  O266  1  0.24527669  0.12685001  0.49267889  1
  O  O267  1  0.25190614  0.13355979  0.99271453  1
  O  O268  1  0.24496737  0.63078828  0.49471018  1
  O  O269  1  0.24887960  0.63205531  0.99363611  1
  O  O270  1  0.73618841  0.11799682  0.48754229  1
  O  O271  1  0.74759695  0.13124407  0.98997655  1
  O  O272  1  0.73835479  0.59422646  0.49189963  1
  O  O273  1  0.74413755  0.62955201  0.99684931  1
  O  O274  1  0.25602207  0.36566369  0.00078316  1
  O  O275  1  0.25451610  0.36900736  0.50376349  1
  O  O276  1  0.25539365  0.87081861  0.00473731  1
  O  O277  1  0.25335055  0.87072941  0.50423884  1
  O  O278  1  0.75511598  0.36986250  0.00611269  1
  O  O279  1  0.76492844  0.38638805  0.49904034  1
  O  O280  1  0.74916740  0.87101848  0.00780395  1
  O  O281  1  0.76469914  0.88295211  0.49272658  1
  O  O282  1  0.12956655  0.49192046  0.24327525  1
  O  O283  1  0.13191976  0.49781154  0.74235703  1
  O  O284  1  0.13923732  0.99330002  0.24750230  1
  O  O285  1  0.13028365  0.99444795  0.74358362  1
  O  O286  1  0.63367169  0.49794385  0.24595641  1
  O  O287  1  0.62759270  0.49409273  0.74847956  1
  O  O288  1  0.62639310  0.99077968  0.24348073  1
  O  O289  1  0.62228943  0.99004902  0.74022408  1
  O  O290  1  0.36574012  0.01270803  0.24538332  1
  O  O291  1  0.36807317  0.00039579  0.75535206  1
  O  O292  1  0.37009149  0.50534212  0.25588334  1
  O  O293  1  0.36890813  0.50491029  0.75715994  1
  O  O294  1  0.87758733  -0.00277811  0.26519626  1
  O  O295  1  0.87324220  -0.00310341  0.74498594  1
  O  O296  1  0.87037801  0.50521363  0.25399005  1
  O  O297  1  0.86901951  0.50412415  0.75348523  1
  O  O298  1  0.12202099  0.37302693  0.36273101  1
  O  O299  1  0.11386917  0.37196564  0.87277510  1
  O  O300  1  0.12264509  0.86993347  0.36842196  1
  O  O301  1  0.11837317  0.86874179  0.86719404  1
  O  O302  1  0.62272095  0.37155949  0.37423444  1
  O  O303  1  0.61706904  0.36940940  0.87286655  1
  O  O304  1  0.61614326  0.87976565  0.36574992  1
  O  O305  1  0.62049833  0.86888999  0.86678358  1
  O  O306  1  0.38040331  0.13090704  0.13488520  1
  O  O307  1  0.38161518  0.13196364  0.62595211  1
  O  O308  1  0.38023015  0.62957379  0.13034757  1
  O  O309  1  0.37686480  0.63049587  0.63210365  1
  O  O310  1  0.88328170  0.13475508  0.12242198  1
  O  O311  1  0.88056287  0.12700572  0.61154847  1
  O  O312  1  0.87793839  0.62570683  0.13444088  1
  O  O313  1  0.88355120  0.62129856  0.63128400  1
  O  O314  1  0.25672009  0.24957811  0.11527827  1
  O  O315  1  0.25475414  0.25451436  0.61908707  1
  O  O316  1  0.25656845  0.75551510  0.11937936  1
  O  O317  1  0.25303896  0.75522160  0.61949415  1
  O  O318  1  0.75660345  0.25414539  0.12089509  1
  O  O319  1  0.74482697  0.25899723  0.63046438  1
  O  O320  1  0.74959260  0.76184597  0.11897151  1
  O  O321  1  0.75825854  0.74825661  0.63625209  1
  O  O322  1  0.24516413  0.23805673  0.38122264  1
  O  O323  1  0.25182959  0.24225885  0.88325532  1
  O  O324  1  0.24581585  0.74480260  0.38083467  1
  O  O325  1  0.24519326  0.74504180  0.87976283  1
  O  O326  1  0.73878263  0.24491473  0.37359282  1
  O  O327  1  0.74397545  0.24205824  0.88002409  1
  O  O328  1  0.74381337  0.75120847  0.37183936  1
  O  O329  1  0.74274468  0.74296730  0.88045785  1
  O  O330  1  0.00081912  0.11755588  0.00622530  1
  O  O331  1  0.01413886  0.11053837  0.49487993  1
  O  O332  1  0.00221817  0.61189273  -0.00196581  1
  O  O333  1  0.00587762  0.61914171  0.50317849  1
  O  O334  1  0.49972226  0.11937532  0.00875236  1
  O  O335  1  0.50823326  0.11908718  0.50286578  1
  O  O336  1  0.50537669  0.61952603  0.00599298  1
  O  O337  1  0.49697282  0.61846814  0.50955834  1
  O  O338  1  0.49154214  0.38012900  0.49568005  1
  O  O339  1  0.49437287  0.38112759  0.99651930  1
  O  O340  1  0.49297258  0.88530521  0.49252400  1
  O  O341  1  0.49250039  0.88277738  0.99984097  1
  O  O342  1  0.99101943  0.38190997  0.49571028  1
  O  O343  1  0.99681004  0.38085303  0.99459762  1
  O  O344  1  0.99534276  0.88230900  0.49021919  1
  O  O345  1  0.99856143  0.88249600  0.98897708  1
  O  O346  1  0.49384240  0.49521912  0.38152065  1
  O  O347  1  0.49370153  0.49517981  0.88214174  1
  O  O348  1  0.50603698  0.99348545  0.38659093  1
  O  O349  1  0.49259489  1.00137777  0.88182992  1
  O  O350  1  0.98945292  0.49889846  0.37837932  1
  O  O351  1  1.00112693  0.48927127  0.88411279  1
  O  O352  1  0.99602286  0.99567244  0.38310263  1
  O  O353  1  1.00780318  0.98906435  0.88118014  1
  O  O354  1  0.00130601  0.00922072  0.11567106  1
  O  O355  1  0.00882099  -0.00978546  0.61043968  1
  O  O356  1  0.00897665  0.49826667  0.11482032  1
  O  O357  1  0.00745329  0.50498303  0.61896018  1
  O  O358  1  0.50431447  0.00676237  0.12015033  1
  O  O359  1  0.50873585  0.00494343  0.61530645  1
  O  O360  1  0.50570410  0.50619098  0.12035350  1
  O  O361  1  0.50014733  0.50520578  0.62302121  1
  O  O362  1  0.23956924  0.38168529  0.25003502  1
  O  O363  1  0.24933746  0.38066948  0.74341581  1
  O  O364  1  0.24961026  0.88330958  0.24623286  1
  O  O365  1  0.24411413  0.87982102  0.74453614  1
  O  O366  1  0.74466600  0.38600689  0.24360615  1
  O  O367  1  0.74073758  0.38100882  0.75752546  1
  O  O368  1  0.74207076  0.88065118  0.24031462  1
  O  O369  1  0.73383947  0.87610585  0.75750090  1
  O  O370  1  0.25616815  0.11956557  0.25640216  1
  O  O371  1  0.25062147  0.11946796  0.75921681  1
  O  O372  1  0.25612870  0.61902679  0.25611404  1
  O  O373  1  0.25505787  0.61891333  0.75573237  1
  O  O374  1  0.74479705  0.12328233  0.26513751  1
  O  O375  1  0.74800046  0.12205598  0.76389252  1
  O  O376  1  0.75902091  0.61449142  0.24508488  1
  O  O377  1  0.75501606  0.61505590  0.75820601  1
  O  O378  1  0.36610686  0.13210375  0.36639892  1
  O  O379  1  0.36383492  0.11913555  0.87385428  1
  O  O380  1  0.37090394  0.62053339  0.37055428  1
  O  O381  1  0.36915640  0.61944776  0.87078606  1
  O  O382  1  0.86966229  0.12216880  0.38019130  1
  O  O383  1  0.85916321  0.13100064  0.87542124  1
  O  O384  1  0.87380339  0.61503879  0.36522275  1
  O  O385  1  0.86847388  0.62189019  0.86892221  1
  O  O386  1  0.12598559  0.38315707  0.13593827  1
  O  O387  1  0.13266477  0.38240212  0.62326787  1
  O  O388  1  0.13443784  0.87657830  0.13120354  1
  O  O389  1  0.13080655  0.87865158  0.62948468  1
  O  O390  1  0.63012781  0.38139122  0.13163119  1
  O  O391  1  0.61889595  0.38211987  0.63581134  1
  O  O392  1  0.63266313  0.88245509  0.13100526  1
  O  O393  1  0.62209692  0.88135169  0.63033905  1
  O  O394  1  0.13058734  0.26490505  0.24899411  1
  O  O395  1  0.11250798  0.25321286  0.75223929  1
  O  O396  1  0.12839740  0.75664261  0.25612034  1
  O  O397  1  0.12008500  0.75432510  0.75453168  1
  O  O398  1  0.62379944  0.25925289  0.26201548  1
  O  O399  1  0.61537831  0.25602221  0.75844140  1
  O  O400  1  0.62034993  0.76786442  0.24540939  1
  O  O401  1  0.61789499  0.75607247  0.75507567  1
  O  O402  1  0.37454937  0.24017822  0.24567712  1
  O  O403  1  0.38107121  0.24882656  0.74347863  1
  O  O404  1  0.37647695  0.74312846  0.24334003  1
  O  O405  1  0.37725210  0.74484493  0.74577608  1
  O  O406  1  0.86947388  0.25631018  0.23878302  1
  O  O407  1  0.88945931  0.25198972  0.74376841  1
  O  O408  1  0.87681103  0.73833753  0.24800505  1
  O  O409  1  0.88438844  0.73956535  0.74885074  1
  O  O410  1  0.37818627  0.49406911  0.49453381  1
  O  O411  1  0.37972754  0.49563243  0.99607907  1
  O  O412  1  0.38734768  0.99598254  0.50708220  1
  O  O413  1  0.37882655  0.99515873  0.99580908  1
  O  O414  1  0.88243074  0.49364610  0.49020363  1
  O  O415  1  0.88570496  0.49240774  1.00098889  1
  O  O416  1  0.88440313  0.99108412  0.48879053  1
  O  O417  1  0.88938849  0.99645483  1.00164149  1
  O  O418  1  0.11288592  0.00226654  0.00323493  1
  O  O419  1  0.12005297  0.00402037  0.50316197  1
  O  O420  1  0.11820870  0.49798478  0.00917511  1
  O  O421  1  0.12135099  0.50545511  0.50330094  1
  O  O422  1  0.61618968  0.00148642  0.00803665  1
  O  O423  1  0.61603557  0.00781435  0.50581872  1
  O  O424  1  0.61959175  0.50539791  0.00670640  1
  O  O425  1  0.61038489  0.49470381  0.51189505  1
  O  O426  1  0.37339179  0.36964103  0.12020007  1
  O  O427  1  0.36892530  0.36941474  0.61886854  1
  O  O428  1  0.36964406  0.87046941  0.12025333  1
  O  O429  1  0.36882163  0.86978279  0.61901954  1
  O  O430  1  0.87049726  0.36692136  0.12092946  1
  O  O431  1  0.87396636  0.38320776  0.60990749  1
  O  O432  1  0.86148421  0.87664307  0.12593227  1
  O  O433  1  0.88101588  0.87174157  0.60162845  1
  O  O434  1  0.13679647  0.12287401  0.38516317  1
  O  O435  1  0.13935885  0.12683831  0.87859840  1
  O  O436  1  0.13139103  0.62874142  0.37898871  1
  O  O437  1  0.13185783  0.63114900  0.87598697  1
  O  O438  1  0.63060129  0.13353676  0.38162303  1
  O  O439  1  0.63210609  0.13292003  0.87767866  1
  O  O440  1  0.62687664  0.63317423  0.38128671  1
  O  O441  1  0.62972725  0.63034112  0.88183122  1
