# generated using pymatgen
data_V93Zn93O256
_symmetry_space_group_name_H-M   'P 1'
_cell_length_a   17.04867480
_cell_length_b   17.04913768
_cell_length_c   17.04815442
_cell_angle_alpha   89.94338242
_cell_angle_beta   89.96038949
_cell_angle_gamma   90.01780852
_symmetry_Int_Tables_number   1
_chemical_formula_structural   V93Zn93O256
_chemical_formula_sum   'V93 Zn93 O256'
_cell_volume   4955.30143809
_cell_formula_units_Z   1
loop_
 _symmetry_equiv_pos_site_id
 _symmetry_equiv_pos_as_xyz
  1  'x, y, z'
loop_
 _atom_site_type_symbol
 _atom_site_label
 _atom_site_symmetry_multiplicity
 _atom_site_fract_x
 _atom_site_fract_y
 _atom_site_fract_z
 _atom_site_occupancy
  V  V0  1  0.87693969  0.00063608  0.87545348  1
  V  V1  1  0.49728314  0.37185958  0.37171461  1
  V  V2  1  0.87495464  0.12498554  0.74895837  1
  V  V3  1  0.25384835  0.12773186  0.87024044  1
  V  V4  1  0.62548602  0.87326304  0.24997665  1
  V  V5  1  0.37610725  0.87619470  0.00104807  1
  V  V6  1  0.49900735  0.49897411  0.50030281  1
  V  V7  1  0.49475255  0.62345421  0.63319618  1
  V  V8  1  -0.00052485  0.12526768  0.62501703  1
  V  V9  1  0.24885179  0.12534471  0.37522761  1
  V  V10  1  0.25009585  0.62513968  0.37599308  1
  V  V11  1  0.74885211  0.12476228  0.37464490  1
  V  V12  1  0.37641807  0.37636015  -0.00106931  1
  V  V13  1  0.25130616  0.25131263  -0.00148030  1
  V  V14  1  0.12488118  0.50085783  0.12494967  1
  V  V15  1  0.37335750  0.74614863  0.63272334  1
  V  V16  1  0.62305870  -0.00080340  0.62652338  1
  V  V17  1  0.24925843  0.75025896  0.50211116  1
  V  V18  1  0.49873964  -0.00174329  0.50062427  1
  V  V19  1  0.25265935  0.00313277  0.75008689  1
  V  V20  1  0.25211622  0.75163380  -0.00001634  1
  V  V21  1  -0.00361477  0.50168639  0.49541124  1
  V  V22  1  0.37876829  0.13150983  0.24960394  1
  V  V23  1  0.62374137  0.49809832  0.62443981  1
  V  V24  1  0.75970291  0.62288077  0.87067898  1
  V  V25  1  0.37670268  0.00440842  0.87088728  1
  V  V26  1  0.25446899  0.50599281  0.74869849  1
  V  V27  1  0.12439228  0.75132112  0.37499021  1
  V  V28  1  0.12455892  0.87697134  0.74991525  1
  V  V29  1  -0.00599636  0.62560702  0.62752427  1
  V  V30  1  0.62528177  0.75004365  0.87345580  1
  V  V31  1  0.25065925  0.37481380  0.12526307  1
  V  V32  1  0.62498046  0.74759816  0.37674124  1
  V  V33  1  0.62374336  0.62436278  0.49994381  1
  V  V34  1  0.74913488  0.00019981  0.75089486  1
  V  V35  1  -0.00261531  0.37699637  0.37285584  1
  V  V36  1  0.87320906  0.37706534  0.49562664  1
  V  V37  1  0.87999761  0.37648785  -0.00906938  1
  V  V38  1  0.49559554  0.24550985  0.75068950  1
  V  V39  1  0.12403417  0.12690707  0.49894791  1
  V  V40  1  0.24983525  0.87520801  0.62521117  1
  V  V41  1  -0.00059899  0.25884264  0.75319626  1
  V  V42  1  0.24998147  0.00029174  0.24919739  1
  V  V43  1  0.37265516  0.24571328  0.62822597  1
  V  V44  1  0.87272309  0.24929142  0.62422615  1
  V  V45  1  0.12598219  0.00146955  0.12515431  1
  V  V46  1  0.75125779  0.25055520  -0.00173942  1
  V  V47  1  0.12320775  0.62483741  0.50023933  1
  V  V48  1  0.62382000  0.87357996  0.75066608  1
  V  V49  1  0.62450771  0.24942962  0.87441155  1
  V  V50  1  0.75002874  0.37508215  0.12419314  1
  V  V51  1  0.24587746  0.37587845  0.62647012  1
  V  V52  1  0.62393554  0.12391247  0.49963635  1
  V  V53  1  0.50047825  0.37459146  0.87382279  1
  V  V54  1  0.00081424  0.87698851  0.87516258  1
  V  V55  1  0.61784423  0.24762229  0.37143097  1
  V  V56  1  0.75656884  0.49990683  0.25707324  1
  V  V57  1  0.87373656  0.00059049  0.37558851  1
  V  V58  1  0.00050563  0.25221081  0.24982415  1
  V  V59  1  0.75249971  0.87430320  0.12532846  1
  V  V60  1  0.00141401  0.00158753  -0.00012903  1
  V  V61  1  0.50047497  0.13126658  0.12852852  1
  V  V62  1  0.87586428  0.25049343  0.12365143  1
  V  V63  1  0.62476063  -0.00026873  0.12493612  1
  V  V64  1  0.74928032  0.74936391  0.50072748  1
  V  V65  1  0.50053382  0.74771416  0.25096834  1
  V  V66  1  0.49994108  0.87459958  0.37610230  1
  V  V67  1  0.12524327  0.00183885  0.62599719  1
  V  V68  1  0.75570458  0.50301514  0.74853713  1
  V  V69  1  0.37686113  0.50549678  0.87109499  1
  V  V70  1  0.87446064  0.12586309  0.25098352  1
  V  V71  1  0.12633628  0.75163784  0.87510966  1
  V  V72  1  0.37293979  0.37459540  0.49967059  1
  V  V73  1  0.37390204  0.49949942  0.37495923  1
  V  V74  1  0.50047130  0.00039835  0.00065485  1
  V  V75  1  0.00044890  0.87387811  0.37351324  1
  V  V76  1  0.25545827  0.62728811  0.87121370  1
  V  V77  1  0.50258744  0.50055816  -0.00184240  1
  V  V78  1  0.12232629  0.25667406  0.87425214  1
  V  V79  1  0.75005813  0.12574055  0.87578989  1
  V  V80  1  0.87426228  0.87367289  0.50277835  1
  V  V81  1  0.00120634  0.12537770  0.12508792  1
  V  V82  1  0.37520111  -0.00050558  0.37573304  1
  V  V83  1  0.25163973  0.87669094  0.12494372  1
  V  V84  1  -0.00667247  0.74610053  0.75034563  1
  V  V85  1  0.12693434  0.62561458  0.00001089  1
  V  V86  1  0.62643696  0.62227734  0.00136623  1
  V  V87  1  0.49580573  0.12405386  0.62728565  1
  V  V88  1  0.61904057  0.37142616  0.24830310  1
  V  V89  1  0.74812360  0.37451975  0.62373433  1
  V  V90  1  0.00148075  0.49744431  -0.00894596  1
  V  V91  1  0.75455725  0.74939406  0.00145134  1
  V  V92  1  0.37604667  0.62493487  0.24942530  1
  Zn  Zn93  1  0.37430344  0.87391807  0.50100453  1
  Zn  Zn94  1  0.88360443  0.49936888  0.86619276  1
  Zn  Zn95  1  0.75785490  0.61670163  0.38038709  1
  Zn  Zn96  1  0.87040304  0.74658241  0.63053693  1
  Zn  Zn97  1  0.49988714  0.87512082  0.87631155  1
  Zn  Zn98  1  0.12320879  0.50073025  0.62726052  1
  Zn  Zn99  1  -0.00215559  0.00039820  0.50168109  1
  Zn  Zn100  1  0.74811039  0.24947867  0.49983028  1
  Zn  Zn101  1  0.37684696  0.75012006  0.12456425  1
  Zn  Zn102  1  0.37978590  0.25381422  0.12751513  1
  Zn  Zn103  1  0.24951981  0.49985005  0.25041090  1
  Zn  Zn104  1  0.50001837  0.62451486  0.12433834  1
  Zn  Zn105  1  0.12640536  0.12735769  -0.00008556  1
  Zn  Zn106  1  0.62601918  0.12535321  0.00207911  1
  Zn  Zn107  1  0.62515809  0.49937244  0.12663072  1
  Zn  Zn108  1  0.11984449  0.38022802  0.75393866  1
  Zn  Zn109  1  0.62444065  0.37385167  0.74835002  1
  Zn  Zn110  1  0.87811918  0.87527416  0.00175529  1
  Zn  Zn111  1  0.74991431  0.87416295  0.62661746  1
  Zn  Zn112  1  0.49495180  0.74547612  0.75384996  1
  Zn  Zn113  1  0.12664413  0.37544546  0.25240315  1
  Zn  Zn114  1  0.24830609  0.25132811  0.49923956  1
  Zn  Zn115  1  -0.00356695  0.62731311  0.12606163  1
  Zn  Zn116  1  0.12565338  0.87420720  0.24958215  1
  Zn  Zn117  1  0.00038537  0.74641008  0.24681406  1
  Zn  Zn118  1  0.75005856  -0.00016505  0.24918316  1
  Zn  Zn119  1  0.12593004  0.25155957  0.37299611  1
  Zn  Zn120  1  0.88226016  0.62506079  0.25621302  1
  Zn  Zn121  1  0.87944550  0.74640811  0.12970168  1
  Zn  Zn122  1  0.18734874  0.18891195  0.18856547  1
  Zn  Zn123  1  0.18556259  0.18908129  0.68963143  1
  Zn  Zn124  1  0.18763574  0.68959599  0.18827469  1
  Zn  Zn125  1  0.18183215  0.68772482  0.68702431  1
  Zn  Zn126  1  0.68800453  0.18811792  0.18757283  1
  Zn  Zn127  1  0.68465247  0.18736109  0.68776431  1
  Zn  Zn128  1  0.68979575  0.68609500  0.18819503  1
  Zn  Zn129  1  0.68571329  0.68433948  0.68585196  1
  Zn  Zn130  1  0.30981388  0.31080937  0.31277432  1
  Zn  Zn131  1  0.31203919  0.31711572  0.81121501  1
  Zn  Zn132  1  0.31267715  0.81240047  0.31287372  1
  Zn  Zn133  1  0.31242198  0.81739353  0.81371269  1
  Zn  Zn134  1  0.80890077  0.31137293  0.31263782  1
  Zn  Zn135  1  0.81048301  0.31398539  0.80945844  1
  Zn  Zn136  1  0.81426281  0.80853340  0.31305560  1
  Zn  Zn137  1  0.81255172  0.81505745  0.81543317  1
  Zn  Zn138  1  0.18407301  0.43898067  0.43910732  1
  Zn  Zn139  1  0.19017246  0.43956458  0.93692005  1
  Zn  Zn140  1  0.18721305  0.93931007  0.43907219  1
  Zn  Zn141  1  0.18803208  0.93985158  0.93897072  1
  Zn  Zn142  1  0.68408979  0.43415366  0.43687250  1
  Zn  Zn143  1  0.68970662  0.43592814  0.93446562  1
  Zn  Zn144  1  0.68731738  0.93691682  0.43712151  1
  Zn  Zn145  1  0.68774396  0.93823868  0.93898589  1
  Zn  Zn146  1  0.31386240  0.06437588  0.06054550  1
  Zn  Zn147  1  0.31089655  0.06309239  0.56108656  1
  Zn  Zn148  1  0.31339778  0.56281346  0.06015537  1
  Zn  Zn149  1  0.31263868  0.56289096  0.56279648  1
  Zn  Zn150  1  0.81419281  0.06234265  0.06218518  1
  Zn  Zn151  1  0.80910907  0.06110763  0.56240675  1
  Zn  Zn152  1  0.81574481  0.55971843  0.06784343  1
  Zn  Zn153  1  0.81294204  0.56174212  0.56223344  1
  Zn  Zn154  1  0.43927466  0.44117645  0.18479397  1
  Zn  Zn155  1  0.43541202  0.43377810  0.68797357  1
  Zn  Zn156  1  0.43801639  0.93997020  0.18858806  1
  Zn  Zn157  1  0.43707568  0.93312949  0.68828585  1
  Zn  Zn158  1  0.93802586  0.43750705  0.18171291  1
  Zn  Zn159  1  0.93469158  0.43860571  0.68040698  1
  Zn  Zn160  1  0.93657262  0.93804856  0.18860876  1
  Zn  Zn161  1  0.93822859  0.93695092  0.68753669  1
  Zn  Zn162  1  0.06097644  0.06059555  0.31254704  1
  Zn  Zn163  1  0.06480746  0.06829113  0.81272013  1
  Zn  Zn164  1  0.06243176  0.56240114  0.31144267  1
  Zn  Zn165  1  0.06900260  0.56531563  0.81057228  1
  Zn  Zn166  1  0.56224275  0.05986696  0.31050433  1
  Zn  Zn167  1  0.56245259  0.06468632  0.81332723  1
  Zn  Zn168  1  0.56532463  0.55930000  0.31362310  1
  Zn  Zn169  1  0.56942582  0.56004136  0.81265108  1
  Zn  Zn170  1  0.43555500  0.18635655  0.44034805  1
  Zn  Zn171  1  0.43752237  0.18683542  0.94131425  1
  Zn  Zn172  1  0.43648375  0.68764195  0.44157665  1
  Zn  Zn173  1  0.43803464  0.68747435  0.93754016  1
  Zn  Zn174  1  0.93774073  0.19054019  0.43702333  1
  Zn  Zn175  1  0.93851443  0.18719982  0.93700988  1
  Zn  Zn176  1  0.93368546  0.68617351  0.43282810  1
  Zn  Zn177  1  0.94131891  0.68552356  0.94016596  1
  Zn  Zn178  1  0.06339670  0.31381046  0.06020732  1
  Zn  Zn179  1  0.06031283  0.31180662  0.56307753  1
  Zn  Zn180  1  0.06432337  0.81450425  0.06331942  1
  Zn  Zn181  1  0.06132126  0.81166096  0.56312911  1
  Zn  Zn182  1  0.56419693  0.31182969  0.06020553  1
  Zn  Zn183  1  0.56073955  0.31081023  0.55997501  1
  Zn  Zn184  1  0.56208218  0.81165140  0.06410020  1
  Zn  Zn185  1  0.55994243  0.81114233  0.56447491  1
  O  O186  1  0.11873271  0.11970788  0.12369047  1
  O  O187  1  0.12062754  0.12150828  0.61847708  1
  O  O188  1  0.13197449  0.61335579  0.11733665  1
  O  O189  1  0.11279322  0.62495964  0.61713476  1
  O  O190  1  0.61731983  0.11921620  0.12644210  1
  O  O191  1  0.61688853  0.11871464  0.62032708  1
  O  O192  1  0.62683694  0.62482280  0.10975029  1
  O  O193  1  0.61503270  0.61822946  0.61845756  1
  O  O194  1  0.37761251  0.37889935  0.37889676  1
  O  O195  1  0.38105332  0.38313126  0.88000604  1
  O  O196  1  0.38187957  0.88132843  0.37701013  1
  O  O197  1  0.37697593  0.88605899  0.88224298  1
  O  O198  1  0.88381702  0.36774501  0.38572647  1
  O  O199  1  0.86929230  0.37731431  0.88735182  1
  O  O200  1  0.88076568  0.87924680  0.38435444  1
  O  O201  1  0.88231761  0.88343225  0.87718433  1
  O  O202  1  0.25545731  0.00561735  0.37015058  1
  O  O203  1  0.25672762  0.00843294  0.87126388  1
  O  O204  1  0.25556969  0.50622916  0.37469840  1
  O  O205  1  0.25605569  0.50619289  0.86731204  1
  O  O206  1  0.75516581  0.00615179  0.37279538  1
  O  O207  1  0.75569837  0.00528962  0.87040547  1
  O  O208  1  0.74478491  0.49472566  0.36080127  1
  O  O209  1  0.75027216  0.50751277  0.86535114  1
  O  O210  1  0.24287752  0.49031653  0.12160914  1
  O  O211  1  0.25014828  0.49296672  0.63168393  1
  O  O212  1  0.24598059  0.99716846  0.12883369  1
  O  O213  1  0.24571379  0.99614272  0.63092891  1
  O  O214  1  0.74472645  0.49086515  0.13345873  1
  O  O215  1  0.74443877  0.49626740  0.63050133  1
  O  O216  1  0.74467453  0.99018296  0.12412183  1
  O  O217  1  0.74090019  0.99832447  0.63341344  1
  O  O218  1  -0.00235515  0.37236642  0.25879119  1
  O  O219  1  -0.00145615  0.36238038  0.74197477  1
  O  O220  1  0.00089432  0.87615516  0.26496911  1
  O  O221  1  0.00631392  0.86830439  0.75527060  1
  O  O222  1  0.51032716  0.38076523  0.25509239  1
  O  O223  1  0.50119327  0.36423133  0.75526013  1
  O  O224  1  0.50545602  0.86871156  0.25589547  1
  O  O225  1  0.51350836  0.87102417  0.75410518  1
  O  O226  1  0.48983472  0.11702984  0.24048700  1
  O  O227  1  0.50285251  0.13745413  0.74392487  1
  O  O228  1  0.49212669  0.62831279  0.25159556  1
  O  O229  1  0.50820264  0.62488437  0.73658696  1
  O  O230  1  0.99391783  0.13134315  0.24527073  1
  O  O231  1  0.99411937  0.13425195  0.74397972  1
  O  O232  1  1.00093061  0.62639757  0.24463911  1
  O  O233  1  1.00780143  0.63572615  0.74138777  1
  O  O234  1  0.36891027  0.25902133  0.00142861  1
  O  O235  1  0.37331376  0.25646166  0.51097215  1
  O  O236  1  0.37015020  0.75759789  0.00051078  1
  O  O237  1  0.36734620  0.75096333  0.51208814  1
  O  O238  1  0.87208907  0.25750773  0.00327558  1
  O  O239  1  0.87328563  0.25955923  0.50635627  1
  O  O240  1  0.86213608  0.75141663  -0.00095831  1
  O  O241  1  0.86537960  0.75911372  0.50058861  1
  O  O242  1  0.12480772  0.23711152  0.50012588  1
  O  O243  1  0.13152489  0.24990442  0.99069338  1
  O  O244  1  0.13011637  0.74445960  0.49564747  1
  O  O245  1  0.13260123  0.74638958  0.99318382  1
  O  O246  1  0.62490030  0.24249060  0.49031509  1
  O  O247  1  0.63349055  0.24815955  0.99229231  1
  O  O248  1  0.63123657  0.74542516  0.49761684  1
  O  O249  1  0.63401197  0.74353711  0.99150620  1
  O  O250  1  0.49935800  0.23579444  0.11943943  1
  O  O251  1  0.49204231  0.24609161  0.63140203  1
  O  O252  1  0.49823617  0.74518988  0.13391758  1
  O  O253  1  0.49126477  0.74053428  0.62654003  1
  O  O254  1  0.99488596  0.24624409  0.12911550  1
  O  O255  1  0.99323327  0.24450501  0.63300445  1
  O  O256  1  0.99912170  0.74872383  0.12581651  1
  O  O257  1  0.99894841  0.74334435  0.63372084  1
  O  O258  1  0.00124514  0.26000909  0.36849734  1
  O  O259  1  0.00969284  0.24299244  0.86435823  1
  O  O260  1  0.00689775  0.76071351  0.37839761  1
  O  O261  1  0.00609120  0.75458045  0.86932068  1
  O  O262  1  0.51027313  0.25414592  0.38008633  1
  O  O263  1  0.50230727  0.25303353  0.86825103  1
  O  O264  1  0.50539961  0.75446211  0.37211436  1
  O  O265  1  0.51363599  0.74989969  0.87311858  1
  O  O266  1  0.23973526  0.12631667  0.49466694  1
  O  O267  1  0.24985202  0.13246243  0.98869887  1
  O  O268  1  0.24388131  0.62985336  0.49586561  1
  O  O269  1  0.24659005  0.63170583  0.99236981  1
  O  O270  1  0.74131764  0.12533500  0.49314835  1
  O  O271  1  0.75148969  0.13280376  0.99343069  1
  O  O272  1  0.74300495  0.63278151  0.50197685  1
  O  O273  1  0.74394745  0.63077786  0.99231653  1
  O  O274  1  0.25691149  0.37215888  0.00695770  1
  O  O275  1  0.25398265  0.37499149  0.50986429  1
  O  O276  1  0.25617837  0.87145717  0.00463728  1
  O  O277  1  0.24970581  0.86880630  0.50813925  1
  O  O278  1  0.75800964  0.37025441  0.00439011  1
  O  O279  1  0.75829198  0.37503015  0.50402424  1
  O  O280  1  0.74920557  0.86537014  0.00761303  1
  O  O281  1  0.75639865  0.86690564  0.50186946  1
  O  O282  1  0.12847683  0.49670133  0.23739911  1
  O  O283  1  0.13640470  0.49606061  0.74785390  1
  O  O284  1  0.13226220  0.99894532  0.24365709  1
  O  O285  1  0.13130336  0.99691216  0.74542696  1
  O  O286  1  0.63217729  0.48672066  0.24860693  1
  O  O287  1  0.63558687  0.49552880  0.74221259  1
  O  O288  1  0.62730148  0.99089209  0.24337877  1
  O  O289  1  0.62861538  0.99202411  0.74777464  1
  O  O290  1  0.36950303  0.00927741  0.25655377  1
  O  O291  1  0.36957508  -0.00771745  0.76291930  1
  O  O292  1  0.37480742  0.50938504  0.25647477  1
  O  O293  1  0.36313452  0.49454684  0.75564905  1
  O  O294  1  0.87278775  0.00780049  0.25723249  1
  O  O295  1  0.86971021  0.00505189  0.75497539  1
  O  O296  1  0.85768406  0.49250240  0.24470720  1
  O  O297  1  0.86098188  0.49396961  0.74939531  1
  O  O298  1  0.11188790  0.37340383  0.37505689  1
  O  O299  1  0.13328172  0.36074850  0.87334134  1
  O  O300  1  0.11527688  0.87139819  0.37818359  1
  O  O301  1  0.12085731  0.87150959  0.86968117  1
  O  O302  1  0.61782221  0.36570378  0.36853226  1
  O  O303  1  0.61806515  0.36708354  0.87362613  1
  O  O304  1  0.61938769  0.86863706  0.37008239  1
  O  O305  1  0.62659212  0.86586294  0.86861751  1
  O  O306  1  0.38276716  0.12528181  0.13291425  1
  O  O307  1  0.37901649  0.13773866  0.61911883  1
  O  O308  1  0.37534774  0.62521191  0.13744705  1
  O  O309  1  0.38385459  0.63316810  0.62122415  1
  O  O310  1  0.88079657  0.13081460  0.13076470  1
  O  O311  1  0.87844603  0.12900267  0.62968896  1
  O  O312  1  0.87672333  0.62692656  0.13300828  1
  O  O313  1  0.88982637  0.62744744  0.61951266  1
  O  O314  1  0.25030880  0.26074691  0.11810811  1
  O  O315  1  0.25707188  0.25810681  0.62699894  1
  O  O316  1  0.25238402  0.75788131  0.11745841  1
  O  O317  1  0.25478323  0.75388034  0.62263142  1
  O  O318  1  0.75677563  0.25481571  0.11880048  1
  O  O319  1  0.75454032  0.25533462  0.62366326  1
  O  O320  1  0.74714023  0.75822308  0.11525775  1
  O  O321  1  0.75051782  0.75075643  0.61461833  1
  O  O322  1  0.24571336  0.24205731  0.37902979  1
  O  O323  1  0.24605305  0.24473754  0.87673291  1
  O  O324  1  0.24529499  0.74516242  0.38240858  1
  O  O325  1  0.24586135  0.74780404  0.87914580  1
  O  O326  1  0.73707748  0.24390121  0.37750606  1
  O  O327  1  0.74519648  0.24509184  0.87788573  1
  O  O328  1  0.74217245  0.75100959  0.38813822  1
  O  O329  1  0.74397675  0.74342509  0.88118396  1
  O  O330  1  0.00160324  0.11977881  0.00748912  1
  O  O331  1  0.00688386  0.12419958  0.50598361  1
  O  O332  1  0.00897789  0.61547637  0.00299358  1
  O  O333  1  0.00311346  0.61819609  0.50508139  1
  O  O334  1  0.50135578  0.11808087  0.01054702  1
  O  O335  1  0.50471419  0.11751939  0.50670386  1
  O  O336  1  0.51202771  0.62011720  -0.00245310  1
  O  O337  1  0.50403461  0.61808089  0.50917247  1
  O  O338  1  0.49271692  0.37990901  0.49361828  1
  O  O339  1  0.49619276  0.37999427  0.99352188  1
  O  O340  1  0.49893041  0.88083681  0.49435086  1
  O  O341  1  0.49549568  0.88208639  0.99880499  1
  O  O342  1  0.99278492  0.38101098  0.49444431  1
  O  O343  1  0.99109408  0.38447087  1.00357501  1
  O  O344  1  0.99033964  0.87566104  0.49316666  1
  O  O345  1  1.00029180  0.88299933  0.99201156  1
  O  O346  1  0.49380478  0.49257120  0.38125529  1
  O  O347  1  0.49733985  0.49495595  0.87774186  1
  O  O348  1  0.49542420  0.99414101  0.38079464  1
  O  O349  1  0.49163977  1.00178902  0.88048922  1
  O  O350  1  1.00390548  0.49041538  0.38632855  1
  O  O351  1  1.00148332  0.50697885  0.88601764  1
  O  O352  1  0.99288844  0.99117788  0.37931122  1
  O  O353  1  0.99704214  0.99751224  0.87831650  1
  O  O354  1  0.00514147  0.00512135  0.12075458  1
  O  O355  1  0.00692001  0.00722414  0.62500144  1
  O  O356  1  0.01306422  0.49850364  0.11392182  1
  O  O357  1  0.00160373  0.50769774  0.61642804  1
  O  O358  1  0.50547395  0.00783922  0.11993825  1
  O  O359  1  0.50305926  0.00397817  0.62188571  1
  O  O360  1  0.50568747  0.50430527  0.11417863  1
  O  O361  1  0.50169584  0.50464045  0.62046380  1
  O  O362  1  0.25008387  0.37716174  0.23771633  1
  O  O363  1  0.24848898  0.38475922  0.74030655  1
  O  O364  1  0.25134061  0.88306803  0.24395561  1
  O  O365  1  0.24295930  0.88255982  0.74472215  1
  O  O366  1  0.74092442  0.38098853  0.24569466  1
  O  O367  1  0.74672859  0.38296551  0.74172557  1
  O  O368  1  0.74391453  0.87346666  0.24013632  1
  O  O369  1  0.73977472  0.88004757  0.75011340  1
  O  O370  1  0.25773860  0.11952345  0.25464685  1
  O  O371  1  0.24606193  0.12001347  0.76187662  1
  O  O372  1  0.26033651  0.62479420  0.25726990  1
  O  O373  1  0.24230507  0.61440229  0.75463685  1
  O  O374  1  0.75701986  0.12426930  0.25625703  1
  O  O375  1  0.75495392  0.11988398  0.75519808  1
  O  O376  1  0.74345789  0.60529801  0.25038360  1
  O  O377  1  0.74338387  0.61533452  0.75863874  1
  O  O378  1  0.37077386  0.12000748  0.36874637  1
  O  O379  1  0.36606462  0.11541073  0.87989778  1
  O  O380  1  0.37065822  0.61997472  0.36911928  1
  O  O381  1  0.36807459  0.61845022  0.87899015  1
  O  O382  1  0.86976234  0.12144506  0.37141440  1
  O  O383  1  0.87004848  0.12034004  0.86796066  1
  O  O384  1  0.86934007  0.62206970  0.37050206  1
  O  O385  1  0.86239348  0.62264608  0.88004615  1
  O  O386  1  0.13510335  0.38406235  0.12209778  1
  O  O387  1  0.13637705  0.37522644  0.62513267  1
  O  O388  1  0.13411709  0.88414951  0.12630932  1
  O  O389  1  0.12960738  0.88157665  0.62990094  1
  O  O390  1  0.63038236  0.37127718  0.13359554  1
  O  O391  1  0.62983558  0.38083637  0.62212775  1
  O  O392  1  0.63335941  0.87870945  0.12973757  1
  O  O393  1  0.62471913  0.87969185  0.63511439  1
  O  O394  1  0.11597306  0.25497846  0.25090642  1
  O  O395  1  0.11551512  0.25292928  0.75636458  1
  O  O396  1  0.12487277  0.75491632  0.26052752  1
  O  O397  1  0.11648976  0.75768723  0.75593739  1
  O  O398  1  0.62997594  0.25996402  0.25990739  1
  O  O399  1  0.61363206  0.25190424  0.75512791  1
  O  O400  1  0.62098013  0.75305391  0.25657336  1
  O  O401  1  0.62800283  0.75657848  0.75898859  1
  O  O402  1  0.37086322  0.23533904  0.24822608  1
  O  O403  1  0.38392898  0.25720469  0.73941703  1
  O  O404  1  0.38134888  0.73936018  0.25176681  1
  O  O405  1  0.37582817  0.75620409  0.73759784  1
  O  O406  1  0.87985182  0.24620356  0.24361389  1
  O  O407  1  0.88103649  0.24500868  0.74536918  1
  O  O408  1  0.87951768  0.74738041  0.24728254  1
  O  O409  1  0.88926726  0.75715196  0.75021328  1
  O  O410  1  0.37951988  0.49432339  0.49434464  1
  O  O411  1  0.38246778  0.49578849  0.99217624  1
  O  O412  1  0.38097529  0.99914467  0.49386398  1
  O  O413  1  0.37985696  0.99557375  0.99079033  1
  O  O414  1  0.88487574  0.48776868  0.50648723  1
  O  O415  1  0.88475168  0.49229808  0.99856407  1
  O  O416  1  0.87345231  0.98953600  0.49535280  1
  O  O417  1  0.88312207  0.99965326  0.99269554  1
  O  O418  1  0.11915898  0.00406294  0.00624149  1
  O  O419  1  0.12346743  0.01167023  0.50729321  1
  O  O420  1  0.12032824  0.50401258  0.00418186  1
  O  O421  1  0.11284464  0.50595438  0.50359375  1
  O  O422  1  0.61933359  0.00236815  0.00648006  1
  O  O423  1  0.61851083  0.00378590  0.50619468  1
  O  O424  1  0.62220618  0.50895423  -0.00318124  1
  O  O425  1  0.61828575  0.50356913  0.50479875  1
  O  O426  1  0.36750883  0.37558308  0.11921016  1
  O  O427  1  0.36565220  0.36710608  0.61934096  1
  O  O428  1  0.36948277  0.87602252  0.11871698  1
  O  O429  1  0.36813126  0.86583194  0.62312761  1
  O  O430  1  0.86973388  0.36894963  0.11369254  1
  O  O431  1  0.86838364  0.36853632  0.61447063  1
  O  O432  1  0.86260614  0.87487971  0.12267894  1
  O  O433  1  0.87331995  0.87297734  0.61431236  1
  O  O434  1  0.12867490  0.12401414  0.38414804  1
  O  O435  1  0.13600662  0.13674832  0.87658653  1
  O  O436  1  0.13066713  0.63028644  0.38150418  1
  O  O437  1  0.13422297  0.63302121  0.88091624  1
  O  O438  1  0.62690703  0.13032015  0.37789299  1
  O  O439  1  0.63262928  0.13131806  0.87705871  1
  O  O440  1  0.62743232  0.63014093  0.38335051  1
  O  O441  1  0.63493235  0.63242072  0.88219426  1
