# generated using pymatgen
data_V93Zn93O256
_symmetry_space_group_name_H-M   'P 1'
_cell_length_a   17.05154617
_cell_length_b   17.05743529
_cell_length_c   17.05656714
_cell_angle_alpha   90.00453584
_cell_angle_beta   89.96894471
_cell_angle_gamma   90.02969295
_symmetry_Int_Tables_number   1
_chemical_formula_structural   V93Zn93O256
_chemical_formula_sum   'V93 Zn93 O256'
_cell_volume   4960.99743110
_cell_formula_units_Z   1
loop_
 _symmetry_equiv_pos_site_id
 _symmetry_equiv_pos_as_xyz
  1  'x, y, z'
loop_
 _atom_site_type_symbol
 _atom_site_label
 _atom_site_symmetry_multiplicity
 _atom_site_fract_x
 _atom_site_fract_y
 _atom_site_fract_z
 _atom_site_occupancy
  V  V0  1  0.87477372  0.62606788  0.24842026  1
  V  V1  1  0.25008164  0.62433252  0.87537740  1
  V  V2  1  -0.00144401  0.12565691  0.62614371  1
  V  V3  1  -0.00071765  0.49877509  -0.00059853  1
  V  V4  1  0.37438557  0.12284165  0.25031823  1
  V  V5  1  0.50000846  0.87403155  0.37324737  1
  V  V6  1  0.75042186  0.12472994  0.87673359  1
  V  V7  1  0.00060021  0.62390078  0.62621476  1
  V  V8  1  -0.00363675  -0.00352196  0.49886490  1
  V  V9  1  0.12491733  0.50067507  0.12530059  1
  V  V10  1  0.37451062  0.24823705  0.12557063  1
  V  V11  1  0.37307794  0.12402933  0.75199605  1
  V  V12  1  0.62848342  0.37427646  0.24726602  1
  V  V13  1  0.24898422  0.62494998  0.37492791  1
  V  V14  1  0.62814805  0.49747176  0.12453440  1
  V  V15  1  0.12509917  0.62492558  0.50042293  1
  V  V16  1  0.49945697  0.24955300  0.24975384  1
  V  V17  1  0.87370380  0.75623146  0.12213480  1
  V  V18  1  0.12453283  0.87516123  0.75038674  1
  V  V19  1  0.12451865  0.24284855  0.87953163  1
  V  V20  1  0.50084047  0.00034924  0.00381841  1
  V  V21  1  0.87525923  0.75079101  0.62472110  1
  V  V22  1  0.25080149  0.49980952  0.25009440  1
  V  V23  1  0.24923275  0.37442181  0.62632600  1
  V  V24  1  0.62542225  0.12476609  0.00143692  1
  V  V25  1  0.24922925  0.37463363  0.12461950  1
  V  V26  1  -0.00065960  0.75050094  0.75016843  1
  V  V27  1  -0.00214993  0.25022773  0.24888895  1
  V  V28  1  0.74959432  0.25662473  0.00363251  1
  V  V29  1  0.49963330  0.12435320  0.62531299  1
  V  V30  1  0.37450872  0.24937322  0.62520457  1
  V  V31  1  0.62528185  -0.00051367  0.62590281  1
  V  V32  1  0.62333234  0.37293647  0.75006247  1
  V  V33  1  0.12414759  0.00009637  0.62568258  1
  V  V34  1  0.49961628  0.87441476  0.87549504  1
  V  V35  1  0.75105495  0.75054871  0.49586751  1
  V  V36  1  0.87504000  0.37570173  0.49926775  1
  V  V37  1  0.12534034  0.37461223  0.75092770  1
  V  V38  1  0.37588692  0.74921410  0.62490460  1
  V  V39  1  0.74971228  0.25019621  0.49954713  1
  V  V40  1  -0.00510713  0.87602095  0.88166927  1
  V  V41  1  0.75074863  0.62505605  0.87438209  1
  V  V42  1  0.49987316  0.24968335  0.75088089  1
  V  V43  1  0.25029943  0.87501066  0.62541837  1
  V  V44  1  0.24990145  0.12394569  0.37505650  1
  V  V45  1  0.87210181  0.11559775  0.24859191  1
  V  V46  1  0.49925114  -0.00075829  0.50014011  1
  V  V47  1  0.37469339  0.87417691  0.49976188  1
  V  V48  1  0.87189915  0.25602969  0.12454420  1
  V  V49  1  0.62513290  0.12525114  0.49923212  1
  V  V50  1  0.37450857  0.37435993  -0.00006249  1
  V  V51  1  0.75056973  0.87543350  0.62427704  1
  V  V52  1  0.87438136  0.12510996  0.75022412  1
  V  V53  1  -0.00077238  0.37583584  0.37552797  1
  V  V54  1  0.01550959  0.00664078  0.00056157  1
  V  V55  1  0.11963115  0.75695374  0.36907989  1
  V  V56  1  0.75421397  0.75518239  -0.00059404  1
  V  V57  1  0.12387533  0.74954939  0.87474205  1
  V  V58  1  0.23789240  0.88095687  0.13141399  1
  V  V59  1  0.24560102  0.24177162  0.00054986  1
  V  V60  1  0.37509877  0.75048861  0.12635692  1
  V  V61  1  0.25040042  0.00071120  0.75136313  1
  V  V62  1  0.37469592  0.87483121  0.00193092  1
  V  V63  1  0.75097164  0.49770939  0.24552050  1
  V  V64  1  0.62506509  0.75104459  0.87483780  1
  V  V65  1  0.74976661  0.50029726  0.74979837  1
  V  V66  1  0.49955486  0.62533812  0.12604226  1
  V  V67  1  -0.00178042  0.62554214  0.12372027  1
  V  V68  1  0.75171595  0.88178515  0.12540316  1
  V  V69  1  0.12455840  0.25168618  0.37606383  1
  V  V70  1  0.87506669  0.24968694  0.62613408  1
  V  V71  1  0.12422867  0.37582346  0.25066396  1
  V  V72  1  0.75089618  0.11930165  0.36936613  1
  V  V73  1  0.87492139  -0.00227704  0.88391779  1
  V  V74  1  0.62453174  0.25004961  0.37377763  1
  V  V75  1  0.50080808  0.75067856  0.24887465  1
  V  V76  1  0.37702116  0.49949927  0.37571722  1
  V  V77  1  0.49858816  0.49860567  -0.00057814  1
  V  V78  1  0.62449501  0.62465036  0.50011840  1
  V  V79  1  0.75041200  0.37529612  0.62520060  1
  V  V80  1  0.24934219  0.75001707  0.00144924  1
  V  V81  1  0.62962731  0.88088263  0.24879561  1
  V  V82  1  -0.00270215  0.37440495  0.87717720  1
  V  V83  1  0.87526407  0.49998291  0.37349840  1
  V  V84  1  0.12414542  0.12568180  0.50150504  1
  V  V85  1  0.37647247  0.62497081  0.75059075  1
  V  V86  1  0.01150320  0.12358191  0.12117896  1
  V  V87  1  0.24973320  0.24976477  0.50069367  1
  V  V88  1  0.37273455  -0.00084968  0.37294850  1
  V  V89  1  0.25015857  0.49917431  0.75021354  1
  V  V90  1  0.37590530  0.37490635  0.49927325  1
  V  V91  1  0.12528787  0.62368216  0.00000640  1
  V  V92  1  0.74976902  -0.00073897  0.75021796  1
  Zn  Zn93  1  0.75038289  0.62591915  0.37339827  1
  Zn  Zn94  1  0.23179215  -0.00032060  0.24958024  1
  Zn  Zn95  1  0.62626624  0.74986695  0.37225688  1
  Zn  Zn96  1  0.87746568  0.87378932  0.49526572  1
  Zn  Zn97  1  0.62447589  0.62433722  0.00100215  1
  Zn  Zn98  1  0.62376647  0.25002155  0.87682863  1
  Zn  Zn99  1  0.87397361  0.49919374  0.87734263  1
  Zn  Zn100  1  0.37514121  0.49838854  0.87473839  1
  Zn  Zn101  1  0.50019027  0.12379449  0.12610285  1
  Zn  Zn102  1  -0.00048213  0.88605298  0.35636847  1
  Zn  Zn103  1  0.87086822  -0.00423145  0.37254116  1
  Zn  Zn104  1  0.50099872  0.62313133  0.62490232  1
  Zn  Zn105  1  -0.00016572  0.24995847  0.75204191  1
  Zn  Zn106  1  0.62226133  0.50114337  0.62316550  1
  Zn  Zn107  1  0.50268186  0.49921930  0.50094790  1
  Zn  Zn108  1  0.00231365  0.75461803  0.24363279  1
  Zn  Zn109  1  0.24617180  0.11955728  0.87965667  1
  Zn  Zn110  1  0.49743535  0.37301142  0.87413952  1
  Zn  Zn111  1  0.37298531  0.00157653  0.87632637  1
  Zn  Zn112  1  0.50142349  0.74940436  0.74986988  1
  Zn  Zn113  1  -0.00118157  0.49969807  0.50100288  1
  Zn  Zn114  1  0.87582840  0.62333235  0.74964665  1
  Zn  Zn115  1  0.50158667  0.37564385  0.37629475  1
  Zn  Zn116  1  0.86766156  0.37999306  0.00411336  1
  Zn  Zn117  1  0.62399004  0.87509352  0.74887256  1
  Zn  Zn118  1  0.12435815  0.49800446  0.62461666  1
  Zn  Zn119  1  0.63330838  0.00354770  0.12941836  1
  Zn  Zn120  1  0.24972183  0.75128811  0.49786907  1
  Zn  Zn121  1  0.37600549  0.62549353  0.25167174  1
  Zn  Zn122  1  0.18968994  0.18839173  0.19130349  1
  Zn  Zn123  1  0.18635167  0.18794613  0.69106654  1
  Zn  Zn124  1  0.18959845  0.68759861  0.18814667  1
  Zn  Zn125  1  0.18886696  0.68799500  0.68795820  1
  Zn  Zn126  1  0.68872331  0.18790828  0.18595286  1
  Zn  Zn127  1  0.68805802  0.18698513  0.68766418  1
  Zn  Zn128  1  0.68699700  0.68752187  0.18747534  1
  Zn  Zn129  1  0.68733813  0.68855649  0.68579498  1
  Zn  Zn130  1  0.31248803  0.31239595  0.31250701  1
  Zn  Zn131  1  0.31230612  0.31157433  0.81525388  1
  Zn  Zn132  1  0.31014747  0.81107087  0.31159324  1
  Zn  Zn133  1  0.31275083  0.81236099  0.81302668  1
  Zn  Zn134  1  0.81159106  0.31043674  0.31160970  1
  Zn  Zn135  1  0.81144926  0.31056449  0.81520837  1
  Zn  Zn136  1  0.81836511  0.81800372  0.30815164  1
  Zn  Zn137  1  0.81371223  0.81362714  0.80933496  1
  Zn  Zn138  1  0.18830984  0.43903636  0.43885953  1
  Zn  Zn139  1  0.18740983  0.43465157  0.93675782  1
  Zn  Zn140  1  0.18693056  0.93846195  0.43804751  1
  Zn  Zn141  1  0.18845702  0.93433798  0.93733178  1
  Zn  Zn142  1  0.68927934  0.43875196  0.43426062  1
  Zn  Zn143  1  0.68340601  0.43768935  0.93486416  1
  Zn  Zn144  1  0.68602061  0.93560782  0.43775700  1
  Zn  Zn145  1  0.68714385  0.93783545  0.93934577  1
  Zn  Zn146  1  0.31293281  0.06008156  0.06465322  1
  Zn  Zn147  1  0.31218714  0.06183279  0.56307204  1
  Zn  Zn148  1  0.31375739  0.56316306  0.06404814  1
  Zn  Zn149  1  0.31095268  0.56156415  0.56240875  1
  Zn  Zn150  1  0.81947140  0.06659801  0.06412312  1
  Zn  Zn151  1  0.81175603  0.06326492  0.56149198  1
  Zn  Zn152  1  0.81217250  0.56578377  0.06050422  1
  Zn  Zn153  1  0.81214030  0.56315675  0.56242473  1
  Zn  Zn154  1  0.43897337  0.43531337  0.18821136  1
  Zn  Zn155  1  0.43857202  0.43942240  0.68392598  1
  Zn  Zn156  1  0.43528064  0.93583565  0.18802304  1
  Zn  Zn157  1  0.43714553  0.93728662  0.68900566  1
  Zn  Zn158  1  0.93844629  0.43771945  0.18700475  1
  Zn  Zn159  1  0.93712980  0.43732444  0.68979448  1
  Zn  Zn160  1  1.05385705  0.93965638  0.18704327  1
  Zn  Zn161  1  0.93565569  0.93736621  0.68848157  1
  Zn  Zn162  1  0.05857221  0.06876320  0.31419204  1
  Zn  Zn163  1  0.06036326  0.06173718  0.81167752  1
  Zn  Zn164  1  0.06058098  0.56561306  0.31178765  1
  Zn  Zn165  1  0.06403533  0.56005511  0.81215137  1
  Zn  Zn166  1  0.56069075  0.06209264  0.31282155  1
  Zn  Zn167  1  0.56233718  0.06251208  0.81403376  1
  Zn  Zn168  1  0.56357918  0.56536419  0.31428699  1
  Zn  Zn169  1  0.56320363  0.56222126  0.81256089  1
  Zn  Zn170  1  0.43766340  0.18738721  0.43606253  1
  Zn  Zn171  1  0.43563485  0.18777997  0.93573690  1
  Zn  Zn172  1  0.43918635  0.68742247  0.43659191  1
  Zn  Zn173  1  0.43697281  0.68660456  0.93993449  1
  Zn  Zn174  1  0.93615509  0.18669426  0.43704461  1
  Zn  Zn175  1  0.93624787  0.18726286  0.94011775  1
  Zn  Zn176  1  0.93717543  0.68613096  0.43726336  1
  Zn  Zn177  1  0.93604307  0.68603116  0.93780777  1
  Zn  Zn178  1  0.06093907  0.31099646  0.06269970  1
  Zn  Zn179  1  0.06098542  0.31249732  0.56349920  1
  Zn  Zn180  1  0.05896382  0.81078286  0.05755746  1
  Zn  Zn181  1  0.06342077  0.81159709  0.56050917  1
  Zn  Zn182  1  0.56149708  0.31233032  0.06436238  1
  Zn  Zn183  1  0.56145654  0.31315291  0.56258010  1
  Zn  Zn184  1  0.56627223  0.81257943  0.06310586  1
  Zn  Zn185  1  0.56337424  0.81133748  0.56175206  1
  O  O186  1  0.10988308  0.13557726  0.13043806  1
  O  O187  1  0.11944988  0.12038513  0.62083548  1
  O  O188  1  0.12012776  0.62047944  0.11912310  1
  O  O189  1  0.11729896  0.62693993  0.61771166  1
  O  O190  1  0.62365396  0.12181214  0.11468562  1
  O  O191  1  0.61975296  0.11986960  0.61896525  1
  O  O192  1  0.61868289  0.61329438  0.12429044  1
  O  O193  1  0.62381836  0.62528444  0.61428504  1
  O  O194  1  0.37415117  0.38390398  0.38014810  1
  O  O195  1  0.37729217  0.37856657  0.88335685  1
  O  O196  1  0.37913860  0.87894193  0.38002860  1
  O  O197  1  0.38475996  0.87338806  0.88265093  1
  O  O198  1  0.87967994  0.37893075  0.37920033  1
  O  O199  1  0.88653302  0.37473255  0.87793732  1
  O  O200  1  0.88079573  0.87993290  0.37880232  1
  O  O201  1  0.88566138  0.88449220  0.86808893  1
  O  O202  1  0.25556551  0.00625018  0.37444210  1
  O  O203  1  0.25169560  0.00028463  0.86783086  1
  O  O204  1  0.25739535  0.50407220  0.36972579  1
  O  O205  1  0.25102592  0.50679454  0.86962519  1
  O  O206  1  0.75029725  0.01607240  0.38363813  1
  O  O207  1  0.75731069  0.00309954  0.87206824  1
  O  O208  1  0.75723304  0.50112245  0.36191698  1
  O  O209  1  0.74781809  0.50878033  0.86814943  1
  O  O210  1  0.24441846  0.49476460  0.12968048  1
  O  O211  1  0.24845043  0.49217567  0.63189875  1
  O  O212  1  0.25110104  0.98351967  0.12403389  1
  O  O213  1  0.24357954  0.99454312  0.63037862  1
  O  O214  1  0.73965911  0.50558560  0.13311350  1
  O  O215  1  0.74882641  0.49435317  0.63506487  1
  O  O216  1  0.75291921  0.98527714  0.11311182  1
  O  O217  1  0.74462595  0.99599729  0.62962239  1
  O  O218  1  0.00553141  0.37027130  0.25568888  1
  O  O219  1  0.00500371  0.37387949  0.76083013  1
  O  O220  1  -0.00368936  0.86587610  0.24610872  1
  O  O221  1  0.00563109  0.87072689  0.75877311  1
  O  O222  1  0.51095182  0.36901309  0.25263525  1
  O  O223  1  0.50854802  0.36959760  0.74782287  1
  O  O224  1  0.50744753  0.86941602  0.25334321  1
  O  O225  1  0.50089714  0.87334195  0.76375893  1
  O  O226  1  0.49362492  0.13130146  0.24833477  1
  O  O227  1  0.49482644  0.12892464  0.74424126  1
  O  O228  1  0.49958997  0.63207321  0.24379472  1
  O  O229  1  0.48837422  0.62724068  0.75053022  1
  O  O230  1  0.99025369  0.13351347  0.24275977  1
  O  O231  1  0.99216466  0.12621749  0.74335769  1
  O  O232  1  0.99324696  0.62876695  0.24063752  1
  O  O233  1  1.00112108  0.63089208  0.74231250  1
  O  O234  1  0.36686285  0.25494204  0.00561579  1
  O  O235  1  0.36915648  0.25363028  0.50516851  1
  O  O236  1  0.36874427  0.75457921  0.00628763  1
  O  O237  1  0.37342171  0.75471514  0.50902617  1
  O  O238  1  0.86545287  0.25059454  0.00768690  1
  O  O239  1  0.86936501  0.25578564  0.50556865  1
  O  O240  1  0.86264070  0.74210727  0.00725430  1
  O  O241  1  0.86669950  0.74936256  0.50635446  1
  O  O242  1  0.13007501  0.24558117  0.49566525  1
  O  O243  1  0.13530495  0.25736508  0.99169380  1
  O  O244  1  0.12648577  0.73910984  0.49200712  1
  O  O245  1  0.12923901  0.74257492  0.99335266  1
  O  O246  1  0.62953703  0.24453677  0.49479369  1
  O  O247  1  0.63094089  0.24146423  1.00170232  1
  O  O248  1  0.63483270  0.74337597  0.49888237  1
  O  O249  1  0.63332980  0.74677654  0.98982409  1
  O  O250  1  0.49203713  0.24803758  0.13159686  1
  O  O251  1  0.49416535  0.24324815  0.63011491  1
  O  O252  1  0.49559209  0.74559109  0.12790220  1
  O  O253  1  0.48726841  0.74972088  0.62801339  1
  O  O254  1  0.99162900  0.24395650  0.12844053  1
  O  O255  1  0.99265465  0.24365740  0.62700582  1
  O  O256  1  0.98961348  0.74233777  0.11794519  1
  O  O257  1  0.99656594  0.74250435  0.62997110  1
  O  O258  1  0.00506564  0.25569652  0.36996325  1
  O  O259  1  0.00678539  0.25809331  0.87736570  1
  O  O260  1  0.01413922  0.74755464  0.37594594  1
  O  O261  1  0.00279948  0.75745057  0.87227974  1
  O  O262  1  0.50721339  0.25028514  0.36777042  1
  O  O263  1  0.50326785  0.25208394  0.86674143  1
  O  O264  1  0.50080016  0.75775941  0.36770033  1
  O  O265  1  0.50880053  0.75770269  0.87881273  1
  O  O266  1  0.24421863  0.13032391  0.49592864  1
  O  O267  1  0.25473802  0.13836208  1.00106268  1
  O  O268  1  0.24042081  0.62657464  0.49506667  1
  O  O269  1  0.24485589  0.62994649  0.99596867  1
  O  O270  1  0.74421207  0.13205980  0.49328102  1
  O  O271  1  0.74243687  0.13149813  0.99648662  1
  O  O272  1  0.74357754  0.63470253  0.49970798  1
  O  O273  1  0.74581264  0.63296996  0.98933842  1
  O  O274  1  0.25478457  0.36728996  0.00652229  1
  O  O275  1  0.25463790  0.36855096  0.50574225  1
  O  O276  1  0.25404418  0.86891816  0.00864397  1
  O  O277  1  0.25691096  0.87435650  0.50795900  1
  O  O278  1  0.74772204  0.36088994  -0.00750421  1
  O  O279  1  0.75483581  0.36963719  0.50465622  1
  O  O280  1  0.74326339  0.86170309  0.00736294  1
  O  O281  1  0.75002888  0.86588755  0.50603919  1
  O  O282  1  0.12997782  0.49536255  0.24499011  1
  O  O283  1  0.13270464  0.49273147  0.74833142  1
  O  O284  1  0.12040325  0.99962605  0.25510968  1
  O  O285  1  0.12907423  0.99444933  0.74458542  1
  O  O286  1  0.63107604  0.49383389  0.24440710  1
  O  O287  1  0.63404307  0.49172415  0.74932285  1
  O  O288  1  0.61789648  0.98612478  0.24672404  1
  O  O289  1  0.63160123  0.99991377  0.74407308  1
  O  O290  1  0.37457175  0.00586450  0.25735674  1
  O  O291  1  0.36844179  0.00561326  0.75104903  1
  O  O292  1  0.36946637  0.49901276  0.25922995  1
  O  O293  1  0.36960835  0.50998675  0.75072613  1
  O  O294  1  0.87621246  0.01775672  0.25228279  1
  O  O295  1  0.86928136  0.00595440  0.75889383  1
  O  O296  1  0.86758562  0.50394124  0.25110415  1
  O  O297  1  0.86102890  0.50044643  0.75406381  1
  O  O298  1  0.12020996  0.37103439  0.37069597  1
  O  O299  1  0.11633466  0.36690597  0.87081387  1
  O  O300  1  0.12342542  0.85886156  0.38285042  1
  O  O301  1  0.11596989  0.86835969  0.86945949  1
  O  O302  1  0.62464319  0.36907869  0.36457461  1
  O  O303  1  0.62197463  0.37250353  0.86078231  1
  O  O304  1  0.61937143  0.87380001  0.36600894  1
  O  O305  1  0.61703849  0.86696384  0.87579934  1
  O  O306  1  0.37582658  0.13073089  0.13224672  1
  O  O307  1  0.38042628  0.12990013  0.63007077  1
  O  O308  1  0.38091935  0.63231123  0.12767559  1
  O  O309  1  0.37253828  0.63354376  0.63345242  1
  O  O310  1  0.88150610  0.13589692  0.13240466  1
  O  O311  1  0.87822857  0.13059061  0.63052101  1
  O  O312  1  0.87897154  0.63175168  0.12910975  1
  O  O313  1  0.88544338  0.63047705  0.62612145  1
  O  O314  1  0.25349611  0.25549324  0.11889611  1
  O  O315  1  0.25501406  0.25405841  0.62001008  1
  O  O316  1  0.25373745  0.75855479  0.12023821  1
  O  O317  1  0.26026316  0.75623720  0.62470729  1
  O  O318  1  0.75979730  0.24440839  0.11472465  1
  O  O319  1  0.75546006  0.25501081  0.61933838  1
  O  O320  1  0.75370634  0.75258768  0.11553400  1
  O  O321  1  0.75534090  0.75513796  0.61708652  1
  O  O322  1  0.24447577  0.24478525  0.38098987  1
  O  O323  1  0.24115737  0.24947872  0.88453049  1
  O  O324  1  0.23889502  0.74424486  0.37669795  1
  O  O325  1  0.24358373  0.74549479  0.88100698  1
  O  O326  1  0.74369425  0.24256310  0.38076350  1
  O  O327  1  0.74798098  0.24155827  0.88494075  1
  O  O328  1  0.75166115  0.75065316  0.38685406  1
  O  O329  1  0.74488507  0.74604265  0.87969076  1
  O  O330  1  -0.00560521  0.11806288  0.00958102  1
  O  O331  1  0.00484675  0.11887462  0.50634277  1
  O  O332  1  0.00604072  0.61845274  0.00308627  1
  O  O333  1  0.00743839  0.62424852  0.51028252  1
  O  O334  1  0.50807095  0.11733444  -0.00055660  1
  O  O335  1  0.50500343  0.11947052  0.50524793  1
  O  O336  1  0.50131759  0.61481411  0.00621451  1
  O  O337  1  0.51250500  0.62544951  0.50045736  1
  O  O338  1  0.49211407  0.37661956  0.49626518  1
  O  O339  1  0.49441279  0.38371777  1.00107150  1
  O  O340  1  0.49481202  0.87989153  0.49415265  1
  O  O341  1  0.49705968  0.88102857  0.99399963  1
  O  O342  1  0.99357572  0.37672389  0.49385697  1
  O  O343  1  1.00056636  0.38105723  0.99105254  1
  O  O344  1  1.00121395  0.88863906  0.50205984  1
  O  O345  1  1.00496865  0.88526819  0.98657705  1
  O  O346  1  0.48763728  0.49943553  0.37558652  1
  O  O347  1  0.50030718  0.49908762  0.88880973  1
  O  O348  1  0.49341000  0.99406064  0.38161254  1
  O  O349  1  0.50095093  0.99000021  0.88581284  1
  O  O350  1  0.99287497  0.49336902  0.37449453  1
  O  O351  1  0.99996514  0.49089205  0.88025349  1
  O  O352  1  0.99692734  1.00352905  0.38885277  1
  O  O353  1  0.99304361  0.99473277  0.87941329  1
  O  O354  1  0.00205830  0.01046807  0.11085819  1
  O  O355  1  0.00496541  0.00592802  0.61987663  1
  O  O356  1  0.00604368  0.50551033  0.11975419  1
  O  O357  1  0.00151133  0.51157698  0.62559714  1
  O  O358  1  0.50172195  -0.00088908  0.11173800  1
  O  O359  1  0.50458982  0.00467069  0.61984576  1
  O  O360  1  0.50698471  0.50408599  0.11841876  1
  O  O361  1  0.50393421  0.50523444  0.61911471  1
  O  O362  1  0.24351719  0.37921551  0.24433319  1
  O  O363  1  0.24603196  0.37912143  0.74549283  1
  O  O364  1  0.25173647  0.87519232  0.23397289  1
  O  O365  1  0.24423058  0.87982132  0.74545921  1
  O  O366  1  0.73975674  0.38459694  0.25280631  1
  O  O367  1  0.74302776  0.38080805  0.74688289  1
  O  O368  1  0.73998875  0.86884725  0.23829048  1
  O  O369  1  0.74780138  0.88188098  0.74316284  1
  O  O370  1  0.25634319  0.12284072  0.25756159  1
  O  O371  1  0.25572890  0.11779826  0.75049164  1
  O  O372  1  0.25243527  0.61677145  0.25618082  1
  O  O373  1  0.25728656  0.62053826  0.75527970  1
  O  O374  1  0.75695958  0.13311177  0.26021615  1
  O  O375  1  0.75422902  0.11897868  0.75617285  1
  O  O376  1  0.75475786  0.61446439  0.25046238  1
  O  O377  1  0.74877104  0.61699612  0.75721473  1
  O  O378  1  0.36889722  0.11940317  0.37103690  1
  O  O379  1  0.37060245  0.12246395  0.86666092  1
  O  O380  1  0.36840923  0.61584832  0.37526482  1
  O  O381  1  0.36863741  0.62546617  0.86642489  1
  O  O382  1  0.86571941  0.12855621  0.36649162  1
  O  O383  1  0.87022017  0.11712917  0.86996466  1
  O  O384  1  0.87437262  0.61806873  0.36683308  1
  O  O385  1  0.86208739  0.62410706  0.87131362  1
  O  O386  1  0.12877798  0.38072426  0.13118472  1
  O  O387  1  0.13098075  0.37453062  0.63181354  1
  O  O388  1  0.13529481  0.87105699  0.12091269  1
  O  O389  1  0.12998793  0.87938479  0.63099733  1
  O  O390  1  0.61981686  0.38648667  0.13551600  1
  O  O391  1  0.63214838  0.37465234  0.63488884  1
  O  O392  1  0.63427888  0.87656828  0.13138966  1
  O  O393  1  0.63056876  0.88159800  0.62651111  1
  O  O394  1  0.11915890  0.25710096  0.25702871  1
  O  O395  1  0.12339363  0.25742999  0.76058910  1
  O  O396  1  0.12469898  0.74222028  0.26618189  1
  O  O397  1  0.11959303  0.75511644  0.75575507  1
  O  O398  1  0.62154433  0.25761491  0.25208822  1
  O  O399  1  0.62003424  0.25776623  0.74987667  1
  O  O400  1  0.61892342  0.76003685  0.24979735  1
  O  O401  1  0.62376516  0.75203125  0.76270233  1
  O  O402  1  0.37892246  0.24409799  0.24574473  1
  O  O403  1  0.37934920  0.24498602  0.74372388  1
  O  O404  1  0.38252952  0.74900496  0.24395294  1
  O  O405  1  0.37459914  0.74150089  0.74267534  1
  O  O406  1  0.87937850  0.24691034  0.24179453  1
  O  O407  1  0.87472136  0.24319164  0.74414825  1
  O  O408  1  0.87280446  0.74067839  0.23858315  1
  O  O409  1  0.88185006  0.74697138  0.74312655  1
  O  O410  1  0.37282475  0.49409683  0.48965828  1
  O  O411  1  0.38418997  0.49432683  1.00179145  1
  O  O412  1  0.38021430  0.99440413  0.49480031  1
  O  O413  1  0.38466709  0.99426510  0.99823481  1
  O  O414  1  0.87446638  0.49334042  0.49260630  1
  O  O415  1  0.88123082  0.49759676  0.99819705  1
  O  O416  1  0.88569681  1.00021619  0.50087534  1
  O  O417  1  0.88145017  1.00462650  0.98570115  1
  O  O418  1  0.11424080  0.00474588  -0.01186069  1
  O  O419  1  0.11783868  0.00658034  0.50651804  1
  O  O420  1  0.12082286  0.50479800  0.00595906  1
  O  O421  1  0.12226670  0.51218176  0.50208403  1
  O  O422  1  0.61802006  0.00857114  0.00162390  1
  O  O423  1  0.61843104  0.00567433  0.50567666  1
  O  O424  1  0.61719274  0.49865897  0.00878033  1
  O  O425  1  0.62807113  0.51111066  0.49979681  1
  O  O426  1  0.36844615  0.36864363  0.12095903  1
  O  O427  1  0.36878969  0.36818899  0.61981301  1
  O  O428  1  0.36655528  0.86866954  0.11926551  1
  O  O429  1  0.37084577  0.86765723  0.62096706  1
  O  O430  1  0.88151432  0.36074588  0.12297129  1
  O  O431  1  0.86996837  0.37002045  0.61994364  1
  O  O432  1  0.86256561  0.85704371  0.12547079  1
  O  O433  1  0.86886931  0.86843162  0.62260042  1
  O  O434  1  0.12980192  0.13383992  0.38276098  1
  O  O435  1  0.12450418  0.13943287  0.86910865  1
  O  O436  1  0.12831813  0.63078692  0.38380417  1
  O  O437  1  0.12989825  0.63040143  0.88011197  1
  O  O438  1  0.63147729  0.12991003  0.37894126  1
  O  O439  1  0.63099728  0.12490819  0.88638118  1
  O  O440  1  0.62981247  0.62934586  0.38441703  1
  O  O441  1  0.63412518  0.63385675  0.87517258  1
