# generated using pymatgen
data_V93Zn93O256
_symmetry_space_group_name_H-M   'P 1'
_cell_length_a   17.05008515
_cell_length_b   17.05123666
_cell_length_c   17.04998863
_cell_angle_alpha   89.96630339
_cell_angle_beta   90.04793520
_cell_angle_gamma   90.02525662
_symmetry_Int_Tables_number   1
_chemical_formula_structural   V93Zn93O256
_chemical_formula_sum   'V93 Zn93 O256'
_cell_volume   4956.85550414
_cell_formula_units_Z   1
loop_
 _symmetry_equiv_pos_site_id
 _symmetry_equiv_pos_as_xyz
  1  'x, y, z'
loop_
 _atom_site_type_symbol
 _atom_site_label
 _atom_site_symmetry_multiplicity
 _atom_site_fract_x
 _atom_site_fract_y
 _atom_site_fract_z
 _atom_site_occupancy
  V  V0  1  -0.00201234  0.37303833  0.87091883  1
  V  V1  1  0.12521631  0.12498757  0.49893077  1
  V  V2  1  0.24767081  0.37408639  0.12774946  1
  V  V3  1  0.74970775  0.75102150  0.00127789  1
  V  V4  1  0.87787043  0.13259400  0.74988445  1
  V  V5  1  0.25018869  0.87384956  0.62536621  1
  V  V6  1  0.12095418  0.74950274  0.36848756  1
  V  V7  1  0.37461494  -0.00150943  0.87570715  1
  V  V8  1  -0.00002389  0.62496097  0.62567425  1
  V  V9  1  0.12491928  0.25302269  0.36741946  1
  V  V10  1  0.49481058  0.49958570  -0.00710566  1
  V  V11  1  0.62581112  0.87530375  0.74970272  1
  V  V12  1  0.25340524  0.61877448  0.87623574  1
  V  V13  1  0.50013631  0.62457978  0.62547583  1
  V  V14  1  0.13233232  0.87927984  0.25059129  1
  V  V15  1  0.74965519  0.37699804  0.12550817  1
  V  V16  1  0.62564749  0.63133506  0.49645067  1
  V  V17  1  0.37612691  0.87490269  0.49908273  1
  V  V18  1  0.49999043  0.49987208  0.49973599  1
  V  V19  1  0.75086213  0.00138224  0.24997845  1
  V  V20  1  0.37413981  0.37385270  0.49931280  1
  V  V21  1  0.75024065  0.50092625  0.25079476  1
  V  V22  1  0.75059745  0.62662779  0.87602458  1
  V  V23  1  0.50587538  0.74932022  0.25379764  1
  V  V24  1  0.24908242  0.49704827  0.25005953  1
  V  V25  1  0.62709792  0.49678560  0.62691690  1
  V  V26  1  0.24922732  0.24808775  0.49692279  1
  V  V27  1  0.74925398  0.12585425  0.37455790  1
  V  V28  1  0.87478717  0.50047229  0.37609366  1
  V  V29  1  0.62562060  0.12582735  -0.00090290  1
  V  V30  1  0.37367625  0.75118348  0.12639172  1
  V  V31  1  0.36862404  -0.00140778  0.37081694  1
  V  V32  1  0.12453895  0.49919255  0.62495074  1
  V  V33  1  0.12460796  0.74828553  0.87593876  1
  V  V34  1  0.00016736  0.75017141  0.75073612  1
  V  V35  1  0.00118877  -0.00002339  0.00186014  1
  V  V36  1  0.00069529  0.62933131  0.13310184  1
  V  V37  1  -0.00015663  0.13233024  0.62832844  1
  V  V38  1  0.87613826  0.87498646  0.49997705  1
  V  V39  1  0.12454612  0.62563346  0.00198709  1
  V  V40  1  0.62505019  0.24919760  0.37521798  1
  V  V41  1  0.87510922  0.75083342  0.62499463  1
  V  V42  1  0.37419934  0.25221471  0.11920629  1
  V  V43  1  0.00306784  0.37548463  0.36860105  1
  V  V44  1  0.37378052  0.62079704  0.75261842  1
  V  V45  1  0.24964661  -0.00169914  0.75046823  1
  V  V46  1  0.12478014  0.62489960  0.50009857  1
  V  V47  1  0.75016973  0.87664625  0.62578452  1
  V  V48  1  0.62563955  0.74925662  0.87709878  1
  V  V49  1  0.24991881  0.62379516  0.37562661  1
  V  V50  1  0.25017234  0.74900730  0.50006771  1
  V  V51  1  0.25264332  0.49779079  0.75234623  1
  V  V52  1  0.75000484  0.12537729  0.87529218  1
  V  V53  1  0.87774007  0.12691704  0.25030702  1
  V  V54  1  0.00022262  0.87533646  0.87521471  1
  V  V55  1  0.12407667  0.49535929  0.12988868  1
  V  V56  1  0.75181556  0.87505833  0.12548134  1
  V  V57  1  0.87530869  0.62561057  0.75177277  1
  V  V58  1  0.87956445  0.75105829  0.13122787  1
  V  V59  1  0.75232771  0.25169020  0.50238205  1
  V  V60  1  0.12533073  0.12534706  -0.00106681  1
  V  V61  1  0.49936062  0.87443147  0.87623944  1
  V  V62  1  0.24815841  0.12465321  0.87398786  1
  V  V63  1  0.37474310  0.12423219  0.74796283  1
  V  V64  1  0.11944060  0.24873647  0.86918348  1
  V  V65  1  0.12506682  -0.00037338  0.62445360  1
  V  V66  1  0.37462346  0.24795001  0.62399718  1
  V  V67  1  0.62633957  0.87385758  0.25318571  1
  V  V68  1  0.12254806  0.37227747  0.74868607  1
  V  V69  1  0.49933086  0.74890153  0.75186208  1
  V  V70  1  0.87419243  0.50068411  0.87676465  1
  V  V71  1  0.62530575  -0.00004798  0.12544032  1
  V  V72  1  0.87630017  0.25197274  0.12490543  1
  V  V73  1  0.62552242  0.37602403  0.24938960  1
  V  V74  1  0.87557341  0.00101287  0.87503618  1
  V  V75  1  0.74826887  0.25052338  0.00024654  1
  V  V76  1  0.12479407  0.87407622  0.74992185  1
  V  V77  1  0.37666565  0.62520007  0.25179960  1
  V  V78  1  -0.00098845  0.49976882  0.49968260  1
  V  V79  1  0.49966496  -0.00090467  -0.00026348  1
  V  V80  1  0.37412895  0.49892285  0.37471038  1
  V  V81  1  0.49963899  0.25036666  0.24882152  1
  V  V82  1  0.36917783  0.11994992  0.24966724  1
  V  V83  1  0.37481256  0.74929284  0.62586896  1
  V  V84  1  0.74708261  0.63194929  0.37483160  1
  V  V85  1  0.00013468  0.87235887  0.36947100  1
  V  V86  1  0.24880748  0.37395006  0.62398676  1
  V  V87  1  0.50117849  0.12270615  0.62286116  1
  V  V88  1  0.49904942  0.37428002  0.37365738  1
  V  V89  1  0.00055762  -0.00078688  0.49958084  1
  V  V90  1  0.13254524  0.00106231  0.12964364  1
  V  V91  1  0.50523325  0.87275596  0.37591814  1
  V  V92  1  0.50013821  0.12488153  0.12453984  1
  Zn  Zn93  1  0.87405781  0.37587135  -0.00119259  1
  Zn  Zn94  1  0.49362868  0.37243304  0.86900803  1
  Zn  Zn95  1  0.37277530  0.87432494  0.00202252  1
  Zn  Zn96  1  0.75369293  0.37538229  0.62734358  1
  Zn  Zn97  1  0.50273163  -0.00029249  0.49843102  1
  Zn  Zn98  1  0.00240552  0.12734526  0.12609570  1
  Zn  Zn99  1  0.25175557  0.87692935  0.12518225  1
  Zn  Zn100  1  0.24873269  0.25406119  -0.00331796  1
  Zn  Zn101  1  0.74917331  0.00167700  0.75066337  1
  Zn  Zn102  1  0.50306700  0.62265655  0.12513575  1
  Zn  Zn103  1  0.62534887  0.37195527  0.75386232  1
  Zn  Zn104  1  0.00596231  0.25565606  0.24482017  1
  Zn  Zn105  1  0.74658735  0.75378978  0.49575205  1
  Zn  Zn106  1  0.87565127  0.87554505  0.00110905  1
  Zn  Zn107  1  -0.00131594  0.49881721  0.00255267  1
  Zn  Zn108  1  0.74845432  0.49796741  0.75056202  1
  Zn  Zn109  1  0.50275220  0.25151162  0.75117246  1
  Zn  Zn110  1  0.87574806  0.37487958  0.50256580  1
  Zn  Zn111  1  0.62591420  0.12247468  0.50076071  1
  Zn  Zn112  1  0.62478950  0.62321026  0.00353571  1
  Zn  Zn113  1  0.87742464  0.62869781  0.25371744  1
  Zn  Zn114  1  0.24552619  0.12032055  0.37064354  1
  Zn  Zn115  1  0.36581423  0.39117857  -0.01517239  1
  Zn  Zn116  1  0.62391051  -0.00009901  0.62394398  1
  Zn  Zn117  1  0.87581786  0.00005977  0.37427187  1
  Zn  Zn118  1  0.62224922  0.25324486  0.87260058  1
  Zn  Zn119  1  0.87792856  0.25467469  0.62749542  1
  Zn  Zn120  1  0.62352999  0.50329068  0.12443359  1
  Zn  Zn121  1  0.25187872  0.75120915  0.00111529  1
  Zn  Zn122  1  0.18907512  0.18611500  0.18489285  1
  Zn  Zn123  1  0.18764546  0.18741819  0.68704162  1
  Zn  Zn124  1  0.18918443  0.68655188  0.18974452  1
  Zn  Zn125  1  0.18752355  0.68617821  0.68899745  1
  Zn  Zn126  1  0.68825661  0.18902568  0.18692744  1
  Zn  Zn127  1  0.68750197  0.18757848  0.68896920  1
  Zn  Zn128  1  0.68834577  0.68695649  0.18699402  1
  Zn  Zn129  1  0.68795376  0.68712680  0.68762508  1
  Zn  Zn130  1  0.31141470  0.31000546  0.30911685  1
  Zn  Zn131  1  0.31240459  0.31006532  0.81184632  1
  Zn  Zn132  1  0.31334321  0.81179724  0.31255015  1
  Zn  Zn133  1  0.31230131  0.80892666  0.81500878  1
  Zn  Zn134  1  0.81410976  0.31446446  0.31469964  1
  Zn  Zn135  1  0.80618548  0.31433088  0.81115633  1
  Zn  Zn136  1  0.81394679  0.81343435  0.31141630  1
  Zn  Zn137  1  0.81319446  0.81366270  0.81321244  1
  Zn  Zn138  1  0.18583989  0.43558913  0.43704515  1
  Zn  Zn139  1  0.18480025  0.43687044  0.94020069  1
  Zn  Zn140  1  0.18787621  0.93636148  0.43832370  1
  Zn  Zn141  1  0.18899192  0.93543487  0.94072808  1
  Zn  Zn142  1  0.68752526  0.43871211  0.43839799  1
  Zn  Zn143  1  0.68177528  0.43692797  0.93858090  1
  Zn  Zn144  1  0.68803954  0.94155923  0.43978062  1
  Zn  Zn145  1  0.68794225  0.93755983  0.93790391  1
  Zn  Zn146  1  0.31271821  0.06501269  0.05956506  1
  Zn  Zn147  1  0.31388182  0.06050546  0.55863317  1
  Zn  Zn148  1  0.31349287  0.56597560  0.06561213  1
  Zn  Zn149  1  0.31254746  0.56106593  0.56454712  1
  Zn  Zn150  1  0.81329420  0.06381361  0.06299730  1
  Zn  Zn151  1  0.81476623  0.06350028  0.56124440  1
  Zn  Zn152  1  0.81219060  0.56467268  0.06270505  1
  Zn  Zn153  1  0.81142501  0.56354866  0.56128633  1
  Zn  Zn154  1  0.43738742  0.43824415  0.18185379  1
  Zn  Zn155  1  0.43785559  0.43591514  0.68985413  1
  Zn  Zn156  1  0.43805388  0.93627416  0.18840580  1
  Zn  Zn157  1  0.43826809  0.93784428  0.68858030  1
  Zn  Zn158  1  0.93596600  0.44103991  0.18898258  1
  Zn  Zn159  1  0.93552588  0.43665945  0.68893663  1
  Zn  Zn160  1  0.94070467  0.93812173  0.18807513  1
  Zn  Zn161  1  0.93645667  0.94210099  0.68818076  1
  Zn  Zn162  1  0.06137918  0.06259547  0.31275658  1
  Zn  Zn163  1  0.06082526  0.06213804  0.81097246  1
  Zn  Zn164  1  0.06297493  0.56094039  0.31197376  1
  Zn  Zn165  1  0.06273575  0.55930834  0.81266584  1
  Zn  Zn166  1  0.55991006  0.06114049  0.31264269  1
  Zn  Zn167  1  0.56329588  0.06295784  0.81035408  1
  Zn  Zn168  1  0.56439184  0.56189592  0.31269525  1
  Zn  Zn169  1  0.56323152  0.56248000  0.81416700  1
  Zn  Zn170  1  0.43719413  0.18544301  0.43704933  1
  Zn  Zn171  1  0.43808004  0.18705790  0.93434743  1
  Zn  Zn172  1  0.43846866  0.68775116  0.43760788  1
  Zn  Zn173  1  0.43807060  0.68393847  0.94064935  1
  Zn  Zn174  1  0.93856730  0.18868430  0.43770383  1
  Zn  Zn175  1  0.93729936  0.18730546  0.93788827  1
  Zn  Zn176  1  0.93548878  0.68816115  0.43869380  1
  Zn  Zn177  1  0.93733043  0.68807417  0.94347993  1
  Zn  Zn178  1  0.06134972  0.31353089  0.05633771  1
  Zn  Zn179  1  0.06318018  0.31349443  0.55580003  1
  Zn  Zn180  1  0.06323593  0.81369233  0.06475526  1
  Zn  Zn181  1  0.06224033  0.81146369  0.56026333  1
  Zn  Zn182  1  0.56184734  0.31773634  0.05870051  1
  Zn  Zn183  1  0.56267879  0.30962932  0.56224866  1
  Zn  Zn184  1  0.56215572  0.81204445  0.06475976  1
  Zn  Zn185  1  0.56234259  0.81243528  0.56378946  1
  O  O186  1  0.12274333  0.11800551  0.11952134  1
  O  O187  1  0.11857418  0.11921173  0.62059980  1
  O  O188  1  0.12052125  0.62024040  0.11981138  1
  O  O189  1  0.11994482  0.61997762  0.61995775  1
  O  O190  1  0.62006177  0.11935886  0.12104970  1
  O  O191  1  0.61234934  0.12286390  0.62470397  1
  O  O192  1  0.62208423  0.62310173  0.12259366  1
  O  O193  1  0.61945919  0.61857064  0.61727562  1
  O  O194  1  0.37878599  0.37925290  0.37905173  1
  O  O195  1  0.37741902  0.37086743  0.87584821  1
  O  O196  1  0.38213486  0.88073176  0.37789563  1
  O  O197  1  0.38156799  0.88020127  0.87529285  1
  O  O198  1  0.88433632  0.38266630  0.37857547  1
  O  O199  1  0.88170186  0.38312438  0.87321197  1
  O  O200  1  0.88541297  0.87426738  0.37938691  1
  O  O201  1  0.88313459  0.88178471  0.87709455  1
  O  O202  1  0.26388127  -0.00053779  0.37795995  1
  O  O203  1  0.25337544  0.00412141  0.86922753  1
  O  O204  1  0.25382294  0.50381410  0.37093003  1
  O  O205  1  0.23984669  0.51156649  0.86899843  1
  O  O206  1  0.75339424  0.00657257  0.36701680  1
  O  O207  1  0.75858631  0.00688988  0.87675540  1
  O  O208  1  0.75611627  0.50834959  0.37159942  1
  O  O209  1  0.76016600  0.50713510  0.87552242  1
  O  O210  1  0.24375318  0.49382645  0.12990021  1
  O  O211  1  0.24272159  0.49335299  0.62897800  1
  O  O212  1  0.23555717  0.99948963  0.11821810  1
  O  O213  1  0.24505155  0.99318579  0.62974528  1
  O  O214  1  0.75171769  0.49389087  0.13261103  1
  O  O215  1  0.73907362  0.50145024  0.62499047  1
  O  O216  1  0.74538893  0.99532857  0.13023942  1
  O  O217  1  0.75226236  0.98570219  0.62573800  1
  O  O218  1  -0.00363298  0.37532372  0.26418189  1
  O  O219  1  0.00710664  0.38084228  0.76276766  1
  O  O220  1  0.01022915  0.87933581  0.26352981  1
  O  O221  1  0.00560145  0.87029996  0.75445997  1
  O  O222  1  0.50355811  0.36948888  0.25480050  1
  O  O223  1  0.50514860  0.37092326  0.74866880  1
  O  O224  1  0.50559463  0.86832742  0.25788317  1
  O  O225  1  0.50468251  0.86808506  0.75560075  1
  O  O226  1  0.49197409  0.13108144  0.24348295  1
  O  O227  1  0.49104128  0.12271325  0.73900704  1
  O  O228  1  0.49485724  0.63520073  0.25558856  1
  O  O229  1  0.49364534  0.63003608  0.74553962  1
  O  O230  1  0.98806282  0.12828577  0.24851476  1
  O  O231  1  0.99207093  0.11883374  0.73880151  1
  O  O232  1  1.00002587  0.62258291  0.23694995  1
  O  O233  1  0.99641719  0.63061496  0.74521137  1
  O  O234  1  0.37172482  0.24273523  0.01484640  1
  O  O235  1  0.36858323  0.25512356  0.50287632  1
  O  O236  1  0.37624654  0.74973051  0.01447277  1
  O  O237  1  0.36925587  0.75406306  0.50561751  1
  O  O238  1  0.86922829  0.24897230  0.01122729  1
  O  O239  1  0.86411661  0.25069394  0.49995289  1
  O  O240  1  0.86886426  0.75348118  0.01100803  1
  O  O241  1  0.87426981  0.75735359  0.50846053  1
  O  O242  1  0.13036265  0.24380194  0.48977537  1
  O  O243  1  0.12564749  0.24321746  0.98867002  1
  O  O244  1  0.13114413  0.74472021  0.49139662  1
  O  O245  1  0.12511209  0.73927305  0.99623884  1
  O  O246  1  0.63379170  0.24718616  0.49230457  1
  O  O247  1  0.63225585  0.24167064  1.00355195  1
  O  O248  1  0.62536744  0.73507005  0.50527462  1
  O  O249  1  0.63170756  0.75102213  0.99379165  1
  O  O250  1  0.49188597  0.24567451  0.12861561  1
  O  O251  1  0.49141189  0.23913112  0.62286233  1
  O  O252  1  0.49121455  0.75118971  0.13800989  1
  O  O253  1  0.49398241  0.74443067  0.63180613  1
  O  O254  1  0.99074589  0.25058788  0.12556071  1
  O  O255  1  1.00109940  0.23527361  0.61631394  1
  O  O256  1  0.99148613  0.74132983  0.11869947  1
  O  O257  1  0.99616693  0.74476078  0.63066901  1
  O  O258  1  0.00795607  0.25870884  0.37449871  1
  O  O259  1  0.00907974  0.25871644  0.87911545  1
  O  O260  1  0.01140567  0.75933982  0.38320234  1
  O  O261  1  0.00488449  0.75445108  0.87073692  1
  O  O262  1  0.50357509  0.25525643  0.36905786  1
  O  O263  1  0.50371526  0.24884993  0.87068584  1
  O  O264  1  0.49181585  0.76162633  0.36509490  1
  O  O265  1  0.50447847  0.75428660  0.87042995  1
  O  O266  1  0.24328201  0.13057429  0.49748528  1
  O  O267  1  0.24161577  0.12617536  0.99111035  1
  O  O268  1  0.24444630  0.62885358  0.49534480  1
  O  O269  1  0.24082593  0.62559730  0.99362188  1
  O  O270  1  0.75045367  0.13298016  0.49229139  1
  O  O271  1  0.74514269  0.13006147  0.99642695  1
  O  O272  1  0.74222789  0.62765243  0.49221975  1
  O  O273  1  0.74975624  0.63390958  0.99301301  1
  O  O274  1  0.25155857  0.37501181  0.01237700  1
  O  O275  1  0.25461015  0.36943638  0.50467235  1
  O  O276  1  0.25391649  0.86839456  0.00467530  1
  O  O277  1  0.25536971  0.86822614  0.50598702  1
  O  O278  1  0.75258118  0.36815308  0.00757452  1
  O  O279  1  0.75150599  0.36397615  0.49952410  1
  O  O280  1  0.75236346  0.87002826  0.00822010  1
  O  O281  1  0.75613880  0.87288516  0.50726188  1
  O  O282  1  0.13271798  0.50670246  0.23702548  1
  O  O283  1  0.13107583  0.49347450  0.74316317  1
  O  O284  1  0.11939978  0.99337451  0.24015890  1
  O  O285  1  0.13015647  0.99334875  0.74455270  1
  O  O286  1  0.63257715  0.49192652  0.25108404  1
  O  O287  1  0.62489645  0.50421630  0.73589811  1
  O  O288  1  0.63058643  0.99506493  0.24402719  1
  O  O289  1  0.62808017  0.99013582  0.74625798  1
  O  O290  1  0.38204283  0.00950409  0.25768972  1
  O  O291  1  0.36784585  0.00338580  0.75580444  1
  O  O292  1  0.36955263  0.50467594  0.25624150  1
  O  O293  1  0.36442411  0.50913686  0.74016963  1
  O  O294  1  0.87032005  0.01079480  0.24854537  1
  O  O295  1  0.87414484  0.01023157  0.75812560  1
  O  O296  1  0.86766805  0.50400547  0.25855631  1
  O  O297  1  0.87604510  0.50828455  0.76172558  1
  O  O298  1  0.11624679  0.36483990  0.37963061  1
  O  O299  1  0.11827364  0.36814211  0.87056776  1
  O  O300  1  0.11992267  0.86868143  0.37051886  1
  O  O301  1  0.12005977  0.86921482  0.86900198  1
  O  O302  1  0.61796799  0.36985608  0.36957741  1
  O  O303  1  0.61717899  0.37193512  0.87347099  1
  O  O304  1  0.61305017  0.88208725  0.36968033  1
  O  O305  1  0.61949416  0.86945420  0.86954314  1
  O  O306  1  0.37943207  0.13027856  0.13173326  1
  O  O307  1  0.38001038  0.12789196  0.62775351  1
  O  O308  1  0.37713692  0.63500335  0.13589906  1
  O  O309  1  0.37995410  0.63086619  0.62967536  1
  O  O310  1  0.87542695  0.13504948  0.13345106  1
  O  O311  1  0.88398732  0.12488661  0.63293712  1
  O  O312  1  0.88446109  0.63280952  0.12561472  1
  O  O313  1  0.88108561  0.63034482  0.63071572  1
  O  O314  1  0.25561149  0.25841695  0.12380625  1
  O  O315  1  0.25310521  0.25477611  0.61699912  1
  O  O316  1  0.26195872  0.75010216  0.12735234  1
  O  O317  1  0.25449573  0.75415384  0.62053837  1
  O  O318  1  0.75899275  0.25574232  0.12109499  1
  O  O319  1  0.75124524  0.24887297  0.61164231  1
  O  O320  1  0.75839601  0.75619512  0.12104204  1
  O  O321  1  0.75680873  0.76089873  0.62470848  1
  O  O322  1  0.24163726  0.24947701  0.37929824  1
  O  O323  1  0.23752891  0.24243705  0.87597427  1
  O  O324  1  0.24257826  0.74388175  0.38077447  1
  O  O325  1  0.24123458  0.73746183  0.87486065  1
  O  O326  1  0.74469336  0.24560016  0.38072752  1
  O  O327  1  0.75098033  0.24199022  0.88479396  1
  O  O328  1  0.75590411  0.73654875  0.37538927  1
  O  O329  1  0.74620039  0.74709187  0.88125763  1
  O  O330  1  0.00633204  0.11448709  0.00025892  1
  O  O331  1  0.00501552  0.11825198  0.50666184  1
  O  O332  1  0.01067833  0.62264708  0.00978722  1
  O  O333  1  0.00622281  0.62044925  0.50583748  1
  O  O334  1  0.50546287  0.11815579  0.00644417  1
  O  O335  1  0.49986556  0.12319138  0.51020511  1
  O  O336  1  0.50313538  0.61473707  0.00313755  1
  O  O337  1  0.50605307  0.62031213  0.50382084  1
  O  O338  1  0.49337154  0.37945359  0.49329715  1
  O  O339  1  0.49370945  0.39008119  1.00145847  1
  O  O340  1  0.49402256  0.87130930  0.49093318  1
  O  O341  1  0.49883595  0.88179740  0.99407658  1
  O  O342  1  0.99956717  0.38310121  0.48889297  1
  O  O343  1  0.99652886  0.37909995  0.98556546  1
  O  O344  1  0.99698205  0.87976736  0.49185532  1
  O  O345  1  1.00174531  0.88529383  0.99414462  1
  O  O346  1  0.49331138  0.49408331  0.37985833  1
  O  O347  1  0.50174202  0.50278998  0.88983648  1
  O  O348  1  0.48976655  0.98866698  0.37468101  1
  O  O349  1  0.49433071  0.99458859  0.87981418  1
  O  O350  1  0.99684912  0.49487152  0.37936793  1
  O  O351  1  0.99192498  0.49300499  0.87733882  1
  O  O352  1  1.00001212  0.98943906  0.38170869  1
  O  O353  1  0.99705564  0.99534720  0.88351896  1
  O  O354  1  0.00934141  0.00093038  0.11534025  1
  O  O355  1  0.00680748  0.00693614  0.61885747  1
  O  O356  1  0.00800127  0.50743843  0.12395438  1
  O  O357  1  0.00570594  0.50605183  0.62069728  1
  O  O358  1  0.50574484  0.00479011  0.12057007  1
  O  O359  1  0.49785660  0.00939981  0.62179437  1
  O  O360  1  0.50336875  0.50312031  0.11744674  1
  O  O361  1  0.50571859  0.50677886  0.61778457  1
  O  O362  1  0.25438747  0.38106890  0.23664367  1
  O  O363  1  0.24255203  0.37881415  0.74210602  1
  O  O364  1  0.23596363  0.87353709  0.25095883  1
  O  O365  1  0.24448114  0.87818325  0.74511484  1
  O  O366  1  0.74532941  0.38062229  0.24649534  1
  O  O367  1  0.74436056  0.38107276  0.74432371  1
  O  O368  1  0.74575939  0.88124582  0.24607001  1
  O  O369  1  0.74545119  0.87534033  0.74145783  1
  O  O370  1  0.26558360  0.12963211  0.25133083  1
  O  O371  1  0.25364058  0.11667340  0.75382783  1
  O  O372  1  0.25621990  0.61813232  0.25784748  1
  O  O373  1  0.25248755  0.61870105  0.75755460  1
  O  O374  1  0.75847966  0.12146298  0.25361845  1
  O  O375  1  0.76016633  0.12140840  0.75595521  1
  O  O376  1  0.74994344  0.61920025  0.26032849  1
  O  O377  1  0.75874235  0.62550323  0.75775644  1
  O  O378  1  0.37572632  0.11609450  0.36629186  1
  O  O379  1  0.36764403  0.11778490  0.86858193  1
  O  O380  1  0.36893241  0.61865554  0.37246188  1
  O  O381  1  0.36058143  0.63204889  0.86909608  1
  O  O382  1  0.86994405  0.12558157  0.36404187  1
  O  O383  1  0.87196447  0.12082004  0.86842211  1
  O  O384  1  0.86775579  0.61938372  0.37456782  1
  O  O385  1  0.87263529  0.61953791  0.87185236  1
  O  O386  1  0.13238900  0.38579768  0.11742580  1
  O  O387  1  0.12849073  0.37912358  0.62785632  1
  O  O388  1  0.12426266  0.88198504  0.13552564  1
  O  O389  1  0.13029876  0.87882174  0.62955539  1
  O  O390  1  0.63355181  0.37403497  0.13346279  1
  O  O391  1  0.62471593  0.38980384  0.61895271  1
  O  O392  1  0.63131427  0.88097375  0.13251942  1
  O  O393  1  0.63490028  0.87243489  0.63078618  1
  O  O394  1  0.12406241  0.24181265  0.26306282  1
  O  O395  1  0.12891976  0.25554937  0.76090828  1
  O  O396  1  0.12889502  0.75709551  0.26333593  1
  O  O397  1  0.11905169  0.75465941  0.75478354  1
  O  O398  1  0.61921363  0.25549065  0.25477603  1
  O  O399  1  0.62225607  0.25137688  0.75280213  1
  O  O400  1  0.61339686  0.75772615  0.24567188  1
  O  O401  1  0.61841134  0.75465394  0.75608501  1
  O  O402  1  0.38047009  0.24220122  0.24028082  1
  O  O403  1  0.37111384  0.23927305  0.73903339  1
  O  O404  1  0.38316219  0.74572203  0.24575779  1
  O  O405  1  0.37951037  0.74265470  0.74453261  1
  O  O406  1  0.87436633  0.24296230  0.24071531  1
  O  O407  1  0.87148625  0.23577108  0.74975076  1
  O  O408  1  0.87146623  0.74810464  0.23532673  1
  O  O409  1  0.88230185  0.74550692  0.74548878  1
  O  O410  1  0.37938133  0.49419134  0.49473282  1
  O  O411  1  0.38887188  0.50522070  1.00687324  1
  O  O412  1  0.37815031  0.99162217  0.48970023  1
  O  O413  1  0.38217243  0.99989203  0.99326285  1
  O  O414  1  0.88274582  0.50173097  0.49322294  1
  O  O415  1  0.87668858  0.49985902  0.98782865  1
  O  O416  1  0.88254000  0.99258997  0.49705153  1
  O  O417  1  0.88645130  1.00070425  0.99604841  1
  O  O418  1  0.11723256  0.00469430  0.00630335  1
  O  O419  1  0.12135867  0.00438124  0.50557744  1
  O  O420  1  0.12500907  0.51103503  0.01167793  1
  O  O421  1  0.12000078  0.50613132  0.50502480  1
  O  O422  1  0.61973865  0.00520634  0.00669977  1
  O  O423  1  0.62074573  0.00446540  0.50544966  1
  O  O424  1  0.61249996  0.50228593  0.00440486  1
  O  O425  1  0.61886469  0.50973769  0.50618935  1
  O  O426  1  0.36569470  0.36462961  0.12337061  1
  O  O427  1  0.36793173  0.36885562  0.61759164  1
  O  O428  1  0.37255981  0.86541930  0.12741555  1
  O  O429  1  0.36969906  0.86857471  0.62050756  1
  O  O430  1  0.87046195  0.36634148  0.12540742  1
  O  O431  1  0.87414814  0.37117633  0.62094563  1
  O  O432  1  0.87141763  0.86846092  0.12513153  1
  O  O433  1  0.86953133  0.87080213  0.62143400  1
  O  O434  1  0.12514104  0.13209629  0.38107769  1
  O  O435  1  0.12699191  0.13118501  0.87706458  1
  O  O436  1  0.12894988  0.63168021  0.37932789  1
  O  O437  1  0.12958705  0.62821405  0.88359119  1
  O  O438  1  0.63089428  0.13183170  0.37254817  1
  O  O439  1  0.63305006  0.12253715  0.88305374  1
  O  O440  1  0.63491357  0.61799899  0.38570642  1
  O  O441  1  0.63369362  0.63348209  0.87531142  1
