# generated using pymatgen
data_V93Zn93O256
_symmetry_space_group_name_H-M   'P 1'
_cell_length_a   17.05253385
_cell_length_b   17.06168853
_cell_length_c   17.06257918
_cell_angle_alpha   90.04314224
_cell_angle_beta   90.00426829
_cell_angle_gamma   89.97224497
_symmetry_Int_Tables_number   1
_chemical_formula_structural   V93Zn93O256
_chemical_formula_sum   'V93 Zn93 O256'
_cell_volume   4964.27045512
_cell_formula_units_Z   1
loop_
 _symmetry_equiv_pos_site_id
 _symmetry_equiv_pos_as_xyz
  1  'x, y, z'
loop_
 _atom_site_type_symbol
 _atom_site_label
 _atom_site_symmetry_multiplicity
 _atom_site_fract_x
 _atom_site_fract_y
 _atom_site_fract_z
 _atom_site_occupancy
  V  V0  1  0.37485789  0.62327478  0.74972635  1
  V  V1  1  0.74958090  0.24957546  0.50102858  1
  V  V2  1  0.50092046  0.00055517  0.00130166  1
  V  V3  1  0.87956237  0.87652257  0.49993281  1
  V  V4  1  -0.00064440  -0.00087051  0.00001732  1
  V  V5  1  0.24990570  -0.00124673  0.24984295  1
  V  V6  1  0.37484034  -0.00030954  0.87466170  1
  V  V7  1  0.00149302  0.50160929  0.49832114  1
  V  V8  1  0.12471830  0.24959718  0.37543925  1
  V  V9  1  0.37196660  0.50305449  0.37641956  1
  V  V10  1  0.62140474  0.75170806  0.37421957  1
  V  V11  1  0.75040902  0.12450147  0.37554099  1
  V  V12  1  0.62467731  0.37494135  0.75015092  1
  V  V13  1  -0.00062445  0.24972046  0.74930673  1
  V  V14  1  0.37359925  0.75030082  0.62291857  1
  V  V15  1  0.00077521  0.74981210  0.74992609  1
  V  V16  1  0.24982367  -0.00068881  0.74969666  1
  V  V17  1  0.00029320  0.62336727  0.12209691  1
  V  V18  1  0.62414199  0.87522855  0.75008978  1
  V  V19  1  0.75107215  0.50199736  0.75003803  1
  V  V20  1  0.37546497  0.37519781  0.50013196  1
  V  V21  1  0.62342580  0.61874292  -0.00654411  1
  V  V22  1  0.62576765  0.50174517  0.62410455  1
  V  V23  1  0.23833426  0.74364896  0.49300382  1
  V  V24  1  0.00533275  0.87286892  0.37605491  1
  V  V25  1  0.87369447  0.50133637  0.37455088  1
  V  V26  1  0.50236008  0.87196102  0.87387777  1
  V  V27  1  0.74952755  0.37586812  0.12550997  1
  V  V28  1  0.24972974  0.12465071  0.87481223  1
  V  V29  1  0.49945723  -0.00380956  0.49548377  1
  V  V30  1  0.88033448  -0.00107567  0.37858276  1
  V  V31  1  0.00364266  0.62472202  0.62067053  1
  V  V32  1  0.24958492  0.87442405  0.12496066  1
  V  V33  1  0.87238915  0.62452845  0.25023484  1
  V  V34  1  0.37624534  -0.00120463  0.37549714  1
  V  V35  1  0.74943407  -0.00047329  0.25086482  1
  V  V36  1  0.75011473  0.37551589  0.62518274  1
  V  V37  1  0.75007404  0.87617684  0.62394781  1
  V  V38  1  0.50123408  0.62402513  0.62242611  1
  V  V39  1  0.12475056  0.25015632  0.87472791  1
  V  V40  1  0.12531360  -0.00096740  0.12613742  1
  V  V41  1  0.87554287  0.12451447  0.25059377  1
  V  V42  1  0.12503160  0.50221335  0.62126306  1
  V  V43  1  0.74897209  0.25034183  0.00039116  1
  V  V44  1  0.75023731  0.75048205  0.49828828  1
  V  V45  1  -0.00029194  0.12436631  0.62339257  1
  V  V46  1  0.37980846  0.38221539  0.00053059  1
  V  V47  1  0.24875218  0.37692990  0.12750419  1
  V  V48  1  -0.00010689  0.37428909  0.37403443  1
  V  V49  1  0.74737053  0.49978541  0.24919859  1
  V  V50  1  0.37712675  0.87327386  0.49498113  1
  V  V51  1  0.61935991  0.87446650  0.25375322  1
  V  V52  1  0.12547016  0.74876450  0.87477361  1
  V  V53  1  0.87300945  0.75125806  0.12519207  1
  V  V54  1  0.12612796  0.87555102  0.74996154  1
  V  V55  1  0.12087228  0.12109794  0.49966862  1
  V  V56  1  0.74958379  0.00129044  0.74984835  1
  V  V57  1  0.25015400  0.62381216  0.87524916  1
  V  V58  1  0.87525184  0.37567320  0.50014642  1
  V  V59  1  0.75107876  0.62570166  0.37384417  1
  V  V60  1  -0.00074446  0.12477740  0.12573299  1
  V  V61  1  0.12441521  0.12472068  -0.00031013  1
  V  V62  1  0.49904479  0.74975887  0.24863872  1
  V  V63  1  0.62252608  0.37575595  0.25169990  1
  V  V64  1  0.25089493  0.24994527  -0.00063334  1
  V  V65  1  0.87561380  0.75084933  0.62316310  1
  V  V66  1  0.62419859  0.00033625  0.62328081  1
  V  V67  1  0.00607375  0.75027993  0.25368313  1
  V  V68  1  0.37537429  0.12488323  0.24986492  1
  V  V69  1  0.75031703  0.87302121  0.12350525  1
  V  V70  1  0.00072950  0.87579597  0.87572483  1
  V  V71  1  0.62454247  0.25070625  0.37516449  1
  V  V72  1  0.87534344  0.00012293  0.87516768  1
  V  V73  1  0.12066925  0.00027124  0.62291203  1
  V  V74  1  0.87197044  0.50302290  0.87518451  1
  V  V75  1  0.25066168  0.75004715  0.00025012  1
  V  V76  1  0.87064793  0.62608954  0.75308026  1
  V  V77  1  0.37500192  0.87426638  0.00083488  1
  V  V78  1  0.12551041  0.37455223  0.74993008  1
  V  V79  1  0.25096318  0.37397908  0.62559357  1
  V  V80  1  0.49896644  0.24920725  0.74933686  1
  V  V81  1  0.62382470  -0.00021863  0.12512077  1
  V  V82  1  0.37514798  0.12524580  0.74925140  1
  V  V83  1  0.62361340  0.12414937  0.50001276  1
  V  V84  1  0.49951800  0.38136650  0.87772530  1
  V  V85  1  0.24922856  0.12448635  0.37572286  1
  V  V86  1  -0.00011727  0.37536530  0.87571979  1
  V  V87  1  0.87428216  0.37660556  -0.00044294  1
  V  V88  1  -0.00026238  0.24965547  0.25032551  1
  V  V89  1  0.87555685  0.24977050  0.62537107  1
  V  V90  1  0.37253419  0.62621933  0.25303060  1
  V  V91  1  0.74850517  0.12521411  0.87584630  1
  V  V92  1  0.37784478  0.24830900  0.12590692  1
  Zn  Zn93  1  0.50225860  0.75076371  0.74916845  1
  Zn  Zn94  1  0.49847745  0.37453807  0.37611245  1
  Zn  Zn95  1  0.49733805  0.12445410  0.62453787  1
  Zn  Zn96  1  0.25116110  0.24836023  0.49956593  1
  Zn  Zn97  1  0.87552779  0.25030269  0.12561892  1
  Zn  Zn98  1  0.87466478  0.12532383  0.74851504  1
  Zn  Zn99  1  0.24930326  0.87461080  0.62418316  1
  Zn  Zn100  1  0.62321219  0.12562439  0.00278659  1
  Zn  Zn101  1  0.00160299  0.50025904  -0.00019771  1
  Zn  Zn102  1  0.12522714  0.37537954  0.24949744  1
  Zn  Zn103  1  0.75240563  0.74126256  -0.01078783  1
  Zn  Zn104  1  0.37434079  0.24780841  0.62308542  1
  Zn  Zn105  1  0.62609593  0.62451446  0.49840770  1
  Zn  Zn106  1  0.50228106  0.12481733  0.12512631  1
  Zn  Zn107  1  0.62406487  0.25055434  0.87582457  1
  Zn  Zn108  1  0.63672519  0.74290015  0.87156237  1
  Zn  Zn109  1  0.12731886  0.87245298  0.25522912  1
  Zn  Zn110  1  0.12522981  0.62202053  0.00007382  1
  Zn  Zn111  1  0.37731923  0.50382750  0.87983115  1
  Zn  Zn112  1  0.24898039  0.49938442  0.75212119  1
  Zn  Zn113  1  0.87404551  0.87364168  -0.00159190  1
  Zn  Zn114  1  0.37499572  0.74855520  0.12527218  1
  Zn  Zn115  1  0.61461006  0.49810849  0.11784897  1
  Zn  Zn116  1  0.49526029  0.61403047  0.11804329  1
  Zn  Zn117  1  0.50067507  0.24796566  0.25253951  1
  Zn  Zn118  1  0.12460060  0.49857876  0.12341664  1
  Zn  Zn119  1  0.50269846  0.49960886  0.49779690  1
  Zn  Zn120  1  0.22889760  0.62483015  0.37474973  1
  Zn  Zn121  1  0.24509161  0.50236947  0.25156127  1
  Zn  Zn122  1  0.18784548  0.18811224  0.18825236  1
  Zn  Zn123  1  0.18773259  0.18752097  0.68714504  1
  Zn  Zn124  1  0.18747525  0.68671062  0.18694074  1
  Zn  Zn125  1  0.18915471  0.68817367  0.68653241  1
  Zn  Zn126  1  0.68816190  0.18803546  0.18699002  1
  Zn  Zn127  1  0.68544930  0.18706221  0.68773407  1
  Zn  Zn128  1  0.68344617  0.68324708  0.18065058  1
  Zn  Zn129  1  0.68747020  0.69087863  0.68833207  1
  Zn  Zn130  1  0.31147970  0.31184240  0.31293214  1
  Zn  Zn131  1  0.31418168  0.31281863  0.81319909  1
  Zn  Zn132  1  0.31125337  0.81273088  0.31445015  1
  Zn  Zn133  1  0.31315860  0.81198763  0.81237400  1
  Zn  Zn134  1  0.81206539  0.31219726  0.31259648  1
  Zn  Zn135  1  0.81295137  0.31322331  0.81272818  1
  Zn  Zn136  1  0.81325954  0.81123897  0.31225673  1
  Zn  Zn137  1  0.81389987  0.81544167  0.81047242  1
  Zn  Zn138  1  0.18779559  0.43780356  0.43737363  1
  Zn  Zn139  1  0.18808399  0.43949668  0.94144932  1
  Zn  Zn140  1  0.19144138  0.93626888  0.44104415  1
  Zn  Zn141  1  0.18695861  0.93699336  0.93823721  1
  Zn  Zn142  1  0.68722452  0.43866716  0.43779096  1
  Zn  Zn143  1  0.68721433  0.43923107  0.93544439  1
  Zn  Zn144  1  0.68930868  0.93708798  0.43685939  1
  Zn  Zn145  1  0.68656072  0.93615138  0.93840676  1
  Zn  Zn146  1  0.31283055  0.06155832  0.06236060  1
  Zn  Zn147  1  0.31006678  0.06241367  0.56377693  1
  Zn  Zn148  1  0.31411333  0.56313295  0.06562700  1
  Zn  Zn149  1  0.31047512  0.56198601  0.56111622  1
  Zn  Zn150  1  0.81276901  0.06140611  0.06272090  1
  Zn  Zn151  1  0.81258391  0.06228036  0.56201797  1
  Zn  Zn152  1  0.80607763  0.56230340  0.06132279  1
  Zn  Zn153  1  0.81413571  0.56509792  0.56171040  1
  Zn  Zn154  1  0.43685109  0.43865119  0.19079377  1
  Zn  Zn155  1  0.43843635  0.43863998  0.68839898  1
  Zn  Zn156  1  0.43733485  0.93664586  0.18682470  1
  Zn  Zn157  1  0.43791533  0.93805697  0.68495437  1
  Zn  Zn158  1  0.93545629  0.43675745  0.18755898  1
  Zn  Zn159  1  0.93852117  0.43750104  0.68804941  1
  Zn  Zn160  1  0.93811276  0.93731851  0.19015876  1
  Zn  Zn161  1  0.93761285  0.93870242  0.68975630  1
  Zn  Zn162  1  0.06277696  0.06119694  0.31208705  1
  Zn  Zn163  1  0.06176197  0.06318316  0.81055683  1
  Zn  Zn164  1  0.06107579  0.55685332  0.30416213  1
  Zn  Zn165  1  0.06097104  0.56143010  0.80941733  1
  Zn  Zn166  1  0.56070532  0.06361401  0.31206261  1
  Zn  Zn167  1  0.56287077  0.06174725  0.81389949  1
  Zn  Zn168  1  0.55882902  0.56261219  0.31173596  1
  Zn  Zn169  1  0.56277880  0.56256136  0.81131304  1
  Zn  Zn170  1  0.43845772  0.18751866  0.43727862  1
  Zn  Zn171  1  0.43847825  0.18897947  0.93748475  1
  Zn  Zn172  1  0.43712763  0.68807365  0.43598253  1
  Zn  Zn173  1  0.44057113  0.68811246  0.93936158  1
  Zn  Zn174  1  0.93856855  0.18754133  0.43832707  1
  Zn  Zn175  1  0.93538530  0.18760951  0.93761389  1
  Zn  Zn176  1  1.05484786  0.68878828  0.43544176  1
  Zn  Zn177  1  0.93620842  0.68922892  0.93835152  1
  Zn  Zn178  1  0.06140190  0.31118206  0.06170004  1
  Zn  Zn179  1  0.06352246  0.31151902  0.56053000  1
  Zn  Zn180  1  0.06419560  0.81144154  0.06240094  1
  Zn  Zn181  1  0.06067355  0.81682241  0.56508125  1
  Zn  Zn182  1  0.56283937  0.31495031  0.06363494  1
  Zn  Zn183  1  0.56141662  0.31271832  0.56332840  1
  Zn  Zn184  1  0.56469840  0.80499159  0.06009735  1
  Zn  Zn185  1  0.56175363  0.81292879  0.56167677  1
  O  O186  1  0.12006344  0.11971627  0.11892451  1
  O  O187  1  0.12106672  0.11917118  0.61872122  1
  O  O188  1  0.11138883  0.62579416  0.12384119  1
  O  O189  1  0.11500305  0.61384070  0.63591833  1
  O  O190  1  0.62414928  0.11585660  0.12454926  1
  O  O191  1  0.62404018  0.11773308  0.61729585  1
  O  O192  1  0.61831750  0.62064292  0.11442522  1
  O  O193  1  0.61588755  0.62183629  0.62567862  1
  O  O194  1  0.37236155  0.38334993  0.38394352  1
  O  O195  1  0.38122398  0.37554383  0.88394896  1
  O  O196  1  0.36993904  0.88171179  0.38821468  1
  O  O197  1  0.38183586  0.88078674  0.87928284  1
  O  O198  1  0.87885972  0.38057494  0.38125895  1
  O  O199  1  0.88070058  0.38292820  0.87868841  1
  O  O200  1  0.88022771  0.88099137  0.38106906  1
  O  O201  1  0.88422966  0.88286885  0.87572839  1
  O  O202  1  0.25604468  0.00484222  0.37021789  1
  O  O203  1  0.25467692  0.00497685  0.86991861  1
  O  O204  1  0.25958392  0.50484237  0.37612585  1
  O  O205  1  0.25289623  0.51179996  0.87318780  1
  O  O206  1  0.75908950  0.00448800  0.37026455  1
  O  O207  1  0.75430640  0.00679235  0.87124064  1
  O  O208  1  0.75457057  0.50524047  0.36992865  1
  O  O209  1  0.76491687  0.49323140  0.86562747  1
  O  O210  1  0.25162486  0.48683665  0.12611316  1
  O  O211  1  0.24126730  0.49233752  0.62580833  1
  O  O212  1  0.24515120  0.99474075  0.12995081  1
  O  O213  1  0.23852209  0.99866556  0.63191457  1
  O  O214  1  0.74695310  0.49156768  0.13339208  1
  O  O215  1  0.74666750  0.49481221  0.62973048  1
  O  O216  1  0.74561202  0.99214357  0.13199159  1
  O  O217  1  0.74431731  0.99551464  0.62891514  1
  O  O218  1  -0.00089124  0.36747928  0.25638291  1
  O  O219  1  0.00544649  0.36890764  0.75514116  1
  O  O220  1  -0.00044165  0.86705585  0.25869563  1
  O  O221  1  0.00593922  0.86894507  0.75536666  1
  O  O222  1  0.51184403  0.37061670  0.25366424  1
  O  O223  1  0.50321063  0.36727021  0.75597207  1
  O  O224  1  0.51191491  0.86792984  0.24729154  1
  O  O225  1  0.50437136  0.87673915  0.75761292  1
  O  O226  1  0.49113397  0.12721282  0.24640972  1
  O  O227  1  0.49499412  0.13316692  0.75120381  1
  O  O228  1  0.48921092  0.63485064  0.25167521  1
  O  O229  1  0.49132738  0.62787489  0.74042046  1
  O  O230  1  0.99471783  0.12932802  0.24557257  1
  O  O231  1  0.99840891  0.13264192  0.74275294  1
  O  O232  1  0.99147873  0.63286799  0.24068392  1
  O  O233  1  0.99124590  0.62978373  0.74048578  1
  O  O234  1  0.36969193  0.25637736  0.00770671  1
  O  O235  1  0.37272186  0.26110192  0.50185653  1
  O  O236  1  0.36850578  0.75726413  0.00134088  1
  O  O237  1  0.37106572  0.75671978  0.50595439  1
  O  O238  1  0.86380635  0.25647963  -0.00007933  1
  O  O239  1  0.86948823  0.25548626  0.50533468  1
  O  O240  1  0.87298489  0.75299556  0.01333341  1
  O  O241  1  0.86598350  0.76545959  0.50800171  1
  O  O242  1  0.12743214  0.23937105  0.49431839  1
  O  O243  1  0.13041459  0.24369313  0.99350725  1
  O  O244  1  0.13461142  0.75173668  0.50378216  1
  O  O245  1  0.13214398  0.74668472  0.99178270  1
  O  O246  1  0.63053327  0.24513388  0.49633916  1
  O  O247  1  0.63782319  0.24962387  0.99860392  1
  O  O248  1  0.63072623  0.75191347  0.49015262  1
  O  O249  1  0.63042027  0.74049492  0.99534278  1
  O  O250  1  0.48718886  0.24924801  0.12572397  1
  O  O251  1  0.49814568  0.24883451  0.63817136  1
  O  O252  1  0.49762941  0.74995286  0.14052185  1
  O  O253  1  0.48976882  0.74251846  0.62446191  1
  O  O254  1  0.99797000  0.24224402  0.13094454  1
  O  O255  1  0.99515311  0.24547499  0.62957716  1
  O  O256  1  0.99041166  0.74546875  0.13125181  1
  O  O257  1  0.99646858  0.74316636  0.63011265  1
  O  O258  1  0.00456374  0.25479548  0.37039209  1
  O  O259  1  0.00514175  0.25464482  0.86998746  1
  O  O260  1  -0.00232470  0.76108678  0.36484051  1
  O  O261  1  0.00510405  0.75480946  0.86911847  1
  O  O262  1  0.50902307  0.25272254  0.37368854  1
  O  O263  1  0.50108601  0.25826185  0.86432923  1
  O  O264  1  0.51270057  0.74628801  0.36613124  1
  O  O265  1  0.49818136  0.76578265  0.87145876  1
  O  O266  1  0.23983636  0.12589481  0.49447774  1
  O  O267  1  0.24446987  0.12944383  0.99412889  1
  O  O268  1  0.25440170  0.64127560  0.49948203  1
  O  O269  1  0.25263086  0.63063101  0.98986309  1
  O  O270  1  0.74413052  0.12978474  0.49471731  1
  O  O271  1  0.75056372  0.13300891  0.99269534  1
  O  O272  1  0.75002547  0.63321310  0.49335203  1
  O  O273  1  0.73303375  0.62769226  1.00602683  1
  O  O274  1  0.25942221  0.36843541  0.00637754  1
  O  O275  1  0.25831741  0.37447825  0.50953851  1
  O  O276  1  0.25530984  0.87024764  0.00394487  1
  O  O277  1  0.25824298  0.86299432  0.50372272  1
  O  O278  1  0.75390686  0.36802881  0.00358330  1
  O  O279  1  0.75569690  0.36944667  0.50587976  1
  O  O280  1  0.75096285  0.87656645  0.01695083  1
  O  O281  1  0.75684321  0.87099103  0.50521335  1
  O  O282  1  0.12864183  0.49216312  0.24059161  1
  O  O283  1  0.12457654  0.49193878  0.73898193  1
  O  O284  1  0.13220407  0.99898721  0.24337126  1
  O  O285  1  0.13064511  0.99557012  0.74358564  1
  O  O286  1  0.63085825  0.48842106  0.25565232  1
  O  O287  1  0.63184409  0.49542028  0.74404711  1
  O  O288  1  0.62882394  0.99166886  0.24779787  1
  O  O289  1  0.62998997  0.99556502  0.74311052  1
  O  O290  1  0.36987769  0.00386329  0.25562928  1
  O  O291  1  0.36982125  0.00472189  0.75469168  1
  O  O292  1  0.37080588  0.50878363  0.26068060  1
  O  O293  1  0.37193359  0.51422123  0.74945954  1
  O  O294  1  0.86884745  0.00450415  0.25883167  1
  O  O295  1  0.86751799  0.00260172  0.75645425  1
  O  O296  1  0.86705440  0.50372393  0.25511001  1
  O  O297  1  0.87203558  0.50731918  0.75494565  1
  O  O298  1  0.11783507  0.36796560  0.37575780  1
  O  O299  1  0.12105343  0.36962305  0.87045198  1
  O  O300  1  0.10903238  0.88688875  0.37660041  1
  O  O301  1  0.12035267  0.86939908  0.86917132  1
  O  O302  1  0.62614502  0.36882964  0.36772020  1
  O  O303  1  0.61661172  0.37403767  0.86818125  1
  O  O304  1  0.63456249  0.86478580  0.36316652  1
  O  O305  1  0.61355381  0.88035815  0.86792426  1
  O  O306  1  0.37304032  0.13432753  0.13006113  1
  O  O307  1  0.37565720  0.12738528  0.63294065  1
  O  O308  1  0.37483012  0.62873598  0.13909905  1
  O  O309  1  0.38058495  0.63106333  0.63032276  1
  O  O310  1  0.88113683  0.12465629  0.13278811  1
  O  O311  1  0.88086453  0.13117544  0.62417470  1
  O  O312  1  0.87877773  0.63376332  0.12977855  1
  O  O313  1  0.88482719  0.62952901  0.63263765  1
  O  O314  1  0.25896194  0.25562951  0.11989454  1
  O  O315  1  0.25035577  0.26316012  0.62412699  1
  O  O316  1  0.25059264  0.75679061  0.11811885  1
  O  O317  1  0.25891543  0.74966198  0.61465889  1
  O  O318  1  0.75257981  0.25537269  0.11579449  1
  O  O319  1  0.75476768  0.25532175  0.62024682  1
  O  O320  1  0.76026985  0.75881118  0.13159258  1
  O  O321  1  0.75554036  0.75740321  0.62000244  1
  O  O322  1  0.24288840  0.24189816  0.37573793  1
  O  O323  1  0.24443404  0.24450109  0.87931713  1
  O  O324  1  0.25100478  0.74964215  0.39064762  1
  O  O325  1  0.24580544  0.74208385  0.87893472  1
  O  O326  1  0.74572622  0.24368710  0.38214716  1
  O  O327  1  0.74981151  0.24279067  0.88240783  1
  O  O328  1  0.74231754  0.74499241  0.37721862  1
  O  O329  1  0.74882129  0.76113808  0.87817144  1
  O  O330  1  0.00484997  0.11994365  0.00475117  1
  O  O331  1  0.01275573  0.12853573  0.50600105  1
  O  O332  1  -0.00060363  0.62583781  0.01112480  1
  O  O333  1  0.00006376  0.62082169  0.51537450  1
  O  O334  1  0.50210310  0.11711336  0.00145305  1
  O  O335  1  0.50520306  0.11530414  0.50249648  1
  O  O336  1  0.51379639  0.63263484  0.00315407  1
  O  O337  1  0.50045169  0.62464554  0.51269665  1
  O  O338  1  0.48757865  0.37771373  0.50101023  1
  O  O339  1  0.49110605  0.36520996  0.98842792  1
  O  O340  1  0.48931522  0.88453601  0.50482868  1
  O  O341  1  0.49532162  0.87960241  0.99248893  1
  O  O342  1  0.99390066  0.38027822  0.49474885  1
  O  O343  1  0.99223733  0.37487952  0.99339201  1
  O  O344  1  0.98793685  0.86839269  0.49124416  1
  O  O345  1  0.99995523  0.88143632  0.99336268  1
  O  O346  1  0.48645979  0.49762317  0.37783998  1
  O  O347  1  0.49544868  0.48459604  0.86557550  1
  O  O348  1  0.49356339  1.00471408  0.38819725  1
  O  O349  1  0.49402350  0.99194304  0.88012780  1
  O  O350  1  0.99225346  0.49320541  0.37924419  1
  O  O351  1  0.98891733  0.49384928  0.87344573  1
  O  O352  1  0.98563504  0.99221803  0.36812950  1
  O  O353  1  0.99634229  0.99614658  0.87975957  1
  O  O354  1  0.00468132  0.00506287  0.12079459  1
  O  O355  1  0.01357268  0.00645389  0.63297041  1
  O  O356  1  -0.00479387  0.51322402  0.12418800  1
  O  O357  1  0.00558944  0.50588618  0.62028202  1
  O  O358  1  0.50585805  -0.00043966  0.11862967  1
  O  O359  1  0.50572490  0.00144038  0.61370505  1
  O  O360  1  0.50180149  0.50077224  0.12932975  1
  O  O361  1  0.50610530  0.50985047  0.62553709  1
  O  O362  1  0.25032902  0.37479438  0.23807033  1
  O  O363  1  0.24579731  0.37697114  0.74189338  1
  O  O364  1  0.24824895  0.88048695  0.24514544  1
  O  O365  1  0.24402685  0.88060856  0.74843146  1
  O  O366  1  0.74244815  0.37878732  0.24625784  1
  O  O367  1  0.74493749  0.38008997  0.74378717  1
  O  O368  1  0.74265560  0.87931699  0.24232060  1
  O  O369  1  0.74497379  0.88313917  0.74169743  1
  O  O370  1  0.25541918  0.11830265  0.25559546  1
  O  O371  1  0.25415842  0.12004612  0.75619279  1
  O  O372  1  0.26037091  0.62797260  0.25536080  1
  O  O373  1  0.25849546  0.62607320  0.75798346  1
  O  O374  1  0.75535597  0.11938767  0.25670769  1
  O  O375  1  0.75039873  0.12034491  0.75922962  1
  O  O376  1  0.75280503  0.61977495  0.25342730  1
  O  O377  1  0.76438071  0.61977661  0.74026101  1
  O  O378  1  0.36865356  0.11928445  0.37049689  1
  O  O379  1  0.36877234  0.11936659  0.87006386  1
  O  O380  1  0.37460555  0.61767110  0.36860240  1
  O  O381  1  0.36902312  0.62699457  0.86629282  1
  O  O382  1  0.87106113  0.11670346  0.37289891  1
  O  O383  1  0.86393191  0.11969899  0.87341216  1
  O  O384  1  0.86624733  0.61591175  0.36452319  1
  O  O385  1  0.88368301  0.61668346  0.86248940  1
  O  O386  1  0.13863423  0.37052213  0.12330888  1
  O  O387  1  0.13187240  0.38112847  0.62946355  1
  O  O388  1  0.13157718  0.88239718  0.12610169  1
  O  O389  1  0.12512524  0.88468825  0.63106771  1
  O  O390  1  0.63119838  0.37496201  0.13570784  1
  O  O391  1  0.63055715  0.38104767  0.63035872  1
  O  O392  1  0.63270947  0.87785521  0.13515703  1
  O  O393  1  0.63021399  0.88057419  0.62891647  1
  O  O394  1  0.11757468  0.24976716  0.25764686  1
  O  O395  1  0.11970131  0.25498600  0.75552393  1
  O  O396  1  0.10957587  0.75320060  0.24295049  1
  O  O397  1  0.12046171  0.75554955  0.75404629  1
  O  O398  1  0.62748611  0.25962185  0.25632808  1
  O  O399  1  0.61608943  0.25620260  0.75116468  1
  O  O400  1  0.61904990  0.75564077  0.25555570  1
  O  O401  1  0.62149780  0.75944148  0.75194708  1
  O  O402  1  0.37483271  0.24445426  0.24084762  1
  O  O403  1  0.38354410  0.24447256  0.74947566  1
  O  O404  1  0.38355911  0.74429941  0.25509526  1
  O  O405  1  0.37432876  0.74158318  0.73888358  1
  O  O406  1  0.88076334  0.24182771  0.25054968  1
  O  O407  1  0.88114193  0.24960985  0.74278611  1
  O  O408  1  0.88302751  0.74591601  0.24238852  1
  O  O409  1  0.88101698  0.74412706  0.74282589  1
  O  O410  1  0.37509595  0.49258548  0.49359179  1
  O  O411  1  0.37223792  0.48530286  1.00019483  1
  O  O412  1  0.37968843  0.99250512  0.49736461  1
  O  O413  1  0.37948474  0.99407134  0.99392594  1
  O  O414  1  0.88091869  0.49487322  0.49538844  1
  O  O415  1  0.87428907  0.49609914  0.98948709  1
  O  O416  1  0.86773556  0.98814549  0.49024910  1
  O  O417  1  0.88189935  0.99767492  0.99378891  1
  O  O418  1  0.11969077  0.00610266  0.00521586  1
  O  O419  1  0.13154356  0.00940644  0.51148540  1
  O  O420  1  0.11960300  0.50443709  0.00525778  1
  O  O421  1  0.11820352  0.49314698  0.51436435  1
  O  O422  1  0.61875088  -0.00028678  0.00811216  1
  O  O423  1  0.61791601  0.00256603  0.50204915  1
  O  O424  1  0.62831750  0.51254391  -0.00162412  1
  O  O425  1  0.62308578  0.50367812  0.50791675  1
  O  O426  1  0.36882651  0.36592633  0.11929320  1
  O  O427  1  0.36609972  0.37760604  0.61839942  1
  O  O428  1  0.36716262  0.87359510  0.11881568  1
  O  O429  1  0.37352643  0.86580879  0.61645855  1
  O  O430  1  0.86773840  0.37304341  0.11770127  1
  O  O431  1  0.87022777  0.37022645  0.61975971  1
  O  O432  1  0.86731954  0.86762380  0.12768730  1
  O  O433  1  0.87170372  0.87300216  0.61882433  1
  O  O434  1  0.12815604  0.12701756  0.38301519  1
  O  O435  1  0.12997187  0.13009905  0.87994711  1
  O  O436  1  0.11727567  0.62101128  0.37466211  1
  O  O437  1  0.13430294  0.63018241  0.87147602  1
  O  O438  1  0.63156033  0.12943418  0.38010890  1
  O  O439  1  0.63778311  0.12598624  0.87822555  1
  O  O440  1  0.63141223  0.63525003  0.37470233  1
  O  O441  1  0.61817171  0.62604081  0.88610932  1
