# generated using pymatgen
data_V93Zn93O256
_symmetry_space_group_name_H-M   'P 1'
_cell_length_a   17.05044003
_cell_length_b   17.04685820
_cell_length_c   17.04754062
_cell_angle_alpha   90.06753388
_cell_angle_beta   90.00208726
_cell_angle_gamma   90.02124683
_symmetry_Int_Tables_number   1
_chemical_formula_structural   V93Zn93O256
_chemical_formula_sum   'V93 Zn93 O256'
_cell_volume   4954.97356720
_cell_formula_units_Z   1
loop_
 _symmetry_equiv_pos_site_id
 _symmetry_equiv_pos_as_xyz
  1  'x, y, z'
loop_
 _atom_site_type_symbol
 _atom_site_label
 _atom_site_symmetry_multiplicity
 _atom_site_fract_x
 _atom_site_fract_y
 _atom_site_fract_z
 _atom_site_occupancy
  V  V0  1  0.62531658  0.24969349  0.87394204  1
  V  V1  1  0.25644066  0.62720978  0.36925021  1
  V  V2  1  0.49983691  0.88122462  0.38038112  1
  V  V3  1  0.87648088  0.49986913  0.37422777  1
  V  V4  1  0.62436310  0.37386745  0.25029703  1
  V  V5  1  0.12611397  0.12494561  0.49874397  1
  V  V6  1  0.87496786  0.75077696  0.12635175  1
  V  V7  1  0.25069677  0.24895714  0.49729703  1
  V  V8  1  0.87539144  0.00118876  0.87571356  1
  V  V9  1  0.37491404  0.37397922  0.49873520  1
  V  V10  1  0.62474097  0.87552011  0.25173690  1
  V  V11  1  0.37736177  0.87953421  0.50473558  1
  V  V12  1  0.75216004  0.50088878  0.75252723  1
  V  V13  1  0.50169279  0.50060561  0.00041696  1
  V  V14  1  0.87501650  0.25014834  0.62385519  1
  V  V15  1  0.74921439  -0.00079508  0.74934995  1
  V  V16  1  0.37349564  0.74307483  0.13099715  1
  V  V17  1  0.12663474  0.87439652  0.74715035  1
  V  V18  1  -0.00036014  0.87712409  0.87682625  1
  V  V19  1  0.87425451  0.62417750  0.75086854  1
  V  V20  1  0.87491498  0.12604621  0.74866168  1
  V  V21  1  0.12180204  0.49973727  0.12223404  1
  V  V22  1  0.12556362  0.24974193  0.37370476  1
  V  V23  1  0.87575882  0.87685103  0.00090176  1
  V  V24  1  0.25004525  0.37533785  0.12301784  1
  V  V25  1  0.24935861  -0.00425228  0.74636369  1
  V  V26  1  0.62429528  0.75084114  0.37641968  1
  V  V27  1  0.62544363  0.62507595  0.50110396  1
  V  V28  1  0.49956257  0.12266866  0.12403387  1
  V  V29  1  0.24926674  0.62677739  0.87507857  1
  V  V30  1  0.12099643  0.62390168  -0.00197047  1
  V  V31  1  0.74954360  0.49889547  0.25116482  1
  V  V32  1  0.87559660  0.75003378  0.62582143  1
  V  V33  1  0.62528452  0.37449732  0.74906348  1
  V  V34  1  0.62188899  0.11845207  0.49947827  1
  V  V35  1  0.11926009  0.00316220  0.12236402  1
  V  V36  1  0.00108320  0.87538044  0.37624850  1
  V  V37  1  -0.00043512  0.12631357  0.62485567  1
  V  V38  1  0.37363328  -0.00132992  0.87672561  1
  V  V39  1  0.87775774  0.12464665  0.24673502  1
  V  V40  1  0.50027952  0.37437363  0.37363683  1
  V  V41  1  0.00156858  0.24668554  0.24449453  1
  V  V42  1  0.87647502  0.24840259  0.12177001  1
  V  V43  1  0.87609571  0.37508772  0.49951687  1
  V  V44  1  0.24823523  0.12469793  0.87474692  1
  V  V45  1  0.49958673  0.24948853  0.24974440  1
  V  V46  1  0.74959224  0.12555841  0.87377227  1
  V  V47  1  0.62505075  0.87412048  0.75162064  1
  V  V48  1  0.75121826  0.62486081  0.37473966  1
  V  V49  1  0.50072028  0.74917828  0.75218948  1
  V  V50  1  0.24978105  0.50010709  0.74559834  1
  V  V51  1  0.00060104  0.75119485  0.24935988  1
  V  V52  1  0.74868730  0.37365403  0.12634502  1
  V  V53  1  0.62461120  0.49852103  0.62440584  1
  V  V54  1  0.49969246  0.49951168  0.49968024  1
  V  V55  1  0.12558789  0.62375925  0.50082024  1
  V  V56  1  0.74924571  0.00009285  0.24972912  1
  V  V57  1  0.74960683  0.87593849  0.62602550  1
  V  V58  1  0.49920919  0.87411471  0.87629626  1
  V  V59  1  0.25156703  0.75547563  0.50482045  1
  V  V60  1  0.75007555  0.24954918  0.00011133  1
  V  V61  1  0.12296515  0.37498328  0.74773710  1
  V  V62  1  0.36888927  -0.00097714  0.37395939  1
  V  V63  1  0.50008110  0.37478213  0.87500265  1
  V  V64  1  0.87637098  0.87532806  0.50001913  1
  V  V65  1  0.37525690  0.62480915  0.75020184  1
  V  V66  1  0.36998875  0.11844931  0.25037053  1
  V  V67  1  0.00102575  -0.00048643  0.50010377  1
  V  V68  1  -0.00048535  0.75061429  0.75096334  1
  V  V69  1  0.13023413  0.88090939  0.25055875  1
  V  V70  1  0.37469167  0.75274575  0.62517850  1
  V  V71  1  0.00046394  0.37517682  0.37379280  1
  V  V72  1  0.49913714  0.24928867  0.74863013  1
  V  V73  1  0.37538701  0.24918941  0.62291024  1
  V  V74  1  0.50027473  0.62440293  0.62620591  1
  V  V75  1  0.12675039  0.75134405  0.37465471  1
  V  V76  1  0.25101824  0.87995012  0.12771994  1
  V  V77  1  0.74947376  0.12688300  0.37522925  1
  V  V78  1  0.37474713  0.87410635  0.00192115  1
  V  V79  1  0.74600482  0.75007585  0.00022213  1
  V  V80  1  0.25582931  0.50354069  0.24734083  1
  V  V81  1  0.37326763  0.24873043  0.12409088  1
  V  V82  1  0.37570297  0.50264004  0.37274585  1
  V  V83  1  0.75109144  0.37384998  0.62348911  1
  V  V84  1  0.62309134  0.12356050  -0.00003202  1
  V  V85  1  -0.00048253  0.62286567  0.12269014  1
  V  V86  1  0.75021146  0.75065672  0.50050955  1
  V  V87  1  0.24981375  0.25106047  -0.00157839  1
  V  V88  1  0.74923289  0.87561599  0.12781890  1
  V  V89  1  0.50005266  0.11827469  0.62091356  1
  V  V90  1  0.12274949  0.25140050  0.87209907  1
  V  V91  1  0.49446345  0.74361665  0.25228144  1
  V  V92  1  0.12685430  -0.00090257  0.62559652  1
  Zn  Zn93  1  0.87856540  0.38539597  -0.00200162  1
  Zn  Zn94  1  0.37496982  0.37480267  -0.00236343  1
  Zn  Zn95  1  0.49759319  0.62143596  0.12834205  1
  Zn  Zn96  1  0.24745182  0.12072473  0.37070482  1
  Zn  Zn97  1  0.62086898  -0.00289657  0.62253287  1
  Zn  Zn98  1  -0.00237775  0.25409890  0.75008455  1
  Zn  Zn99  1  0.74961363  0.62459932  0.88007424  1
  Zn  Zn100  1  0.12559696  0.37517149  0.24889009  1
  Zn  Zn101  1  0.37567001  0.12353366  0.74804790  1
  Zn  Zn102  1  0.12265079  0.49742007  0.62130057  1
  Zn  Zn103  1  0.74901506  0.24930302  0.49964693  1
  Zn  Zn104  1  0.50053458  -0.00129543  0.00083287  1
  Zn  Zn105  1  0.62329827  0.24902782  0.37656429  1
  Zn  Zn106  1  0.87530928  0.62465051  0.25081461  1
  Zn  Zn107  1  0.00171747  0.50075537  0.49921629  1
  Zn  Zn108  1  0.11718152  0.12998338  0.00592739  1
  Zn  Zn109  1  0.00159914  0.62343942  0.62423089  1
  Zn  Zn110  1  0.62414614  0.50324361  0.12611190  1
  Zn  Zn111  1  0.24993081  0.37441743  0.62214728  1
  Zn  Zn112  1  0.37551269  0.49807528  0.87536149  1
  Zn  Zn113  1  -0.00560441  0.00901324  0.00435791  1
  Zn  Zn114  1  0.89001339  0.50437007  0.88650721  1
  Zn  Zn115  1  0.24978938  0.74901287  0.00207974  1
  Zn  Zn116  1  0.12456538  0.75230450  0.87693533  1
  Zn  Zn117  1  0.62207270  0.62617281  0.00198133  1
  Zn  Zn118  1  0.00326139  0.38672386  0.88762112  1
  Zn  Zn119  1  0.62433557  0.74775325  0.87735900  1
  Zn  Zn120  1  0.62280510  -0.00102517  0.12421595  1
  Zn  Zn121  1  0.87705910  0.00075040  0.37488482  1
  Zn  Zn122  1  0.18916012  0.18745600  0.18776501  1
  Zn  Zn123  1  0.18950556  0.18655086  0.68598438  1
  Zn  Zn124  1  0.18715975  0.69008847  0.18725102  1
  Zn  Zn125  1  0.18727675  0.68895720  0.68629671  1
  Zn  Zn126  1  0.68611033  0.18764118  0.18727028  1
  Zn  Zn127  1  0.68665580  0.18714571  0.68523658  1
  Zn  Zn128  1  0.68332954  0.68550629  0.18718134  1
  Zn  Zn129  1  0.68758840  0.68823310  0.68834614  1
  Zn  Zn130  1  0.31244980  0.31269994  0.31003256  1
  Zn  Zn131  1  0.31334402  0.31301126  0.80987764  1
  Zn  Zn132  1  0.31283830  0.81470535  0.31380282  1
  Zn  Zn133  1  0.31287958  0.81182043  0.81310091  1
  Zn  Zn134  1  0.81351300  0.31199120  0.31208700  1
  Zn  Zn135  1  0.81629017  0.31560431  0.81377793  1
  Zn  Zn136  1  0.81384813  0.81198120  0.31329335  1
  Zn  Zn137  1  0.81292807  0.81277091  0.81470092  1
  Zn  Zn138  1  0.18852199  0.43619714  0.43416059  1
  Zn  Zn139  1  0.18617864  0.43895945  0.93642456  1
  Zn  Zn140  1  0.18977413  0.93765498  0.43898334  1
  Zn  Zn141  1  0.18779509  0.93633820  0.93921917  1
  Zn  Zn142  1  0.68862781  0.43649343  0.43631278  1
  Zn  Zn143  1  0.69383485  0.43905392  0.94241388  1
  Zn  Zn144  1  0.68945892  0.93982923  0.43691696  1
  Zn  Zn145  1  0.68670610  0.93685307  0.93790185  1
  Zn  Zn146  1  0.30907659  0.06185148  0.06164553  1
  Zn  Zn147  1  0.31278260  0.06267793  0.56119649  1
  Zn  Zn148  1  0.31366487  0.56101058  0.05878203  1
  Zn  Zn149  1  0.31272911  0.56511747  0.56051787  1
  Zn  Zn150  1  0.80987460  0.06305039  0.06301517  1
  Zn  Zn151  1  0.81193032  0.06138590  0.56170121  1
  Zn  Zn152  1  0.81130263  0.56314628  0.06666566  1
  Zn  Zn153  1  0.81404822  0.56134052  0.56300566  1
  Zn  Zn154  1  0.43648024  0.43545773  0.18489861  1
  Zn  Zn155  1  0.43609547  0.43646871  0.68733658  1
  Zn  Zn156  1  0.43878345  0.93577609  0.18961297  1
  Zn  Zn157  1  0.43675733  0.93653447  0.69037877  1
  Zn  Zn158  1  0.93667865  0.43482435  0.18734473  1
  Zn  Zn159  1  0.94045119  0.44068257  0.68526254  1
  Zn  Zn160  1  0.93842503  0.93730278  0.18891796  1
  Zn  Zn161  1  0.93847801  0.93831099  0.68810618  1
  Zn  Zn162  1  0.06245558  0.06200986  0.31192794  1
  Zn  Zn163  1  0.06030599  0.06345934  0.81307651  1
  Zn  Zn164  1  0.06534647  0.56292258  0.31066235  1
  Zn  Zn165  1  0.06234792  0.56196628  0.80970883  1
  Zn  Zn166  1  0.56073641  0.06175047  0.31230441  1
  Zn  Zn167  1  0.56108195  0.06091799  0.81093383  1
  Zn  Zn168  1  0.56516692  0.56177262  0.31333558  1
  Zn  Zn169  1  0.56709239  0.56334191  0.81750015  1
  Zn  Zn170  1  0.43865857  0.18548232  0.43683409  1
  Zn  Zn171  1  0.43648001  0.18682574  0.93701601  1
  Zn  Zn172  1  0.43812410  0.68949254  0.43868756  1
  Zn  Zn173  1  0.43530269  0.68770459  0.94015847  1
  Zn  Zn174  1  0.93797209  0.18913462  0.43617895  1
  Zn  Zn175  1  0.94054842  0.18837731  0.93826357  1
  Zn  Zn176  1  0.93833225  0.68826027  0.43664821  1
  Zn  Zn177  1  0.93552522  0.68929877  0.93710803  1
  Zn  Zn178  1  0.06133724  0.31398658  0.05956120  1
  Zn  Zn179  1  0.06261038  0.31239336  0.56176105  1
  Zn  Zn180  1  0.06203523  0.81213870  0.06165081  1
  Zn  Zn181  1  0.06271684  0.81112572  0.56498336  1
  Zn  Zn182  1  0.56246272  0.31230298  0.06262238  1
  Zn  Zn183  1  0.56354531  0.30729591  0.56038040  1
  Zn  Zn184  1  0.55974743  0.81314905  0.06621285  1
  Zn  Zn185  1  0.56168446  0.81243917  0.56490368  1
  O  O186  1  0.13505706  0.10537188  0.12792614  1
  O  O187  1  0.11930791  0.11969072  0.61878047  1
  O  O188  1  0.11942888  0.62003895  0.11819027  1
  O  O189  1  0.12644384  0.62535022  0.61158150  1
  O  O190  1  0.61783766  0.12444473  0.11845176  1
  O  O191  1  0.61768528  0.12338678  0.61724490  1
  O  O192  1  0.61711201  0.62178582  0.12112818  1
  O  O193  1  0.61976928  0.61932326  0.61999284  1
  O  O194  1  0.38079531  0.38229320  0.37898155  1
  O  O195  1  0.38492517  0.37567148  0.87503057  1
  O  O196  1  0.38153777  0.88059318  0.38242433  1
  O  O197  1  0.37858982  0.87850485  0.88166234  1
  O  O198  1  0.88033939  0.37944459  0.37951403  1
  O  O199  1  0.88286959  0.37985311  0.87494024  1
  O  O200  1  0.88271766  0.87567841  0.38208236  1
  O  O201  1  0.87991917  0.88195911  0.88053340  1
  O  O202  1  0.26396249  -0.00011661  0.37628208  1
  O  O203  1  0.25184964  0.00714615  0.86811183  1
  O  O204  1  0.25496300  0.50790702  0.36608492  1
  O  O205  1  0.24955064  0.51045610  0.86434937  1
  O  O206  1  0.75382951  0.01036934  0.36849810  1
  O  O207  1  0.75591354  0.00562629  0.86918343  1
  O  O208  1  0.75606320  0.50533027  0.37058778  1
  O  O209  1  0.74255000  0.50041234  0.85554948  1
  O  O210  1  0.24416884  0.49786929  0.13080671  1
  O  O211  1  0.24996182  0.50095535  0.63561723  1
  O  O212  1  0.24047318  0.98554213  0.12211794  1
  O  O213  1  0.24387308  1.00740726  0.63890938  1
  O  O214  1  0.74821145  0.49124861  0.13562777  1
  O  O215  1  0.74428101  0.49434994  0.63194411  1
  O  O216  1  0.74826554  0.99316508  0.13309587  1
  O  O217  1  0.74969774  0.99262002  0.63218989  1
  O  O218  1  0.00161718  0.36306163  0.25495215  1
  O  O219  1  0.01557246  0.37505276  0.74850505  1
  O  O220  1  0.00909705  0.86992146  0.25610200  1
  O  O221  1  0.00693214  0.87119956  0.75659397  1
  O  O222  1  0.50409949  0.36981135  0.25456435  1
  O  O223  1  0.50628118  0.36989503  0.75413898  1
  O  O224  1  0.50484314  0.86628642  0.26147571  1
  O  O225  1  0.50447691  0.86823805  0.75582645  1
  O  O226  1  0.49130336  0.12946005  0.24451352  1
  O  O227  1  0.49907061  0.13227904  0.74120861  1
  O  O228  1  0.50313495  0.64029726  0.25416227  1
  O  O229  1  0.49532528  0.62853905  0.74571170  1
  O  O230  1  0.98858818  0.13463689  0.25683547  1
  O  O231  1  0.99274675  0.12624314  0.74216979  1
  O  O232  1  1.00314489  0.63344938  0.23980965  1
  O  O233  1  0.99044704  0.63257079  0.74822661  1
  O  O234  1  0.36678791  0.24960551  0.00618368  1
  O  O235  1  0.37061791  0.25482341  0.50235166  1
  O  O236  1  0.37316104  0.75718024  0.01237526  1
  O  O237  1  0.36886128  0.75773582  0.50413905  1
  O  O238  1  0.86735080  0.24466807  0.01136994  1
  O  O239  1  0.87333012  0.25657002  0.50580485  1
  O  O240  1  0.86735059  0.75721935  0.00719171  1
  O  O241  1  0.86980533  0.75526022  0.50519167  1
  O  O242  1  0.13007193  0.24392312  0.49333668  1
  O  O243  1  0.13277791  0.25005013  0.98912651  1
  O  O244  1  0.13411220  0.74659619  0.49530158  1
  O  O245  1  0.12812426  0.73712592  0.99981409  1
  O  O246  1  0.62943275  0.23640491  0.49650089  1
  O  O247  1  0.62957948  0.24299253  0.99332969  1
  O  O248  1  0.63032448  0.74484745  0.49637866  1
  O  O249  1  0.63555321  0.75382107  1.00202772  1
  O  O250  1  0.49277942  0.24302750  0.12965940  1
  O  O251  1  0.49500589  0.24160604  0.62961054  1
  O  O252  1  0.48965996  0.75177421  0.13652848  1
  O  O253  1  0.49498141  0.74284574  0.63169363  1
  O  O254  1  0.99125618  0.25311809  0.13625522  1
  O  O255  1  0.99353469  0.24329701  0.62602200  1
  O  O256  1  0.99529600  0.74317063  0.12997897  1
  O  O257  1  0.99265824  0.74840523  0.63250464  1
  O  O258  1  0.00523469  0.25486438  0.36523742  1
  O  O259  1  0.01597991  0.24975906  0.87002408  1
  O  O260  1  0.00753264  0.75613956  0.37020435  1
  O  O261  1  0.00068661  0.75853020  0.86844988  1
  O  O262  1  0.49900442  0.25693303  0.36748412  1
  O  O263  1  0.50567281  0.25417536  0.86902661  1
  O  O264  1  0.50377365  0.75821604  0.37039565  1
  O  O265  1  0.49849803  0.75627541  0.86888349  1
  O  O266  1  0.24332297  0.13035460  0.49608280  1
  O  O267  1  0.24418351  0.12977887  0.98889266  1
  O  O268  1  0.24446870  0.63450764  0.49046101  1
  O  O269  1  0.24181543  0.62480544  0.99053761  1
  O  O270  1  0.74438420  0.12486292  0.49009478  1
  O  O271  1  0.74356807  0.13029359  0.99325024  1
  O  O272  1  0.74481569  0.63077351  0.49573414  1
  O  O273  1  0.74999357  0.64173757  1.00354028  1
  O  O274  1  0.25137573  0.36979797  0.00495319  1
  O  O275  1  0.25733674  0.36842371  0.49911847  1
  O  O276  1  0.25506777  0.87056831  0.00929427  1
  O  O277  1  0.26043678  0.86280683  0.49388241  1
  O  O278  1  0.74699748  0.36188372  0.00926201  1
  O  O279  1  0.75674272  0.37370478  0.50598490  1
  O  O280  1  0.75566969  0.86944848  0.00761238  1
  O  O281  1  0.75556541  0.86996302  0.50475007  1
  O  O282  1  0.13718981  0.50063773  0.23945372  1
  O  O283  1  0.13546075  0.49308078  0.74707995  1
  O  O284  1  0.11948580  0.98838536  0.24034559  1
  O  O285  1  0.13065310  0.99343985  0.74661978  1
  O  O286  1  0.63129670  0.49150381  0.25103637  1
  O  O287  1  0.63110108  0.49494643  0.74190726  1
  O  O288  1  0.63119397  0.99279743  0.25031021  1
  O  O289  1  0.63243807  0.99205920  0.74910650  1
  O  O290  1  0.38044593  0.00805354  0.25993164  1
  O  O291  1  0.36368933  -0.00108858  0.75695905  1
  O  O292  1  0.36261864  0.49722356  0.25437837  1
  O  O293  1  0.36622836  0.50615148  0.75073445  1
  O  O294  1  0.87078418  0.00973626  0.25055277  1
  O  O295  1  0.86901365  0.00551778  0.75531706  1
  O  O296  1  0.86812109  0.50103007  0.25681694  1
  O  O297  1  0.86581368  0.50998219  0.74547281  1
  O  O298  1  0.11917465  0.36776766  0.37106944  1
  O  O299  1  0.12857104  0.36619462  0.86523982  1
  O  O300  1  0.12237806  0.87163408  0.36864476  1
  O  O301  1  0.11896784  0.87509394  0.86535711  1
  O  O302  1  0.61796158  0.37280566  0.36950186  1
  O  O303  1  0.62026941  0.36824012  0.86818875  1
  O  O304  1  0.61780226  0.87081114  0.37396750  1
  O  O305  1  0.61740476  0.87279113  0.86887011  1
  O  O306  1  0.37800198  0.12751435  0.13171054  1
  O  O307  1  0.38405326  0.13046086  0.62361104  1
  O  O308  1  0.37289131  0.63969385  0.12248489  1
  O  O309  1  0.38147985  0.63126283  0.62952845  1
  O  O310  1  0.86696553  0.13528455  0.13734352  1
  O  O311  1  0.87960617  0.12978248  0.62879260  1
  O  O312  1  0.88514390  0.63039812  0.12781506  1
  O  O313  1  0.87478424  0.63229221  0.63391419  1
  O  O314  1  0.25256829  0.25510213  0.11854751  1
  O  O315  1  0.25770061  0.24903939  0.61584288  1
  O  O316  1  0.25684830  0.76026394  0.12685124  1
  O  O317  1  0.25816928  0.74379806  0.61216270  1
  O  O318  1  0.75765282  0.25327139  0.12162702  1
  O  O319  1  0.75711128  0.25650476  0.62395935  1
  O  O320  1  0.75539642  0.75660183  0.12131083  1
  O  O321  1  0.75523667  0.75634074  0.61931753  1
  O  O322  1  0.24373008  0.24828642  0.37916650  1
  O  O323  1  0.24399351  0.24279669  0.87690329  1
  O  O324  1  0.24724891  0.74400604  0.38181887  1
  O  O325  1  0.24793872  0.73728881  0.87532352  1
  O  O326  1  0.74848541  0.23678309  0.37412885  1
  O  O327  1  0.74443936  0.24440709  0.87876940  1
  O  O328  1  0.74416618  0.74582894  0.38121976  1
  O  O329  1  0.74956600  0.75271511  0.88919361  1
  O  O330  1  0.00619804  0.12081316  -0.00391786  1
  O  O331  1  0.00598421  0.11946781  0.50417102  1
  O  O332  1  0.00744309  0.63152525  0.01259499  1
  O  O333  1  0.01497999  0.62726065  0.49746817  1
  O  O334  1  0.50519654  0.12371006  0.00565686  1
  O  O335  1  0.50921484  0.12989943  0.50960918  1
  O  O336  1  0.49843910  0.61282680  0.00091659  1
  O  O337  1  0.50551553  0.61998392  0.50551633  1
  O  O338  1  0.49565926  0.38022788  0.49420743  1
  O  O339  1  0.49953084  0.38133438  0.99280752  1
  O  O340  1  0.49049131  0.86583295  0.48972698  1
  O  O341  1  0.49240428  0.87595281  0.99473846  1
  O  O342  1  0.99447506  0.37563487  0.49095893  1
  O  O343  1  0.99184628  0.37445363  1.00119260  1
  O  O344  1  0.99687783  0.87914044  0.49586239  1
  O  O345  1  0.99281054  0.87679166  0.99417461  1
  O  O346  1  0.49486195  0.49572555  0.38018221  1
  O  O347  1  0.50011413  0.49224251  0.88181540  1
  O  O348  1  0.49121919  0.98689238  0.37255326  1
  O  O349  1  0.49075608  0.99284919  0.87497084  1
  O  O350  1  0.99527746  0.49371272  0.37301177  1
  O  O351  1  1.00225067  0.50102522  0.87713969  1
  O  O352  1  0.99995871  0.99302750  0.38229005  1
  O  O353  1  0.99213842  0.99328924  0.87463645  1
  O  O354  1  0.01550289  -0.00684144  0.12410223  1
  O  O355  1  0.00634183  0.00597361  0.61949692  1
  O  O356  1  0.01086906  0.51088172  0.13540194  1
  O  O357  1  0.00492892  0.50625474  0.61746078  1
  O  O358  1  0.50144455  0.00688611  0.12312140  1
  O  O359  1  0.50034177  0.01442528  0.63318677  1
  O  O360  1  0.49955107  0.50035865  0.11552654  1
  O  O361  1  0.50469246  0.50489007  0.61931686  1
  O  O362  1  0.24774280  0.38536107  0.24290152  1
  O  O363  1  0.24301239  0.38461725  0.74826441  1
  O  O364  1  0.23887467  0.87013221  0.24333607  1
  O  O365  1  0.23960956  0.88534136  0.75793527  1
  O  O366  1  0.74425645  0.37837356  0.24707358  1
  O  O367  1  0.74492350  0.38238562  0.74265069  1
  O  O368  1  0.74504217  0.87970087  0.24815378  1
  O  O369  1  0.74570672  0.87894686  0.74538191  1
  O  O370  1  0.26661072  0.13034619  0.25208200  1
  O  O371  1  0.25090967  0.11524605  0.75880383  1
  O  O372  1  0.24396147  0.61854322  0.26055298  1
  O  O373  1  0.25310946  0.61938834  0.75583025  1
  O  O374  1  0.75651031  0.12092379  0.25708343  1
  O  O375  1  0.75450620  0.11966344  0.75421800  1
  O  O376  1  0.75008252  0.61899650  0.25806223  1
  O  O377  1  0.75829459  0.61774998  0.74732406  1
  O  O378  1  0.37746841  0.11420677  0.36849182  1
  O  O379  1  0.36325766  0.11931690  0.87301844  1
  O  O380  1  0.36331515  0.62011334  0.38253126  1
  O  O381  1  0.36451116  0.62386421  0.86853015  1
  O  O382  1  0.86680026  0.12527491  0.36526482  1
  O  O383  1  0.86816540  0.12168396  0.86818339  1
  O  O384  1  0.86902718  0.61980708  0.37391747  1
  O  O385  1  0.87000603  0.62589226  0.86199230  1
  O  O386  1  0.13095095  0.38545021  0.12519839  1
  O  O387  1  0.13055458  0.37517868  0.63322171  1
  O  O388  1  0.13166140  0.87974796  0.13225579  1
  O  O389  1  0.11935096  0.88200218  0.63916022  1
  O  O390  1  0.63176156  0.37390073  0.13367568  1
  O  O391  1  0.62946114  0.37899244  0.62871177  1
  O  O392  1  0.63104390  0.87580821  0.13471588  1
  O  O393  1  0.63071543  0.87642707  0.63138029  1
  O  O394  1  0.11608826  0.24866847  0.25290048  1
  O  O395  1  0.12887882  0.25878966  0.75593210  1
  O  O396  1  0.12055664  0.75992505  0.25516244  1
  O  O397  1  0.12038167  0.75933142  0.75024906  1
  O  O398  1  0.61692176  0.25524859  0.25247232  1
  O  O399  1  0.62011054  0.25546441  0.75425766  1
  O  O400  1  0.61715234  0.75660685  0.25820134  1
  O  O401  1  0.61830818  0.75622935  0.75119836  1
  O  O402  1  0.38059887  0.24147277  0.24411727  1
  O  O403  1  0.38069532  0.24767772  0.74130732  1
  O  O404  1  0.38360041  0.75804326  0.24356800  1
  O  O405  1  0.37981416  0.74502903  0.74430359  1
  O  O406  1  0.88159482  0.24299456  0.24292379  1
  O  O407  1  0.87607878  0.24335876  0.74221650  1
  O  O408  1  0.88232604  0.74914118  0.24404086  1
  O  O409  1  0.87805723  0.74331227  0.74541892  1
  O  O410  1  0.38042110  0.49514248  0.49389615  1
  O  O411  1  0.38533154  0.49573643  0.99627255  1
  O  O412  1  0.36989183  0.98688315  0.49329451  1
  O  O413  1  0.37362911  0.99217500  0.99362847  1
  O  O414  1  0.87659465  0.49384421  0.49196481  1
  O  O415  1  0.83844105  0.49300828  0.98685833  1
  O  O416  1  0.88325312  0.99290832  0.49901672  1
  O  O417  1  0.87293838  0.99418446  0.99423488  1
  O  O418  1  0.12387474  -0.00278563  0.01466894  1
  O  O419  1  0.12157850  0.00364376  0.50560290  1
  O  O420  1  0.13123249  0.51170088  0.01238430  1
  O  O421  1  0.12869122  0.51218245  0.49785605  1
  O  O422  1  0.62323620  0.00844633  0.00206261  1
  O  O423  1  0.62939188  0.01301635  0.50253416  1
  O  O424  1  0.61371086  0.49891830  0.00217728  1
  O  O425  1  0.61981488  0.50519077  0.50490241  1
  O  O426  1  0.36699110  0.36570280  0.12324439  1
  O  O427  1  0.37476704  0.36767915  0.61641509  1
  O  O428  1  0.36693690  0.86945936  0.12322153  1
  O  O429  1  0.38451950  0.86808427  0.61399094  1
  O  O430  1  0.86683033  0.36156703  0.12806282  1
  O  O431  1  0.87082599  0.37014393  0.61983518  1
  O  O432  1  0.86976767  0.87025831  0.12171479  1
  O  O433  1  0.87022284  0.86950963  0.62017537  1
  O  O434  1  0.12673437  0.13024622  0.37981683  1
  O  O435  1  0.13560870  0.13397330  0.87005287  1
  O  O436  1  0.13544309  0.63157067  0.38143607  1
  O  O437  1  0.13230951  0.62668661  0.88243680  1
  O  O438  1  0.63200135  0.12428486  0.38090825  1
  O  O439  1  0.63010557  0.13031707  0.87832498  1
  O  O440  1  0.63075233  0.63084789  0.38283205  1
  O  O441  1  0.63196431  0.63052085  0.88211609  1
