# generated using pymatgen
data_V93Zn93O256
_symmetry_space_group_name_H-M   'P 1'
_cell_length_a   17.05919878
_cell_length_b   17.07039661
_cell_length_c   17.06458816
_cell_angle_alpha   89.98335198
_cell_angle_beta   90.00625852
_cell_angle_gamma   89.94740303
_symmetry_Int_Tables_number   1
_chemical_formula_structural   V93Zn93O256
_chemical_formula_sum   'V93 Zn93 O256'
_cell_volume   4969.33012426
_cell_formula_units_Z   1
loop_
 _symmetry_equiv_pos_site_id
 _symmetry_equiv_pos_as_xyz
  1  'x, y, z'
loop_
 _atom_site_type_symbol
 _atom_site_label
 _atom_site_symmetry_multiplicity
 _atom_site_fract_x
 _atom_site_fract_y
 _atom_site_fract_z
 _atom_site_occupancy
  V  V0  1  0.62276917  0.37620460  0.75105664  1
  V  V1  1  0.25123578  -0.00075817  0.24937698  1
  V  V2  1  0.37459674  0.74900578  0.62479304  1
  V  V3  1  0.75546012  0.12524854  0.87001839  1
  V  V4  1  0.24712916  0.87664629  0.62542519  1
  V  V5  1  0.75179153  0.24926476  0.00154863  1
  V  V6  1  0.50076963  -0.00002984  0.00156143  1
  V  V7  1  0.75495030  0.00064115  0.25834328  1
  V  V8  1  0.50060460  0.87540238  0.37523568  1
  V  V9  1  0.00041148  0.62293129  0.62365582  1
  V  V10  1  0.49999242  0.87518532  0.87472775  1
  V  V11  1  0.00074046  0.50030270  -0.00012001  1
  V  V12  1  0.62466620  0.74961063  0.87533924  1
  V  V13  1  0.50013964  0.75076501  0.24891316  1
  V  V14  1  0.74999698  0.49953429  0.24997768  1
  V  V15  1  0.24946411  0.12813697  0.37391662  1
  V  V16  1  0.37528625  0.87406573  0.00014862  1
  V  V17  1  0.25735583  0.25050585  0.00473281  1
  V  V18  1  0.62520796  0.87513971  0.74944640  1
  V  V19  1  0.00149480  0.49685331  0.50111780  1
  V  V20  1  0.62691540  0.87584970  0.25082102  1
  V  V21  1  0.74698621  0.25063635  0.50093443  1
  V  V22  1  0.49561898  0.00004210  0.49931625  1
  V  V23  1  0.37602557  0.12615872  0.74998563  1
  V  V24  1  0.00070626  0.37560738  0.37176416  1
  V  V25  1  0.74834860  0.37631115  0.62524848  1
  V  V26  1  0.87475053  0.00055198  0.87469563  1
  V  V27  1  0.24773922  0.37491085  0.62371013  1
  V  V28  1  0.12413452  0.62839878  0.49614225  1
  V  V29  1  0.49561134  0.12525779  0.62579894  1
  V  V30  1  0.12449947  -0.00297910  0.12591842  1
  V  V31  1  0.75149714  0.75037400  0.49896280  1
  V  V32  1  0.87464829  0.49904116  0.37548538  1
  V  V33  1  0.37548253  -0.00016625  0.87475578  1
  V  V34  1  0.49984062  0.49934610  -0.00013067  1
  V  V35  1  0.62142041  0.12630467  0.49905123  1
  V  V36  1  0.62559757  0.74967940  0.37449202  1
  V  V37  1  0.62504556  0.00002549  0.12637659  1
  V  V38  1  0.12607941  0.74955038  0.87576812  1
  V  V39  1  0.62478862  0.24975677  0.87483466  1
  V  V40  1  0.87571982  0.12405981  0.25428272  1
  V  V41  1  0.87692948  0.88847703  0.49530460  1
  V  V42  1  -0.00410207  0.24700237  0.75066661  1
  V  V43  1  0.12589578  0.49977470  0.12361940  1
  V  V44  1  0.37568941  0.87356103  0.49994823  1
  V  V45  1  0.37610960  0.74975021  0.12442811  1
  V  V46  1  0.12415885  0.25037357  0.87607178  1
  V  V47  1  0.87394926  0.24604766  0.63138147  1
  V  V48  1  0.49949580  0.13054698  0.12487057  1
  V  V49  1  -0.00017520  0.87468456  0.87732721  1
  V  V50  1  0.62546170  0.62508557  0.50012546  1
  V  V51  1  0.12589914  0.87587585  0.74771155  1
  V  V52  1  0.62594406  0.50072686  0.12540916  1
  V  V53  1  0.75125510  0.75110830  0.00164846  1
  V  V54  1  0.87543053  0.87532537  0.00086425  1
  V  V55  1  0.87512020  0.49895784  0.87574721  1
  V  V56  1  0.75050986  0.00062262  0.75051605  1
  V  V57  1  0.49904912  0.75035348  0.74988866  1
  V  V58  1  0.37557778  0.49701885  0.87607834  1
  V  V59  1  0.37394153  0.62359141  0.74922588  1
  V  V60  1  0.50065964  0.25534750  0.25212016  1
  V  V61  1  0.87527642  0.62423309  0.74993737  1
  V  V62  1  0.00204243  0.89170780  0.37879122  1
  V  V63  1  0.00652718  0.74876869  0.26101579  1
  V  V64  1  0.75016658  0.37360174  0.12636728  1
  V  V65  1  0.75050143  0.62469882  0.37453560  1
  V  V66  1  0.74908710  0.87485973  0.62430259  1
  V  V67  1  0.24769079  0.74956252  0.49692660  1
  V  V68  1  0.87663086  0.62582456  0.25027126  1
  V  V69  1  0.24949543  0.74865470  -0.00009901  1
  V  V70  1  0.12621268  0.37411205  0.75108418  1
  V  V71  1  0.00089740  0.74726653  0.75008332  1
  V  V72  1  0.62561278  0.62520135  0.00002234  1
  V  V73  1  0.37848033  0.49970387  0.37385449  1
  V  V74  1  0.87454288  0.74769209  0.62268138  1
  V  V75  1  0.12419733  0.12400596  0.00287887  1
  V  V76  1  0.24985471  0.25210180  0.49569962  1
  V  V77  1  0.37999551  0.37664186  0.49555972  1
  V  V78  1  0.12577122  0.37458313  0.25047180  1
  V  V79  1  0.62062340  0.25635973  0.37561020  1
  V  V80  1  0.25100752  0.49880874  0.74917460  1
  V  V81  1  0.25230202  0.12488469  0.87642082  1
  V  V82  1  0.87439791  0.37433149  0.50024829  1
  V  V83  1  0.24759376  0.62802842  0.37339271  1
  V  V84  1  0.75037319  0.62526583  0.87551813  1
  V  V85  1  0.50047253  0.49912394  0.49745101  1
  V  V86  1  0.00085077  0.62648941  0.12656895  1
  V  V87  1  0.25657945  0.37315035  0.12429744  1
  V  V88  1  0.50022027  0.62600434  0.12536091  1
  V  V89  1  0.75209548  0.87588653  0.12615422  1
  V  V90  1  0.37572988  0.13164656  0.24448826  1
  V  V91  1  0.62465173  0.50045843  0.62536556  1
  V  V92  1  0.50002583  0.62548404  0.62435762  1
  Zn  Zn93  1  0.87773040  0.75206715  0.12721015  1
  Zn  Zn94  1  0.62425416  0.00052248  0.62572866  1
  Zn  Zn95  1  0.50004133  0.37312410  0.87793674  1
  Zn  Zn96  1  0.38007074  0.37056581  0.00464620  1
  Zn  Zn97  1  0.24812325  0.62366504  0.87319652  1
  Zn  Zn98  1  0.12943814  0.86790318  0.25895120  1
  Zn  Zn99  1  0.37371045  0.62541146  0.24973783  1
  Zn  Zn100  1  0.12088214  0.24723352  0.37299536  1
  Zn  Zn101  1  -0.00259240  0.25167298  0.24494684  1
  Zn  Zn102  1  0.62615786  0.12329945  0.00090502  1
  Zn  Zn103  1  0.12534178  0.49984024  0.62576854  1
  Zn  Zn104  1  0.87692965  0.37386738  0.00140356  1
  Zn  Zn105  1  0.75130398  0.12330287  0.37830974  1
  Zn  Zn106  1  0.93096149  0.08255663  0.69509330  1
  Zn  Zn107  1  0.87745467  0.24819601  0.12482969  1
  Zn  Zn108  1  0.25011203  0.87229842  0.12854016  1
  Zn  Zn109  1  0.09522984  0.01151598  0.62747726  1
  Zn  Zn110  1  0.00027217  0.37558465  0.87609796  1
  Zn  Zn111  1  -0.00163173  -0.00064003  0.00262148  1
  Zn  Zn112  1  0.09204752  0.10310974  0.49256267  1
  Zn  Zn113  1  0.37555937  -0.00065529  0.37233390  1
  Zn  Zn114  1  0.12559238  0.62532764  -0.00125490  1
  Zn  Zn115  1  0.25254039  0.50153280  0.24789462  1
  Zn  Zn116  1  0.24630829  0.00383757  0.75002654  1
  Zn  Zn117  1  0.62013312  0.37831883  0.25530667  1
  Zn  Zn118  1  0.49930812  0.25017998  0.75056237  1
  Zn  Zn119  1  0.74977052  0.50136095  0.75044498  1
  Zn  Zn120  1  -0.00348729  0.12677039  0.12490172  1
  Zn  Zn121  1  0.37604493  0.25229474  0.62559495  1
  Zn  Zn122  1  0.18703684  0.18963567  0.18568617  1
  Zn  Zn123  1  0.18640850  0.19142872  0.68732808  1
  Zn  Zn124  1  0.18632330  0.68627559  0.18672901  1
  Zn  Zn125  1  0.18682372  0.68689776  0.68506245  1
  Zn  Zn126  1  0.68635984  0.18592261  0.19015951  1
  Zn  Zn127  1  0.68561279  0.18709956  0.68696436  1
  Zn  Zn128  1  0.68882436  0.68832078  0.18721288  1
  Zn  Zn129  1  0.68835318  0.68788982  0.68816946  1
  Zn  Zn130  1  0.31457858  0.31451208  0.30998367  1
  Zn  Zn131  1  0.31176894  0.31102429  0.81525360  1
  Zn  Zn132  1  0.31477198  0.81142012  0.31339042  1
  Zn  Zn133  1  0.31210048  0.81163396  0.81314973  1
  Zn  Zn134  1  0.81014063  0.30920853  0.31277220  1
  Zn  Zn135  1  0.81066763  0.31539232  0.81256828  1
  Zn  Zn136  1  0.81897280  0.81336830  0.31379380  1
  Zn  Zn137  1  0.81281197  0.81253036  0.81298229  1
  Zn  Zn138  1  0.18874279  0.44105462  0.43688112  1
  Zn  Zn139  1  0.18901412  0.43607523  0.93779785  1
  Zn  Zn140  1  0.18381292  0.93674281  0.43650065  1
  Zn  Zn141  1  0.18922103  0.93649184  0.93740731  1
  Zn  Zn142  1  0.68706395  0.43675757  0.43758887  1
  Zn  Zn143  1  0.68875095  0.43692186  0.93905088  1
  Zn  Zn144  1  0.68537000  0.93735649  0.43974767  1
  Zn  Zn145  1  0.68747982  0.93782966  0.93841629  1
  Zn  Zn146  1  0.31348831  0.06196253  0.06358650  1
  Zn  Zn147  1  0.23794466  0.06505054  0.56267512  1
  Zn  Zn148  1  0.31297634  0.56259215  0.06209951  1
  Zn  Zn149  1  0.31165975  0.56146507  0.56104162  1
  Zn  Zn150  1  0.81273740  0.06260736  0.06482813  1
  Zn  Zn151  1  0.80668681  0.06360465  0.56151880  1
  Zn  Zn152  1  0.81424265  0.56358222  0.06354217  1
  Zn  Zn153  1  0.81231521  0.56085752  0.56226316  1
  Zn  Zn154  1  0.43748079  0.44010407  0.18784291  1
  Zn  Zn155  1  0.43733688  0.43731386  0.68562807  1
  Zn  Zn156  1  0.43723366  0.93822643  0.18640707  1
  Zn  Zn157  1  0.43438290  0.93953576  0.68611786  1
  Zn  Zn158  1  0.93651164  0.43853249  0.18614148  1
  Zn  Zn159  1  0.93888739  0.43373149  0.68829304  1
  Zn  Zn160  1  0.93907486  0.93776672  0.19074402  1
  Zn  Zn161  1  0.93375220  0.92282514  0.68884429  1
  Zn  Zn162  1  0.06384374  0.06392760  0.30893256  1
  Zn  Zn163  1  0.06541678  0.06015426  0.81745743  1
  Zn  Zn164  1  0.06411001  0.56007172  0.31176633  1
  Zn  Zn165  1  0.06487925  0.56215999  0.81284748  1
  Zn  Zn166  1  0.56512613  0.06494439  0.31360951  1
  Zn  Zn167  1  0.56513713  0.06248798  0.81344037  1
  Zn  Zn168  1  0.56179411  0.56361905  0.31159001  1
  Zn  Zn169  1  0.56065853  0.56232033  0.81297072  1
  Zn  Zn170  1  0.43397531  0.18727317  0.43354858  1
  Zn  Zn171  1  0.43968855  0.18596694  0.93757345  1
  Zn  Zn172  1  0.43626893  0.68667791  0.43648400  1
  Zn  Zn173  1  0.43629255  0.68498924  0.93689354  1
  Zn  Zn174  1  0.93210806  0.19032942  0.42971195  1
  Zn  Zn175  1  0.93825045  0.18744190  0.93633257  1
  Zn  Zn176  1  0.93733813  0.68873952  0.43778788  1
  Zn  Zn177  1  0.93783024  0.68754442  0.93883849  1
  Zn  Zn178  1  0.06395328  0.31220067  0.06457500  1
  Zn  Zn179  1  0.04374547  0.27622901  0.54291772  1
  Zn  Zn180  1  0.06233486  0.81194797  0.06685383  1
  Zn  Zn181  1  0.06079509  0.81300442  0.55901165  1
  Zn  Zn182  1  0.56494487  0.31373237  0.06367924  1
  Zn  Zn183  1  0.56059383  0.31162035  0.56407702  1
  Zn  Zn184  1  0.56396297  0.81349329  0.06294370  1
  Zn  Zn185  1  0.56345986  0.81198778  0.56282676  1
  O  O186  1  0.12688700  0.11614173  0.11702442  1
  O  O187  1  0.14729080  0.11619286  0.61629743  1
  O  O188  1  0.11850733  0.61660631  0.12200330  1
  O  O189  1  0.11876631  0.62205007  0.61553231  1
  O  O190  1  0.61603079  0.11786062  0.12485916  1
  O  O191  1  0.61252316  0.12442793  0.61944858  1
  O  O192  1  0.62103275  0.62041497  0.11916989  1
  O  O193  1  0.62018805  0.62091388  0.61987195  1
  O  O194  1  0.36749362  0.38783486  0.38483393  1
  O  O195  1  0.37753778  0.38658222  0.87587441  1
  O  O196  1  0.38283165  0.87632413  0.38191658  1
  O  O197  1  0.38133819  0.87945768  0.87939410  1
  O  O198  1  0.87876486  0.38036679  0.37938403  1
  O  O199  1  0.87424474  0.38872405  0.87777698  1
  O  O200  1  0.88811304  0.87138450  0.38409974  1
  O  O201  1  0.87974115  0.88000431  0.88053102  1
  O  O202  1  0.25105234  0.00949188  0.36442175  1
  O  O203  1  0.25738739  0.00646207  0.87365650  1
  O  O204  1  0.26102305  0.51099520  0.37559526  1
  O  O205  1  0.25944818  0.50049063  0.86909588  1
  O  O206  1  0.74175047  0.00142333  0.36173942  1
  O  O207  1  0.75360300  0.00721506  0.87139704  1
  O  O208  1  0.75449436  0.50507054  0.37040735  1
  O  O209  1  0.75908590  0.50704545  0.87618316  1
  O  O210  1  0.24361338  0.49221554  0.12346185  1
  O  O211  1  0.25126803  0.49115078  0.63095546  1
  O  O212  1  0.24393814  0.99918425  0.13384251  1
  O  O213  1  0.26196722  0.97935683  0.63292588  1
  O  O214  1  0.74573135  0.49359559  0.12935359  1
  O  O215  1  0.74248587  0.49467449  0.62662638  1
  O  O216  1  0.74367658  0.99416343  0.13413353  1
  O  O217  1  0.74652863  0.99283542  0.63227711  1
  O  O218  1  0.01003281  0.37967189  0.25334975  1
  O  O219  1  0.00804721  0.36675811  0.75422998  1
  O  O220  1  -0.00161391  0.86911762  0.26506480  1
  O  O221  1  0.00794006  0.86521676  0.75682669  1
  O  O222  1  0.50108972  0.35940668  0.23942151  1
  O  O223  1  0.51202248  0.37298269  0.75072157  1
  O  O224  1  0.50656859  0.87093657  0.25480826  1
  O  O225  1  0.50365666  0.86980334  0.75472737  1
  O  O226  1  0.49399601  0.13078620  0.24312581  1
  O  O227  1  0.49429393  0.12415869  0.74344753  1
  O  O228  1  0.50008853  0.63360674  0.24277831  1
  O  O229  1  0.49460532  0.63073656  0.74372575  1
  O  O230  1  0.98735832  0.12521757  0.24961398  1
  O  O231  1  1.00320208  0.14127292  0.76052411  1
  O  O232  1  0.99684210  0.62980914  0.24712762  1
  O  O233  1  0.99538674  0.62891010  0.74393032  1
  O  O234  1  0.36136518  0.25079855  -0.00741032  1
  O  O235  1  0.36842536  0.26202036  0.49630850  1
  O  O236  1  0.36894722  0.75417427  0.00355524  1
  O  O237  1  0.36969893  0.75440909  0.50586073  1
  O  O238  1  0.86233414  0.25219857  -0.00013207  1
  O  O239  1  0.86560775  0.25762284  0.50952000  1
  O  O240  1  0.86811355  0.75666110  0.00126309  1
  O  O241  1  0.86831037  0.75399786  0.50510417  1
  O  O242  1  0.14707819  0.26313705  0.49144608  1
  O  O243  1  0.13357753  0.24110927  0.99639632  1
  O  O244  1  0.13023457  0.73546105  0.50495092  1
  O  O245  1  0.13434796  0.75144646  0.99551321  1
  O  O246  1  0.62627803  0.24677615  0.49425670  1
  O  O247  1  0.63527791  0.25090684  0.99030318  1
  O  O248  1  0.63095229  0.74458871  0.49427334  1
  O  O249  1  0.63048064  0.74512598  0.99441503  1
  O  O250  1  0.50992135  0.23692291  0.13296013  1
  O  O251  1  0.49631503  0.23846947  0.62713121  1
  O  O252  1  0.49655294  0.74558353  0.12896939  1
  O  O253  1  0.49478295  0.74468732  0.63008614  1
  O  O254  1  0.99644313  0.24643338  0.12740006  1
  O  O255  1  0.98535111  0.25816043  0.64024857  1
  O  O256  1  0.99757319  0.74367657  0.13458039  1
  O  O257  1  0.99411792  0.74353247  0.62982739  1
  O  O258  1  0.00192586  0.26399291  0.36462657  1
  O  O259  1  0.00469581  0.25481373  0.86977585  1
  O  O260  1  -0.00124147  0.75017273  0.36440185  1
  O  O261  1  0.00537959  0.75451283  0.86989624  1
  O  O262  1  0.50838920  0.24378467  0.36415777  1
  O  O263  1  0.51338504  0.25097638  0.87527104  1
  O  O264  1  0.50599627  0.75480497  0.37013361  1
  O  O265  1  0.50454899  0.75473970  0.86983980  1
  O  O266  1  0.26470962  0.13917791  0.48301648  1
  O  O267  1  0.24419066  0.13169514  0.99792652  1
  O  O268  1  0.24284579  0.62888330  0.49450411  1
  O  O269  1  0.24957804  0.63804166  0.99785867  1
  O  O270  1  0.73948218  0.13231935  0.49965751  1
  O  O271  1  0.74698337  0.13375432  0.99217887  1
  O  O272  1  0.74501033  0.62972954  0.49438733  1
  O  O273  1  0.74486125  0.63070359  0.99567497  1
  O  O274  1  0.25024171  0.36626581  0.00795986  1
  O  O275  1  0.26093425  0.37364989  0.50550540  1
  O  O276  1  0.25685764  0.86410032  0.00059015  1
  O  O277  1  0.25489484  0.86888064  0.50620769  1
  O  O278  1  0.75057448  0.36684054  0.00867845  1
  O  O279  1  0.75424733  0.37091180  0.50632674  1
  O  O280  1  0.75478442  0.87026890  0.00566819  1
  O  O281  1  0.75586027  0.86910183  0.50317538  1
  O  O282  1  0.12807214  0.49038179  0.24254313  1
  O  O283  1  0.13221413  0.49261960  0.74828946  1
  O  O284  1  0.13642216  1.00168854  0.24131615  1
  O  O285  1  0.12609584  0.98737907  0.74832844  1
  O  O286  1  0.63090930  0.49896562  0.24458045  1
  O  O287  1  0.62524527  0.49261245  0.74492941  1
  O  O288  1  0.63218147  0.99469390  0.24542391  1
  O  O289  1  0.63112237  0.99152911  0.74973652  1
  O  O290  1  0.36607567  0.00887792  0.24881201  1
  O  O291  1  0.37462984  0.00987775  0.75736294  1
  O  O292  1  0.37446668  0.50302394  0.26083849  1
  O  O293  1  0.37187640  0.50375753  0.75699587  1
  O  O294  1  0.86457318  0.01007346  0.24505029  1
  O  O295  1  0.86695581  -0.00205330  0.75801320  1
  O  O296  1  0.86956756  0.50565732  0.25639126  1
  O  O297  1  0.87503648  0.50530286  0.75980730  1
  O  O298  1  0.12111741  0.37950153  0.36412568  1
  O  O299  1  0.12567030  0.36749720  0.86897318  1
  O  O300  1  0.10809039  0.87644644  0.37619207  1
  O  O301  1  0.12116479  0.87005836  0.86671603  1
  O  O302  1  0.62634753  0.36215791  0.37487963  1
  O  O303  1  0.62684578  0.36751790  0.86733017  1
  O  O304  1  0.62016847  0.86797792  0.37031077  1
  O  O305  1  0.61950210  0.86874431  0.86997303  1
  O  O306  1  0.38629411  0.12013725  0.13434937  1
  O  O307  1  0.38488779  0.12679274  0.63790100  1
  O  O308  1  0.38264375  0.63129542  0.12589298  1
  O  O309  1  0.38028885  0.62959641  0.62868973  1
  O  O310  1  0.87572337  0.12667896  0.13564731  1
  O  O311  1  0.86253614  0.14205731  0.62608869  1
  O  O312  1  0.88238060  0.62513402  0.13337926  1
  O  O313  1  0.88009735  0.62851954  0.62947018  1
  O  O314  1  0.24491240  0.25979076  0.11468911  1
  O  O315  1  0.25634140  0.25876748  0.61443437  1
  O  O316  1  0.25605831  0.75086372  0.11652501  1
  O  O317  1  0.25487203  0.75822192  0.61889762  1
  O  O318  1  0.74549982  0.25719140  0.11633967  1
  O  O319  1  0.75329060  0.25758281  0.62193796  1
  O  O320  1  0.75208459  0.75746750  0.11946774  1
  O  O321  1  0.75460691  0.75434335  0.61887845  1
  O  O322  1  0.25197021  0.24267747  0.37702788  1
  O  O323  1  0.24350516  0.24430686  0.88405617  1
  O  O324  1  0.25720466  0.73703613  0.38161528  1
  O  O325  1  0.24584704  0.74882959  0.88410842  1
  O  O326  1  0.73935965  0.24849179  0.38347860  1
  O  O327  1  0.74445048  0.24442940  0.88083001  1
  O  O328  1  0.74513746  0.74445014  0.37869617  1
  O  O329  1  0.74421382  0.74505031  0.88082891  1
  O  O330  1  0.01420970  0.12267695  -0.00083496  1
  O  O331  1  0.01050193  0.17227948  0.50401077  1
  O  O332  1  0.00070906  0.61534675  0.00626097  1
  O  O333  1  0.00640523  0.61899891  0.50327906  1
  O  O334  1  0.50132364  0.11952390  0.00955136  1
  O  O335  1  0.49971940  0.11862068  0.50645283  1
  O  O336  1  0.50662148  0.62027990  0.00541322  1
  O  O337  1  0.50655450  0.62111969  0.50559469  1
  O  O338  1  0.48693164  0.38232062  0.50900123  1
  O  O339  1  0.49809388  0.38212181  0.99976846  1
  O  O340  1  0.49708272  0.88059451  0.49599900  1
  O  O341  1  0.49536018  0.87961902  0.99420681  1
  O  O342  1  0.99364738  0.37630250  0.49240757  1
  O  O343  1  0.99820582  0.38806164  0.99966102  1
  O  O344  1  0.99192346  0.87063241  0.48731481  1
  O  O345  1  0.99449399  0.87526404  0.99427053  1
  O  O346  1  0.48849937  0.50883738  0.38216481  1
  O  O347  1  0.49185594  0.49879769  0.88095283  1
  O  O348  1  0.50108343  0.99417396  0.38219338  1
  O  O349  1  0.49605879  0.99472032  0.88140601  1
  O  O350  1  0.99362000  0.49467962  0.38110742  1
  O  O351  1  0.99193262  0.50128984  0.88305177  1
  O  O352  1  1.00061098  0.99048577  0.37341870  1
  O  O353  1  0.99355448  0.99222918  0.87737878  1
  O  O354  1  0.01280585  0.00272996  0.12451643  1
  O  O355  1  -0.01477796  0.00467878  0.63438381  1
  O  O356  1  0.00450716  0.50494068  0.11694309  1
  O  O357  1  0.00032826  0.50468046  0.61854658  1
  O  O358  1  0.50540853  0.00816194  0.12125639  1
  O  O359  1  0.50047211  0.00801343  0.61682602  1
  O  O360  1  0.50613450  0.50625068  0.12021475  1
  O  O361  1  0.50531527  0.50700682  0.61879034  1
  O  O362  1  0.24339733  0.37689333  0.24151582  1
  O  O363  1  0.24778054  0.37766262  0.74234948  1
  O  O364  1  0.24933023  0.88580414  0.25183974  1
  O  O365  1  0.24085655  0.87098093  0.74272814  1
  O  O366  1  0.74787328  0.38099324  0.24173802  1
  O  O367  1  0.73754930  0.37806365  0.74514101  1
  O  O368  1  0.74735453  0.88132018  0.24701540  1
  O  O369  1  0.74501388  0.87895622  0.74484688  1
  O  O370  1  0.25732989  0.12136500  0.25320120  1
  O  O371  1  0.26057839  0.12591941  0.75776908  1
  O  O372  1  0.25102485  0.62325794  0.25999077  1
  O  O373  1  0.25672154  0.61800192  0.74840681  1
  O  O374  1  0.75716332  0.11621633  0.25044751  1
  O  O375  1  0.74247581  0.11883479  0.76248550  1
  O  O376  1  0.75507324  0.61960958  0.25539022  1
  O  O377  1  0.75681817  0.62412007  0.75703847  1
  O  O378  1  0.36789095  0.12104861  0.36080962  1
  O  O379  1  0.37291165  0.11949360  0.86866719  1
  O  O380  1  0.36579957  0.61677594  0.37587145  1
  O  O381  1  0.37428143  0.61382688  0.86782594  1
  O  O382  1  0.86905253  0.12877155  0.36073569  1
  O  O383  1  0.86240520  0.11883959  0.88083194  1
  O  O384  1  0.86906049  0.61802832  0.37111534  1
  O  O385  1  0.87080746  0.61782152  0.87015692  1
  O  O386  1  0.13382397  0.38086312  0.13179309  1
  O  O387  1  0.14146669  0.37515972  0.63074128  1
  O  O388  1  0.12855948  0.88699226  0.12832907  1
  O  O389  1  0.13181226  0.87227571  0.63288823  1
  O  O390  1  0.63624957  0.38224662  0.12676114  1
  O  O391  1  0.62809671  0.38010227  0.63229695  1
  O  O392  1  0.63104927  0.87987858  0.13200152  1
  O  O393  1  0.63139805  0.87475802  0.63147201  1
  O  O394  1  0.12494323  0.26395585  0.25037736  1
  O  O395  1  0.11784765  0.25507780  0.75601238  1
  O  O396  1  0.11274193  0.75301392  0.24328417  1
  O  O397  1  0.12045445  0.75663927  0.75440329  1
  O  O398  1  0.61798554  0.25045367  0.25922946  1
  O  O399  1  0.62538781  0.25878097  0.75932157  1
  O  O400  1  0.62082850  0.75603785  0.25529780  1
  O  O401  1  0.61879886  0.75460615  0.75586529  1
  O  O402  1  0.38494229  0.23970002  0.25427836  1
  O  O403  1  0.37869647  0.23858429  0.75291734  1
  O  O404  1  0.38287561  0.74928400  0.24260101  1
  O  O405  1  0.38011722  0.74411702  0.74502666  1
  O  O406  1  0.87156640  0.23766080  0.24606813  1
  O  O407  1  0.88159395  0.25737253  0.74392780  1
  O  O408  1  0.88479151  0.74222864  0.24898844  1
  O  O409  1  0.88080142  0.74453984  0.74424638  1
  O  O410  1  0.38035920  0.49515745  0.49348189  1
  O  O411  1  0.38063151  0.49997374  0.99016006  1
  O  O412  1  0.38964049  0.99188556  0.49632777  1
  O  O413  1  0.38068557  0.99453790  0.99485635  1
  O  O414  1  0.88041325  0.49374654  0.49496079  1
  O  O415  1  0.88344762  0.50148846  0.99175852  1
  O  O416  1  0.86686582  0.98689883  0.50247829  1
  O  O417  1  0.87556324  0.99317902  0.99374753  1
  O  O418  1  0.12853200  0.00824061  0.00824614  1
  O  O419  1  0.14154643  0.00561561  0.51351924  1
  O  O420  1  0.11594902  0.50094933  0.00342604  1
  O  O421  1  0.11940385  0.50914709  0.50314587  1
  O  O422  1  0.61826118  0.00002435  0.00720990  1
  O  O423  1  0.61206901  0.00547720  0.50140420  1
  O  O424  1  0.62061744  0.50620716  0.00503782  1
  O  O425  1  0.62045832  0.50557248  0.50478585  1
  O  O426  1  0.36034614  0.38183652  0.12405587  1
  O  O427  1  0.36583409  0.37519006  0.61647985  1
  O  O428  1  0.37460665  0.86827808  0.11751849  1
  O  O429  1  0.36910039  0.86632596  0.62069130  1
  O  O430  1  0.86105891  0.37428129  0.12365354  1
  O  O431  1  0.86720458  0.36860835  0.62085221  1
  O  O432  1  0.86959091  0.87546186  0.11925626  1
  O  O433  1  0.86755920  0.86498813  0.61508564  1
  O  O434  1  0.13794240  0.12722642  0.37423153  1
  O  O435  1  0.13273229  0.12852459  0.88497453  1
  O  O436  1  0.13580022  0.61565886  0.38547955  1
  O  O437  1  0.12805686  0.63363590  0.87732593  1
  O  O438  1  0.62606378  0.13643704  0.38202208  1
  O  O439  1  0.63389149  0.13441907  0.87771164  1
  O  O440  1  0.63093181  0.63009481  0.38068277  1
  O  O441  1  0.62955841  0.63025999  0.88018237  1
