# generated using pymatgen
data_V93Zn93O256
_symmetry_space_group_name_H-M   'P 1'
_cell_length_a   17.04629652
_cell_length_b   17.04591722
_cell_length_c   17.05064327
_cell_angle_alpha   89.95354763
_cell_angle_beta   90.02088955
_cell_angle_gamma   90.02610414
_symmetry_Int_Tables_number   1
_chemical_formula_structural   V93Zn93O256
_chemical_formula_sum   'V93 Zn93 O256'
_cell_volume   4954.39883995
_cell_formula_units_Z   1
loop_
 _symmetry_equiv_pos_site_id
 _symmetry_equiv_pos_as_xyz
  1  'x, y, z'
loop_
 _atom_site_type_symbol
 _atom_site_label
 _atom_site_symmetry_multiplicity
 _atom_site_fract_x
 _atom_site_fract_y
 _atom_site_fract_z
 _atom_site_occupancy
  V  V0  1  0.62465038  0.62607015  0.00143490  1
  V  V1  1  0.37653277  0.87342631  0.50075837  1
  V  V2  1  0.74965782  -0.00084988  0.74906349  1
  V  V3  1  -0.00041457  0.62536445  0.12490395  1
  V  V4  1  0.87957121  0.00053362  0.37884078  1
  V  V5  1  0.49640357  0.74678115  0.25218980  1
  V  V6  1  -0.00002412  0.62522021  0.62628959  1
  V  V7  1  0.62664642  0.87042736  0.25257899  1
  V  V8  1  0.24966596  0.74781825  0.50030077  1
  V  V9  1  0.75076095  0.12379315  0.37405030  1
  V  V10  1  0.87525089  0.75021399  0.62567910  1
  V  V11  1  0.62601746  -0.00038551  0.12559333  1
  V  V12  1  0.62617443  0.87362420  0.74925298  1
  V  V13  1  0.12438168  0.25028503  0.87412547  1
  V  V14  1  0.87541313  0.62485370  0.75072970  1
  V  V15  1  0.87563868  0.62670381  0.25058327  1
  V  V16  1  0.74508358  0.75090153  0.49755695  1
  V  V17  1  -0.00019815  0.37573423  0.37495341  1
  V  V18  1  0.50604593  0.86851915  0.37669975  1
  V  V19  1  0.25042797  0.87504685  0.62568906  1
  V  V20  1  0.74961585  0.50156049  0.24989158  1
  V  V21  1  0.25484283  0.50520417  0.74990499  1
  V  V22  1  0.24909676  0.25144825  -0.00050344  1
  V  V23  1  0.13231134  0.00022804  0.12959614  1
  V  V24  1  0.12415658  0.12505276  -0.00047053  1
  V  V25  1  0.25046741  -0.00047793  0.74936374  1
  V  V26  1  0.37526279  0.24975608  0.12570171  1
  V  V27  1  0.12488513  0.24871347  0.37487471  1
  V  V28  1  0.37290116  -0.00145373  0.36824788  1
  V  V29  1  0.12373564  0.87482605  0.74993802  1
  V  V30  1  -0.00155981  0.37538086  0.87473258  1
  V  V31  1  0.37440019  0.37421466  0.49826098  1
  V  V32  1  0.50168936  0.37404269  0.87376548  1
  V  V33  1  0.00240254  0.87528211  0.37662945  1
  V  V34  1  0.00001273  0.25062530  0.24962865  1
  V  V35  1  0.12513611  0.62581131  0.00044354  1
  V  V36  1  0.87519773  0.75316904  0.12551388  1
  V  V37  1  0.12471707  0.49959658  0.62396701  1
  V  V38  1  0.12637386  0.37531090  0.24990817  1
  V  V39  1  0.49323734  0.62609648  0.13037604  1
  V  V40  1  0.37540671  0.74329325  0.62910777  1
  V  V41  1  0.50037942  -0.00047233  0.00022915  1
  V  V42  1  0.37718269  0.50674206  0.37373197  1
  V  V43  1  0.50408009  0.61962183  0.62546774  1
  V  V44  1  0.25550478  0.62526941  0.87229211  1
  V  V45  1  0.12091818  0.11719899  0.49959967  1
  V  V46  1  0.75044366  0.62481863  0.87446215  1
  V  V47  1  0.25007577  0.75178514  0.00233237  1
  V  V48  1  0.87323895  0.25112183  0.12408440  1
  V  V49  1  0.12492740  0.37494440  0.74963043  1
  V  V50  1  0.37460597  0.00006829  0.87477754  1
  V  V51  1  0.49837906  0.12325235  0.62592608  1
  V  V52  1  0.49855307  0.24816360  0.24908781  1
  V  V53  1  0.25043955  0.12022197  0.36932449  1
  V  V54  1  0.87614666  0.50108028  0.37515998  1
  V  V55  1  0.75050426  0.37538527  0.12341056  1
  V  V56  1  0.74233439  0.49644867  0.74364553  1
  V  V57  1  -0.00039060  0.50014931  0.00007071  1
  V  V58  1  0.74802864  0.12824836  0.87576910  1
  V  V59  1  0.12634701  0.62609861  0.49836145  1
  V  V60  1  0.24865546  0.24919187  0.49937415  1
  V  V61  1  0.49956376  0.87407919  0.87525725  1
  V  V62  1  0.74425809  0.62983586  0.37481907  1
  V  V63  1  0.62598443  0.61851803  0.50349216  1
  V  V64  1  0.00012116  0.49983653  0.49949061  1
  V  V65  1  0.49859716  0.50043928  0.00078933  1
  V  V66  1  0.24974133  0.12477857  0.87354077  1
  V  V67  1  0.75038375  0.75114812  0.00122050  1
  V  V68  1  0.62442690  0.12302838  0.49911354  1
  V  V69  1  -0.00049778  0.11948214  0.62114180  1
  V  V70  1  0.62452586  0.50079171  0.12564319  1
  V  V71  1  0.37413472  0.87404642  0.00150696  1
  V  V72  1  -0.00032128  0.12506541  0.12489209  1
  V  V73  1  0.13283313  0.87831412  0.25123134  1
  V  V74  1  -0.00030257  -0.00015837  -0.00012252  1
  V  V75  1  0.37396576  0.24750040  0.62481622  1
  V  V76  1  0.87166116  0.25487274  0.62363714  1
  V  V77  1  0.62451617  0.37462714  0.24911842  1
  V  V78  1  0.49885070  0.37449975  0.37476523  1
  V  V79  1  0.87956361  0.87760656  0.50140151  1
  V  V80  1  0.50132211  -0.00217137  0.49996303  1
  V  V81  1  0.24943926  0.37572807  0.12533869  1
  V  V82  1  0.62468411  0.24823884  0.37359713  1
  V  V83  1  0.62470133  0.74973663  0.87611204  1
  V  V84  1  0.87541260  0.12417858  0.25080063  1
  V  V85  1  0.25474589  0.50736654  0.25028853  1
  V  V86  1  0.37450308  0.37648688  -0.00094596  1
  V  V87  1  0.24902873  0.37475104  0.62431103  1
  V  V88  1  0.87486315  0.12542496  0.74879632  1
  V  V89  1  0.49945267  0.12450188  0.12538789  1
  V  V90  1  0.75024691  0.24972128  0.49939809  1
  V  V91  1  0.49677831  0.74360900  0.75118730  1
  V  V92  1  -0.00085870  0.87559797  0.87612834  1
  Zn  Zn93  1  0.25284267  0.62807435  0.37168904  1
  Zn  Zn94  1  0.12591079  0.50110695  0.12767345  1
  Zn  Zn95  1  0.37273557  0.74916510  0.12996155  1
  Zn  Zn96  1  -0.00061635  0.24991973  0.74820727  1
  Zn  Zn97  1  0.62494565  -0.00224427  0.62421439  1
  Zn  Zn98  1  0.74936664  0.87509210  0.62379445  1
  Zn  Zn99  1  0.37100906  0.12077342  0.24726367  1
  Zn  Zn100  1  0.12476189  0.74940519  0.87492836  1
  Zn  Zn101  1  0.73067777  0.38821350  0.61040276  1
  Zn  Zn102  1  0.12737469  0.74896576  0.37262367  1
  Zn  Zn103  1  0.12130003  -0.00257265  0.62106893  1
  Zn  Zn104  1  0.62441951  0.25124683  0.87393833  1
  Zn  Zn105  1  0.74809474  0.25313108  -0.00173646  1
  Zn  Zn106  1  0.61813180  0.37379514  0.73962522  1
  Zn  Zn107  1  0.87328668  0.50000248  0.87418348  1
  Zn  Zn108  1  0.00311146  0.74950887  0.25065091  1
  Zn  Zn109  1  0.37458558  0.12530057  0.75027267  1
  Zn  Zn110  1  0.50746125  0.49099081  0.50947868  1
  Zn  Zn111  1  0.25477858  0.87894913  0.13169945  1
  Zn  Zn112  1  0.87353827  0.37625617  0.49964307  1
  Zn  Zn113  1  0.75180894  0.87674685  0.12505293  1
  Zn  Zn114  1  -0.00070532  0.74931693  0.75214511  1
  Zn  Zn115  1  0.75228714  -0.00215435  0.24907012  1
  Zn  Zn116  1  0.87393759  0.87720262  0.00110970  1
  Zn  Zn117  1  0.50033130  0.24889681  0.75149853  1
  Zn  Zn118  1  0.62503973  0.12785071  -0.00100567  1
  Zn  Zn119  1  0.87243768  0.37482661  -0.00108988  1
  Zn  Zn120  1  0.37736488  0.50296346  0.87131487  1
  Zn  Zn121  1  0.87441383  0.00119569  0.87726665  1
  Zn  Zn122  1  0.18694619  0.18816345  0.18681963  1
  Zn  Zn123  1  0.18584682  0.18693807  0.68735026  1
  Zn  Zn124  1  0.18449649  0.68987611  0.18692614  1
  Zn  Zn125  1  0.18603786  0.68763105  0.68699943  1
  Zn  Zn126  1  0.68852938  0.18661180  0.18736880  1
  Zn  Zn127  1  0.68368104  0.19136278  0.68868011  1
  Zn  Zn128  1  0.68513142  0.68935001  0.18768012  1
  Zn  Zn129  1  0.68808670  0.68626164  0.68633181  1
  Zn  Zn130  1  0.31231408  0.31336793  0.31198873  1
  Zn  Zn131  1  0.31503573  0.31335879  0.81079989  1
  Zn  Zn132  1  0.31495912  0.81119867  0.31488022  1
  Zn  Zn133  1  0.31218746  0.81202483  0.81394866  1
  Zn  Zn134  1  0.81256172  0.31307744  0.31126027  1
  Zn  Zn135  1  0.81274520  0.31276131  0.80954413  1
  Zn  Zn136  1  0.81335581  0.81301571  0.31257664  1
  Zn  Zn137  1  0.81356461  0.81216437  0.81373455  1
  Zn  Zn138  1  0.18846924  0.43901929  0.43530043  1
  Zn  Zn139  1  0.18605493  0.43960910  0.93642428  1
  Zn  Zn140  1  0.19036738  0.93622581  0.43774893  1
  Zn  Zn141  1  0.18626057  0.93794507  0.93823167  1
  Zn  Zn142  1  0.68800296  0.43770948  0.43440889  1
  Zn  Zn143  1  0.68646549  0.43952378  0.93575881  1
  Zn  Zn144  1  0.69052150  0.93896486  0.43671898  1
  Zn  Zn145  1  0.68844130  0.93747925  0.93771222  1
  Zn  Zn146  1  0.31365072  0.06403601  0.05985521  1
  Zn  Zn147  1  0.31150525  0.06015847  0.55853652  1
  Zn  Zn148  1  0.31196673  0.56210654  0.06174379  1
  Zn  Zn149  1  0.31468621  0.56085628  0.55968700  1
  Zn  Zn150  1  0.81255717  0.06287870  0.06146441  1
  Zn  Zn151  1  0.81255061  0.06379366  0.56322058  1
  Zn  Zn152  1  0.81386742  0.56349243  0.06201939  1
  Zn  Zn153  1  0.81510262  0.56461669  0.56234432  1
  Zn  Zn154  1  0.43611188  0.43708436  0.18825501  1
  Zn  Zn155  1  0.43458745  0.43543473  0.68764762  1
  Zn  Zn156  1  0.43981698  0.93415271  0.18765300  1
  Zn  Zn157  1  0.43714100  0.93525294  0.68886894  1
  Zn  Zn158  1  0.93672172  0.43829590  0.18755808  1
  Zn  Zn159  1  0.93427413  0.43939246  0.68919934  1
  Zn  Zn160  1  0.94330527  0.93800758  0.19089266  1
  Zn  Zn161  1  0.93587866  0.93859540  0.68827449  1
  Zn  Zn162  1  0.06169510  0.06056777  0.31241405  1
  Zn  Zn163  1  0.06148617  0.06195558  0.80966077  1
  Zn  Zn164  1  0.06548262  0.56323400  0.31223402  1
  Zn  Zn165  1  0.06648230  0.56291708  0.81315487  1
  Zn  Zn166  1  0.56041048  0.05960808  0.31129712  1
  Zn  Zn167  1  0.56424751  0.06141829  0.81134795  1
  Zn  Zn168  1  0.56245932  0.56214455  0.31490534  1
  Zn  Zn169  1  0.56298157  0.56151355  0.81411428  1
  Zn  Zn170  1  0.43644583  0.18602485  0.43787094  1
  Zn  Zn171  1  0.43715770  0.18756108  0.93910736  1
  Zn  Zn172  1  0.43967682  0.68738864  0.44169930  1
  Zn  Zn173  1  0.43618590  0.68699012  0.94066417  1
  Zn  Zn174  1  0.93820121  0.18824124  0.43909282  1
  Zn  Zn175  1  0.93411756  0.18871590  0.93776059  1
  Zn  Zn176  1  0.93710217  0.68962707  0.43831337  1
  Zn  Zn177  1  0.93704474  0.68950804  0.93720068  1
  Zn  Zn178  1  0.06242785  0.31349717  0.06274310  1
  Zn  Zn179  1  0.06038004  0.30935308  0.56152853  1
  Zn  Zn180  1  0.06405427  0.81384473  0.06394741  1
  Zn  Zn181  1  0.06212316  0.81056145  0.56309206  1
  Zn  Zn182  1  0.56443839  0.31078389  0.05895990  1
  Zn  Zn183  1  0.56235825  0.30858261  0.56247043  1
  Zn  Zn184  1  0.56214573  0.81234954  0.06528307  1
  Zn  Zn185  1  0.56515152  0.80920316  0.56459034  1
  O  O186  1  0.11981640  0.11950495  0.12026860  1
  O  O187  1  0.11705817  0.12495352  0.61649591  1
  O  O188  1  0.11715995  0.62349530  0.11797245  1
  O  O189  1  0.11932848  0.61899123  0.61952095  1
  O  O190  1  0.61929920  0.11387094  0.12636550  1
  O  O191  1  0.61381626  0.12365618  0.61768186  1
  O  O192  1  0.61715425  0.62003339  0.12033038  1
  O  O193  1  0.61539160  0.63015221  0.61588283  1
  O  O194  1  0.37972057  0.38085761  0.38024048  1
  O  O195  1  0.38249145  0.37809009  0.88182134  1
  O  O196  1  0.38443074  0.88128329  0.38086141  1
  O  O197  1  0.38080739  0.88001962  0.88089309  1
  O  O198  1  0.88204880  0.38267345  0.37362271  1
  O  O199  1  0.88793798  0.37593705  0.87575360  1
  O  O200  1  0.88213468  0.88122087  0.38090073  1
  O  O201  1  0.88782331  0.87723701  0.87615276  1
  O  O202  1  0.26163983  0.00836572  0.38202229  1
  O  O203  1  0.25451274  0.00511527  0.87063907  1
  O  O204  1  0.25957522  0.50061591  0.36733012  1
  O  O205  1  0.24888965  0.50776527  0.86684572  1
  O  O206  1  0.76181131  0.00542306  0.37204155  1
  O  O207  1  0.75097246  0.00709433  0.86481907  1
  O  O208  1  0.75577628  0.50974478  0.36905828  1
  O  O209  1  0.75195757  0.50747952  0.86568931  1
  O  O210  1  0.25041582  0.49395936  0.13329747  1
  O  O211  1  0.24487927  0.49557750  0.63060604  1
  O  O212  1  0.23608332  1.00042641  0.11837654  1
  O  O213  1  0.24990237  0.99198057  0.63047789  1
  O  O214  1  0.74463231  0.49745388  0.13097702  1
  O  O215  1  0.75644450  0.50145592  0.63903142  1
  O  O216  1  0.73937702  0.99861911  0.12742253  1
  O  O217  1  0.74863319  0.99976290  0.63727475  1
  O  O218  1  0.00603694  0.37051039  0.25501064  1
  O  O219  1  0.00585336  0.37631362  0.75960341  1
  O  O220  1  0.01057500  0.87317325  0.26069391  1
  O  O221  1  0.00767923  0.87671852  0.75759821  1
  O  O222  1  0.50583571  0.36838233  0.25420796  1
  O  O223  1  0.49664518  0.37616829  0.76213288  1
  O  O224  1  0.50772348  0.86786464  0.25839426  1
  O  O225  1  0.50555852  0.86452558  0.75549529  1
  O  O226  1  0.49725824  0.13100844  0.24386839  1
  O  O227  1  0.49699954  0.12210143  0.73711499  1
  O  O228  1  0.51063770  0.63546646  0.24242358  1
  O  O229  1  0.50751830  0.63677646  0.74289602  1
  O  O230  1  0.99540833  0.13099646  0.24509160  1
  O  O231  1  0.99411943  0.12801123  0.74113651  1
  O  O232  1  0.99371409  0.62574942  0.24394569  1
  O  O233  1  0.99537940  0.62531032  0.74471007  1
  O  O234  1  0.36788176  0.25589443  0.00642973  1
  O  O235  1  0.36767102  0.25437093  0.50406678  1
  O  O236  1  0.36571602  0.75601535  0.00142168  1
  O  O237  1  0.37094974  0.75521460  0.50936955  1
  O  O238  1  0.87138390  0.25326865  0.00960746  1
  O  O239  1  0.86859285  0.25067495  0.50695387  1
  O  O240  1  0.86946673  0.75075642  0.01084154  1
  O  O241  1  0.86663457  0.75788349  0.50526588  1
  O  O242  1  0.12976807  0.24068494  0.49363189  1
  O  O243  1  0.12973328  0.24476693  0.99489914  1
  O  O244  1  0.13263373  0.74432583  0.50028917  1
  O  O245  1  0.13519363  0.74550079  0.99985603  1
  O  O246  1  0.63017825  0.24204258  0.49144699  1
  O  O247  1  0.63032775  0.24525160  0.99431785  1
  O  O248  1  0.63876002  0.74099613  0.50292643  1
  O  O249  1  0.62936150  0.74588684  0.99567385  1
  O  O250  1  0.49489421  0.24484096  0.12917600  1
  O  O251  1  0.49145619  0.23640160  0.62200264  1
  O  O252  1  0.49913996  0.74188433  0.13294855  1
  O  O253  1  0.49381548  0.74279956  0.63258457  1
  O  O254  1  0.99510390  0.24469666  0.13040607  1
  O  O255  1  0.99013525  0.24064876  0.62546545  1
  O  O256  1  0.99030973  0.74427880  0.12426692  1
  O  O257  1  0.99275928  0.74318679  0.62734661  1
  O  O258  1  0.00508510  0.25463196  0.36896472  1
  O  O259  1  0.00562568  0.25979434  0.87471722  1
  O  O260  1  0.00103057  0.76308825  0.37389531  1
  O  O261  1  0.00376434  0.76152485  0.87380875  1
  O  O262  1  0.50500822  0.25367028  0.36961196  1
  O  O263  1  0.49776269  0.26164241  0.87537446  1
  O  O264  1  0.49525808  0.76115514  0.36969045  1
  O  O265  1  0.50354597  0.75253163  0.86867695  1
  O  O266  1  0.24186818  0.13004995  0.49085784  1
  O  O267  1  0.24356235  0.13170669  0.99344019  1
  O  O268  1  0.24331227  0.63085275  0.50149959  1
  O  O269  1  0.24538418  0.63195746  0.99406120  1
  O  O270  1  0.74453382  0.12919389  0.49307814  1
  O  O271  1  0.74972845  0.12403498  0.98650104  1
  O  O272  1  0.74548355  0.63091578  0.49424256  1
  O  O273  1  0.74401690  0.63037846  0.99538926  1
  O  O274  1  0.25306763  0.37083476  0.00458487  1
  O  O275  1  0.25298957  0.36918082  0.50507569  1
  O  O276  1  0.25425902  0.86547175  -0.00077648  1
  O  O277  1  0.25623352  0.86841233  0.50632407  1
  O  O278  1  0.75229283  0.37729706  0.00777348  1
  O  O279  1  0.75343890  0.36742832  0.49762697  1
  O  O280  1  0.75301989  0.86711826  0.00270674  1
  O  O281  1  0.75921393  0.86646224  0.49793630  1
  O  O282  1  0.13540522  0.49264689  0.25000550  1
  O  O283  1  0.13323237  0.49430306  0.74309762  1
  O  O284  1  0.11935070  0.99222144  0.23976430  1
  O  O285  1  0.13106672  0.98925944  0.74754949  1
  O  O286  1  0.63037501  0.49471594  0.24560886  1
  O  O287  1  0.64013125  0.50217985  0.75217166  1
  O  O288  1  0.62378262  0.98983714  0.24134886  1
  O  O289  1  0.63392504  0.99236434  0.74854208  1
  O  O290  1  0.38178217  -0.00047539  0.26447581  1
  O  O291  1  0.36819017  -0.00106982  0.75747215  1
  O  O292  1  0.36573563  0.49241000  0.26097472  1
  O  O293  1  0.35767742  0.49710919  0.74997769  1
  O  O294  1  0.87557536  0.00546686  0.26001305  1
  O  O295  1  0.86492575  0.00631366  0.75142881  1
  O  O296  1  0.86881249  0.50741400  0.25471016  1
  O  O297  1  0.86565631  0.50781877  0.75334690  1
  O  O298  1  0.12020751  0.36833232  0.37012998  1
  O  O299  1  0.11705948  0.37037452  0.87058808  1
  O  O300  1  0.11751004  0.87788494  0.36997297  1
  O  O301  1  0.11672874  0.87544777  0.86632442  1
  O  O302  1  0.61968518  0.36875885  0.36842229  1
  O  O303  1  0.61049919  0.37743363  0.87363520  1
  O  O304  1  0.61459947  0.88281355  0.36666242  1
  O  O305  1  0.61841425  0.86870380  0.87006529  1
  O  O306  1  0.37984081  0.13064988  0.12681090  1
  O  O307  1  0.38291355  0.12796591  0.62211928  1
  O  O308  1  0.39032369  0.62547353  0.12154865  1
  O  O309  1  0.38437481  0.63835732  0.61727246  1
  O  O310  1  0.88056356  0.12972713  0.13113037  1
  O  O311  1  0.88147725  0.13316313  0.62721887  1
  O  O312  1  0.87909578  0.63363998  0.13060117  1
  O  O313  1  0.88155026  0.63076063  0.63047109  1
  O  O314  1  0.25441500  0.25495292  0.11915058  1
  O  O315  1  0.25339432  0.25487062  0.61909604  1
  O  O316  1  0.25297489  0.75053099  0.11368124  1
  O  O317  1  0.25854257  0.75430636  0.62246201  1
  O  O318  1  0.75593700  0.25734859  0.12621130  1
  O  O319  1  0.75914141  0.24767057  0.61731697  1
  O  O320  1  0.75941382  0.75010050  0.12033995  1
  O  O321  1  0.75731439  0.75033143  0.61488470  1
  O  O322  1  0.24477192  0.24200983  0.38009921  1
  O  O323  1  0.24453003  0.24602580  0.88009678  1
  O  O324  1  0.25094099  0.74698341  0.38471102  1
  O  O325  1  0.24877459  0.74295163  0.88385474  1
  O  O326  1  0.74469512  0.24361865  0.37825589  1
  O  O327  1  0.75058832  0.23924471  0.87334110  1
  O  O328  1  0.75899034  0.73940107  0.38508163  1
  O  O329  1  0.74394723  0.74504140  0.88060003  1
  O  O330  1  0.00544037  0.12060925  0.00496262  1
  O  O331  1  0.01059196  0.13046911  0.50739059  1
  O  O332  1  0.00455302  0.61795943  0.00304221  1
  O  O333  1  0.00505408  0.61980682  0.50569256  1
  O  O334  1  0.50071512  0.11666483  0.00724354  1
  O  O335  1  0.50440569  0.11819332  0.50602032  1
  O  O336  1  0.50566920  0.62121352  0.00880121  1
  O  O337  1  0.51162078  0.62594179  0.50824137  1
  O  O338  1  0.49302776  0.37327438  0.49240952  1
  O  O339  1  0.49454351  0.38128336  0.99417400  1
  O  O340  1  0.49792694  0.87559822  0.49370949  1
  O  O341  1  0.49497984  0.87876648  0.99434904  1
  O  O342  1  0.99939659  0.38142908  0.49232295  1
  O  O343  1  1.00121592  0.38352208  0.99168291  1
  O  O344  1  0.98824407  0.86994724  0.49222065  1
  O  O345  1  1.00235683  0.88114343  0.99088970  1
  O  O346  1  0.49270777  0.49235179  0.37544543  1
  O  O347  1  0.49709452  0.49479662  0.88174263  1
  O  O348  1  0.49289198  0.99041458  0.38100852  1
  O  O349  1  0.49536221  0.99364137  0.87971949  1
  O  O350  1  0.99562734  0.49564669  0.37963768  1
  O  O351  1  1.00192184  0.49179187  0.88311364  1
  O  O352  1  0.98922947  0.99002351  0.37283660  1
  O  O353  1  1.00015601  0.99218109  0.88098978  1
  O  O354  1  0.00917528  0.00608687  0.11964919  1
  O  O355  1  -0.00039154  0.01502997  0.62789564  1
  O  O356  1  0.00053689  0.50569868  0.11582486  1
  O  O357  1  0.00516691  0.50450370  0.61978080  1
  O  O358  1  0.50725610  0.00384219  0.12068163  1
  O  O359  1  0.49904613  0.00656893  0.61846753  1
  O  O360  1  0.50521873  0.50698807  0.12282565  1
  O  O361  1  0.48915044  0.51622354  0.62583945  1
  O  O362  1  0.24486942  0.38165508  0.24485270  1
  O  O363  1  0.24386596  0.38301799  0.74428616  1
  O  O364  1  0.23782490  0.87122841  0.25147551  1
  O  O365  1  0.24224084  0.87880783  0.74641149  1
  O  O366  1  0.74359557  0.38188134  0.24521693  1
  O  O367  1  0.74996062  0.39127620  0.75126170  1
  O  O368  1  0.73922343  0.87571156  0.24995417  1
  O  O369  1  0.74577446  0.88342525  0.75071065  1
  O  O370  1  0.24977324  0.12952041  0.26532018  1
  O  O371  1  0.24960140  0.11771535  0.75590702  1
  O  O372  1  0.24498242  0.61135425  0.24970664  1
  O  O373  1  0.24099677  0.61663430  0.75957408  1
  O  O374  1  0.75789227  0.12334617  0.25713490  1
  O  O375  1  0.75354608  0.11754530  0.75557452  1
  O  O376  1  0.75301969  0.62251896  0.25762682  1
  O  O377  1  0.75437257  0.61710111  0.75436125  1
  O  O378  1  0.36721905  0.11602693  0.37546884  1
  O  O379  1  0.36785873  0.11801789  0.87476414  1
  O  O380  1  0.37580607  0.61079430  0.38261904  1
  O  O381  1  0.36027855  0.62294766  0.88013873  1
  O  O382  1  0.87284388  0.11767008  0.37211665  1
  O  O383  1  0.86693877  0.12397425  0.86706066  1
  O  O384  1  0.86695896  0.62057498  0.37073310  1
  O  O385  1  0.86824969  0.62619739  0.86867400  1
  O  O386  1  0.13159129  0.37594546  0.13181128  1
  O  O387  1  0.12953708  0.37931682  0.62852671  1
  O  O388  1  0.12641559  0.88390199  0.13392703  1
  O  O389  1  0.12943532  0.87668147  0.63259763  1
  O  O390  1  0.62926375  0.38148564  0.13052545  1
  O  O391  1  0.62023716  0.37803771  0.62565282  1
  O  O392  1  0.62385509  0.88407429  0.13438209  1
  O  O393  1  0.62857104  0.87617242  0.63289934  1
  O  O394  1  0.11915482  0.25463001  0.25535271  1
  O  O395  1  0.12366754  0.25735585  0.75635355  1
  O  O396  1  0.12194325  0.76146063  0.25235272  1
  O  O397  1  0.12374376  0.76388379  0.75096877  1
  O  O398  1  0.61925220  0.25493132  0.25455755  1
  O  O399  1  0.61828002  0.25520422  0.75584872  1
  O  O400  1  0.61452970  0.76264313  0.24494040  1
  O  O401  1  0.61787670  0.75384818  0.75634045  1
  O  O402  1  0.38091664  0.24920571  0.24312072  1
  O  O403  1  0.37702460  0.24594194  0.74020386  1
  O  O404  1  0.39100594  0.75646596  0.24774998  1
  O  O405  1  0.38543423  0.75600530  0.74109541  1
  O  O406  1  0.88131085  0.24414151  0.24530497  1
  O  O407  1  0.87512378  0.24377219  0.73887652  1
  O  O408  1  0.87642295  0.74486523  0.24113195  1
  O  O409  1  0.87509012  0.74348321  0.74307641  1
  O  O410  1  0.37785855  0.49107221  0.49136442  1
  O  O411  1  0.38134289  0.49315493  0.99933577  1
  O  O412  1  0.38157068  0.99193846  0.49137707  1
  O  O413  1  0.38039245  0.99395222  0.99417727  1
  O  O414  1  0.88196794  0.49961953  0.49344316  1
  O  O415  1  0.88805744  0.49970783  0.99713484  1
  O  O416  1  0.86789257  0.98932240  0.49059373  1
  O  O417  1  0.88472164  0.99722503  0.99919863  1
  O  O418  1  0.11901906  0.00600635  0.00776050  1
  O  O419  1  0.13022626  0.01341980  0.50107809  1
  O  O420  1  0.11468395  0.50576882  0.00269809  1
  O  O421  1  0.12031597  0.50493770  0.50514548  1
  O  O422  1  0.61884607  -0.00111293  0.01062765  1
  O  O423  1  0.61984847  0.00509575  0.50094113  1
  O  O424  1  0.61840482  0.50695634  0.00675036  1
  O  O425  1  0.62517653  0.51320660  0.49710610  1
  O  O426  1  0.36954923  0.36904610  0.11904648  1
  O  O427  1  0.36830471  0.36848303  0.61799878  1
  O  O428  1  0.37230695  0.87405044  0.11739010  1
  O  O429  1  0.37158077  0.86466956  0.62021275  1
  O  O430  1  0.86833934  0.36924181  0.12607972  1
  O  O431  1  0.87555611  0.36252541  0.62334725  1
  O  O432  1  0.87602059  0.86456387  0.12671956  1
  O  O433  1  0.87432780  0.87095747  0.61574153  1
  O  O434  1  0.13006213  0.12774166  0.38073482  1
  O  O435  1  0.12921622  0.13001265  0.87967707  1
  O  O436  1  0.12827514  0.62775293  0.38391096  1
  O  O437  1  0.13530161  0.62752615  0.88249432  1
  O  O438  1  0.62963242  0.12824524  0.37833727  1
  O  O439  1  0.63604635  0.12411759  0.87545017  1
  O  O440  1  0.63802549  0.62246987  0.38304438  1
  O  O441  1  0.62947426  0.63153047  0.88220820  1
