# generated using pymatgen
data_V93Zn93O256
_symmetry_space_group_name_H-M   'P 1'
_cell_length_a   17.06027818
_cell_length_b   17.05912898
_cell_length_c   17.06759099
_cell_angle_alpha   89.91918878
_cell_angle_beta   90.01506099
_cell_angle_gamma   90.04660873
_symmetry_Int_Tables_number   1
_chemical_formula_structural   V93Zn93O256
_chemical_formula_sum   'V93 Zn93 O256'
_cell_volume   4967.23374834
_cell_formula_units_Z   1
loop_
 _symmetry_equiv_pos_site_id
 _symmetry_equiv_pos_as_xyz
  1  'x, y, z'
loop_
 _atom_site_type_symbol
 _atom_site_label
 _atom_site_symmetry_multiplicity
 _atom_site_fract_x
 _atom_site_fract_y
 _atom_site_fract_z
 _atom_site_occupancy
  V  V0  1  0.37514209  0.49931993  0.87438598  1
  V  V1  1  0.75284168  0.37035522  0.12383325  1
  V  V2  1  0.62549543  0.87504959  0.75020938  1
  V  V3  1  0.24967126  0.62479093  0.87537098  1
  V  V4  1  0.62918814  0.00070754  0.12969809  1
  V  V5  1  0.12449153  0.62392379  0.00060453  1
  V  V6  1  0.50243803  0.75306225  0.25039039  1
  V  V7  1  0.62382483  0.62407872  -0.00024621  1
  V  V8  1  0.12485550  0.37507436  0.74951996  1
  V  V9  1  0.37605189  0.87519510  0.00040375  1
  V  V10  1  0.24993351  0.62651381  0.37405977  1
  V  V11  1  0.00016245  0.74969156  0.75056160  1
  V  V12  1  0.50551473  0.12648269  0.12175547  1
  V  V13  1  0.37568574  0.25023940  0.62504151  1
  V  V14  1  0.12245846  0.75339362  0.37430278  1
  V  V15  1  0.12461118  0.37612321  0.25012017  1
  V  V16  1  -0.05155373  0.93032603  0.32996281  1
  V  V17  1  0.75716235  0.11285690  0.36892147  1
  V  V18  1  0.62576744  0.37394230  0.75025488  1
  V  V19  1  0.62674997  0.24936754  0.37570502  1
  V  V20  1  0.24900983  0.50063255  0.24914890  1
  V  V21  1  0.24529082  0.88311141  0.12397566  1
  V  V22  1  0.37691525  0.37694992  0.49970444  1
  V  V23  1  0.50019570  0.00122434  0.49923477  1
  V  V24  1  -0.00044968  0.62533054  0.62547753  1
  V  V25  1  0.37439667  0.62558808  0.24973125  1
  V  V26  1  0.12482620  0.74921866  0.87468972  1
  V  V27  1  0.12461158  0.25148441  0.37613625  1
  V  V28  1  0.75041772  0.62278020  0.87444302  1
  V  V29  1  0.87839406  0.87781238  0.50241778  1
  V  V30  1  0.62360611  0.50085575  0.62252371  1
  V  V31  1  -0.00232895  0.12814344  0.62602917  1
  V  V32  1  0.12407414  0.12612088  0.50136500  1
  V  V33  1  -0.00682180  0.24901390  0.24998801  1
  V  V34  1  -0.00456732  0.62412585  0.12723282  1
  V  V35  1  0.74943170  0.74876873  0.00067655  1
  V  V36  1  0.25092770  0.12395604  0.87303227  1
  V  V37  1  0.24933996  0.49961806  0.74984288  1
  V  V38  1  0.75024739  0.00089461  0.75100125  1
  V  V39  1  0.12437040  0.49984865  0.12501459  1
  V  V40  1  0.62454813  0.50000679  0.12515828  1
  V  V41  1  0.49986927  0.87581198  0.37362609  1
  V  V42  1  0.49961449  0.62511458  0.12455003  1
  V  V43  1  0.74929430  0.87805173  0.13111019  1
  V  V44  1  0.75674323  0.50730647  0.25231223  1
  V  V45  1  0.87477127  0.75076753  0.62520383  1
  V  V46  1  -0.00010914  0.50028007  0.50017263  1
  V  V47  1  0.12428234  0.62620813  0.49941307  1
  V  V48  1  0.75423076  0.24947065  0.50149691  1
  V  V49  1  -0.00346001  0.74452807  0.25472549  1
  V  V50  1  0.37548297  0.62548286  0.74985920  1
  V  V51  1  0.00804534  0.00080895  0.00136783  1
  V  V52  1  -0.00202559  -0.00103619  0.50129821  1
  V  V53  1  0.87428030  0.74573141  0.12658551  1
  V  V54  1  0.12585344  0.50065479  0.62541563  1
  V  V55  1  0.37318974  0.00220326  0.37168696  1
  V  V56  1  0.62353337  0.00059601  0.62541034  1
  V  V57  1  0.62540767  0.37458784  0.24943694  1
  V  V58  1  0.87485715  0.87335731  -0.00216141  1
  V  V59  1  0.87588015  0.37463193  0.50306273  1
  V  V60  1  0.49883080  0.24854598  0.25058363  1
  V  V61  1  0.37634978  0.00098676  0.87424630  1
  V  V62  1  0.00576087  0.12178764  0.12570020  1
  V  V63  1  0.37610263  0.50048497  0.37493284  1
  V  V64  1  0.87334011  0.12680270  0.74807465  1
  V  V65  1  0.62496981  0.74933315  0.87449771  1
  V  V66  1  0.37458673  0.37489710  0.00125546  1
  V  V67  1  -0.00478418  0.25019775  0.74652229  1
  V  V68  1  0.37398986  0.75156628  0.62394940  1
  V  V69  1  0.24989145  0.25093464  0.50113491  1
  V  V70  1  0.50086308  0.87541641  0.87570798  1
  V  V71  1  0.62794466  0.24295362  0.88338769  1
  V  V72  1  0.24963124  0.75169785  0.49997471  1
  V  V73  1  0.87509799  -0.00029772  0.87464913  1
  V  V74  1  0.49983967  0.24928476  0.74915344  1
  V  V75  1  0.50039255  0.37471627  0.87490688  1
  V  V76  1  0.37402261  0.75075036  0.12480185  1
  V  V77  1  0.50072882  0.12553000  0.62370529  1
  V  V78  1  0.24969687  0.24997294  0.00142815  1
  V  V79  1  -0.00272692  0.37558614  0.87776187  1
  V  V80  1  0.12441332  0.24849172  0.87528553  1
  V  V81  1  0.12641073  0.00067269  0.62701087  1
  V  V82  1  -0.00081318  0.37599538  0.37644157  1
  V  V83  1  0.25106299  0.12544024  0.37470819  1
  V  V84  1  0.49961096  0.74967352  0.74945344  1
  V  V85  1  0.87432033  0.62349904  0.75160415  1
  V  V86  1  0.12733810  0.88074266  0.25017444  1
  V  V87  1  0.25037257  0.75023564  -0.00000849  1
  V  V88  1  0.75283152  0.37135121  0.62603810  1
  V  V89  1  0.50742841  0.00485797  -0.00012132  1
  V  V90  1  0.75052093  0.87565590  0.62499515  1
  V  V91  1  0.00030565  0.87427253  0.87559847  1
  V  V92  1  0.12570853  0.87642462  0.74925405  1
  Zn  Zn93  1  0.37203352  0.87650480  0.50003588  1
  Zn  Zn94  1  0.75118324  0.49883239  0.75092469  1
  Zn  Zn95  1  0.87342766  0.37206989  0.00033968  1
  Zn  Zn96  1  0.24984816  0.87809329  0.62471719  1
  Zn  Zn97  1  0.49950068  0.50019643  0.00018185  1
  Zn  Zn98  1  0.62558468  0.74741986  0.37871809  1
  Zn  Zn99  1  0.12975016  0.11975573  0.00522053  1
  Zn  Zn100  1  0.87252626  0.49806933  0.87698990  1
  Zn  Zn101  1  -0.00290302  0.49839422  0.00043778  1
  Zn  Zn102  1  0.62487613  0.62845350  0.49641803  1
  Zn  Zn103  1  0.25056171  0.37528677  0.62596082  1
  Zn  Zn104  1  0.87544254  0.10557191  0.25196187  1
  Zn  Zn105  1  0.74586899  0.11861087  0.88543200  1
  Zn  Zn106  1  0.75349720  0.63162002  0.37868005  1
  Zn  Zn107  1  0.25243246  -0.00098264  0.74805299  1
  Zn  Zn108  1  0.50167847  0.50371725  0.49665961  1
  Zn  Zn109  1  0.50167924  0.62453512  0.62216287  1
  Zn  Zn110  1  0.74697310  0.74845376  0.49886458  1
  Zn  Zn111  1  0.50047930  0.37681233  0.37427420  1
  Zn  Zn112  1  0.75088633  0.23942033  0.00665483  1
  Zn  Zn113  1  0.24615938  0.00604613  0.24305388  1
  Zn  Zn114  1  0.24942819  0.37389038  0.12647959  1
  Zn  Zn115  1  0.37468577  0.24916482  0.12675983  1
  Zn  Zn116  1  0.62870054  0.12331130  0.49975182  1
  Zn  Zn117  1  0.37475715  0.12380685  0.74768570  1
  Zn  Zn118  1  0.37190687  0.12660362  0.24718052  1
  Zn  Zn119  1  0.63247430  0.87860883  0.25416791  1
  Zn  Zn120  1  0.87885003  0.50909501  0.37137708  1
  Zn  Zn121  1  0.87333580  0.24268402  0.12154093  1
  Zn  Zn122  1  0.18501179  0.18934531  0.18878871  1
  Zn  Zn123  1  0.18659714  0.18866083  0.68771130  1
  Zn  Zn124  1  0.18445902  0.69044192  0.18670705  1
  Zn  Zn125  1  0.18831838  0.68813870  0.68747174  1
  Zn  Zn126  1  0.68740870  0.18368118  0.19037517  1
  Zn  Zn127  1  0.68627416  0.18723684  0.69000689  1
  Zn  Zn128  1  0.68528217  0.68830621  0.18671105  1
  Zn  Zn129  1  0.68947509  0.68686261  0.68567141  1
  Zn  Zn130  1  0.31238344  0.31382500  0.31389954  1
  Zn  Zn131  1  0.31278613  0.31211882  0.81232371  1
  Zn  Zn132  1  0.31177469  0.81396893  0.31159899  1
  Zn  Zn133  1  0.31207635  0.81418481  0.81155048  1
  Zn  Zn134  1  0.81189396  0.31705786  0.31559354  1
  Zn  Zn135  1  0.81217967  0.31060067  0.81322923  1
  Zn  Zn136  1  0.81251489  0.80540195  0.31280380  1
  Zn  Zn137  1  0.81200838  0.81109483  0.81190504  1
  Zn  Zn138  1  0.18891512  0.43835916  0.43735400  1
  Zn  Zn139  1  0.18486470  0.43703379  0.93717002  1
  Zn  Zn140  1  0.18666697  0.93720439  0.43699672  1
  Zn  Zn141  1  0.18904305  0.93598840  0.93497366  1
  Zn  Zn142  1  0.68716032  0.43748623  0.43707554  1
  Zn  Zn143  1  0.68721717  0.43619755  0.93868707  1
  Zn  Zn144  1  0.68614512  0.93375429  0.44053364  1
  Zn  Zn145  1  0.68875104  0.93704705  0.94027644  1
  Zn  Zn146  1  0.32016941  0.06472228  0.06020812  1
  Zn  Zn147  1  0.31313463  0.06316566  0.56094614  1
  Zn  Zn148  1  0.31144062  0.56157983  0.06308959  1
  Zn  Zn149  1  0.31218041  0.56422238  0.56252490  1
  Zn  Zn150  1  0.81687557  0.06349315  0.06261226  1
  Zn  Zn151  1  0.81219963  0.06299012  0.56264789  1
  Zn  Zn152  1  0.81363693  0.55666949  0.06003076  1
  Zn  Zn153  1  0.81034229  0.56216769  0.56056506  1
  Zn  Zn154  1  0.43741965  0.43710678  0.18751492  1
  Zn  Zn155  1  0.43889461  0.43665445  0.68692697  1
  Zn  Zn156  1  0.43647883  0.93933249  0.18651341  1
  Zn  Zn157  1  0.43695835  0.93769812  0.68816314  1
  Zn  Zn158  1  0.93649507  0.43573616  0.18593293  1
  Zn  Zn159  1  0.93594872  0.43878592  0.68829777  1
  Zn  Zn160  1  0.94274429  0.93162379  0.16912815  1
  Zn  Zn161  1  0.93903091  0.93960175  0.68741733  1
  Zn  Zn162  1  0.06846396  0.06799292  0.31079468  1
  Zn  Zn163  1  0.06320449  0.06291864  0.81413904  1
  Zn  Zn164  1  0.06268722  0.56332878  0.31315843  1
  Zn  Zn165  1  0.06151364  0.56100200  0.81261249  1
  Zn  Zn166  1  0.56499426  0.06447959  0.31143214  1
  Zn  Zn167  1  0.56105835  0.06376723  0.80986967  1
  Zn  Zn168  1  0.56600930  0.56333057  0.31432877  1
  Zn  Zn169  1  0.56284967  0.56080270  0.80971482  1
  Zn  Zn170  1  0.43762987  0.18689372  0.43905184  1
  Zn  Zn171  1  0.43803676  0.18805741  0.93638518  1
  Zn  Zn172  1  0.44005021  0.68601067  0.43989339  1
  Zn  Zn173  1  0.43758035  0.68740909  0.93717088  1
  Zn  Zn174  1  0.93530843  0.18679798  0.43641637  1
  Zn  Zn175  1  0.93288202  0.18688657  0.93936204  1
  Zn  Zn176  1  0.93218641  0.68643538  0.43653134  1
  Zn  Zn177  1  0.93658400  0.68554473  0.93938694  1
  Zn  Zn178  1  0.06269744  0.30959611  0.06421514  1
  Zn  Zn179  1  0.06296754  0.31346695  0.56476306  1
  Zn  Zn180  1  0.06354830  0.81076292  0.06414007  1
  Zn  Zn181  1  0.06287903  0.81338116  0.56320051  1
  Zn  Zn182  1  0.56304308  0.31436641  0.06324647  1
  Zn  Zn183  1  0.56383364  0.31342411  0.56190324  1
  Zn  Zn184  1  0.56415010  0.81416712  0.06305288  1
  Zn  Zn185  1  0.56078498  0.81319362  0.56093178  1
  O  O186  1  0.11134201  0.12843169  0.12369757  1
  O  O187  1  0.11834092  0.12133302  0.61965710  1
  O  O188  1  0.11707108  0.62094481  0.11967642  1
  O  O189  1  0.11927237  0.62096237  0.61961098  1
  O  O190  1  0.61398669  0.11624194  0.12948597  1
  O  O191  1  0.61933753  0.11815848  0.62407641  1
  O  O192  1  0.61841824  0.62073024  0.11874604  1
  O  O193  1  0.62520819  0.61050616  0.62847759  1
  O  O194  1  0.37533193  0.38123287  0.38411825  1
  O  O195  1  0.37954199  0.37919179  0.88269627  1
  O  O196  1  0.38276925  0.88472874  0.37427846  1
  O  O197  1  0.38123882  0.87980774  0.88089595  1
  O  O198  1  0.88102051  0.38066209  0.38652498  1
  O  O199  1  0.88689193  0.37400775  0.87298809  1
  O  O200  1  0.88039083  0.87247805  0.38499386  1
  O  O201  1  0.88105135  0.87843930  0.87909857  1
  O  O202  1  0.25897962  0.00668245  0.37540548  1
  O  O203  1  0.25689265  0.00973740  0.87727987  1
  O  O204  1  0.25475696  0.50745957  0.36860846  1
  O  O205  1  0.25440625  0.50545740  0.86949847  1
  O  O206  1  0.74277237  0.01544822  0.38111132  1
  O  O207  1  0.75606733  -0.00202674  0.86832289  1
  O  O208  1  0.74798327  0.49461900  0.35722222  1
  O  O209  1  0.74988621  0.50695053  0.87210516  1
  O  O210  1  0.24260818  0.49904833  0.13203212  1
  O  O211  1  0.24345472  0.50043047  0.63240131  1
  O  O212  1  0.25760356  0.98709231  0.12242464  1
  O  O213  1  0.24225019  1.00052505  0.62670660  1
  O  O214  1  0.74495029  0.49108306  0.13382265  1
  O  O215  1  0.74199941  0.48626054  0.62603993  1
  O  O216  1  0.74129076  0.98882600  0.11663141  1
  O  O217  1  0.74397871  0.99550182  0.63158338  1
  O  O218  1  0.00519001  0.36848334  0.25578953  1
  O  O219  1  0.00377855  0.36737538  0.75552523  1
  O  O220  1  0.00583251  0.86965074  0.25346452  1
  O  O221  1  0.00466931  0.86950123  0.75630665  1
  O  O222  1  0.50581272  0.36369538  0.24951947  1
  O  O223  1  0.50494239  0.36844927  0.75596146  1
  O  O224  1  0.49669802  0.86714597  0.25650565  1
  O  O225  1  0.50610939  0.87021910  0.75679215  1
  O  O226  1  0.50001204  0.13509931  0.24213051  1
  O  O227  1  0.49718111  0.13162707  0.74171109  1
  O  O228  1  0.49385967  0.63450888  0.24447450  1
  O  O229  1  0.49266420  0.63230931  0.74906539  1
  O  O230  1  1.00050697  0.13308477  0.24540076  1
  O  O231  1  0.99402261  0.13219512  0.74698470  1
  O  O232  1  1.00804674  0.63366571  0.23787567  1
  O  O233  1  0.99573681  0.63074928  0.74539362  1
  O  O234  1  0.36665656  0.25891973  -0.00124452  1
  O  O235  1  0.37002423  0.25800886  0.50386509  1
  O  O236  1  0.36992740  0.75559973  0.00442330  1
  O  O237  1  0.36919616  0.75019218  0.50929111  1
  O  O238  1  0.87061583  0.25536018  0.00373085  1
  O  O239  1  0.86496599  0.26152162  0.49451522  1
  O  O240  1  0.86907377  0.75448216  0.00546209  1
  O  O241  1  0.87962340  0.76448872  0.50837913  1
  O  O242  1  0.12892574  0.24608439  0.49571066  1
  O  O243  1  0.13646476  0.24877726  0.99431704  1
  O  O244  1  0.12836430  0.74510990  0.49507062  1
  O  O245  1  0.13073749  0.74467362  0.99405023  1
  O  O246  1  0.63453191  0.25070728  0.49053614  1
  O  O247  1  0.62246912  0.25326235  0.98500576  1
  O  O248  1  0.62762059  0.75058884  0.49818067  1
  O  O249  1  0.62927159  0.74457546  0.99433555  1
  O  O250  1  0.50283666  0.24239572  0.13292321  1
  O  O251  1  0.49618206  0.24562582  0.62894595  1
  O  O252  1  0.49380633  0.74709895  0.13151231  1
  O  O253  1  0.48963644  0.75076052  0.63218073  1
  O  O254  1  0.99887263  0.24198330  0.13500451  1
  O  O255  1  1.00541015  0.24508913  0.63898216  1
  O  O256  1  0.99586739  0.74295171  0.13261570  1
  O  O257  1  0.99551133  0.74439327  0.63157811  1
  O  O258  1  0.00527419  0.25498159  0.36958593  1
  O  O259  1  0.00504393  0.25542828  0.86565329  1
  O  O260  1  0.00721706  0.74157431  0.36308913  1
  O  O261  1  0.00539442  0.75458827  0.87076944  1
  O  O262  1  0.50994732  0.24783026  0.36732646  1
  O  O263  1  0.50868397  0.25443221  0.87011786  1
  O  O264  1  0.49569723  0.76022495  0.36544762  1
  O  O265  1  0.50505803  0.75588388  0.86999333  1
  O  O266  1  0.24347391  0.13196089  0.49453866  1
  O  O267  1  0.25150675  0.13284326  0.99241402  1
  O  O268  1  0.24355555  0.63110487  0.49375867  1
  O  O269  1  0.24520590  0.63076027  0.99471110  1
  O  O270  1  0.75142446  0.13448089  0.49196465  1
  O  O271  1  0.75346918  0.12638005  0.99713834  1
  O  O272  1  0.74449844  0.62935198  0.50073518  1
  O  O273  1  0.74361086  0.62994684  0.99575928  1
  O  O274  1  0.25774882  0.36587578  -0.00215416  1
  O  O275  1  0.25984348  0.36965000  0.50073061  1
  O  O276  1  0.25483778  0.86992544  0.00549416  1
  O  O277  1  0.25174081  0.86696415  0.50272729  1
  O  O278  1  0.74637915  0.37095490  0.01463769  1
  O  O279  1  0.75732300  0.36879128  0.50549093  1
  O  O280  1  0.75532646  0.86750719  0.00731974  1
  O  O281  1  0.76396361  0.87905209  0.50747643  1
  O  O282  1  0.13009289  0.49536688  0.24545596  1
  O  O283  1  0.13006875  0.49573754  0.74467048  1
  O  O284  1  0.12641170  0.98566429  0.25479399  1
  O  O285  1  0.12530947  0.99462432  0.74487732  1
  O  O286  1  0.63243143  0.49285196  0.24329360  1
  O  O287  1  0.62761394  0.49096570  0.74171067  1
  O  O288  1  0.61805063  0.99608143  0.23444132  1
  O  O289  1  0.62959885  0.99409751  0.74576132  1
  O  O290  1  0.37294380  0.00303785  0.26114504  1
  O  O291  1  0.37335983  0.00270028  0.75876054  1
  O  O292  1  0.36891507  0.50570268  0.25411038  1
  O  O293  1  0.36941116  0.50454021  0.75493917  1
  O  O294  1  0.89695366  -0.01185584  0.26051746  1
  O  O295  1  0.87064464  0.00622748  0.75551324  1
  O  O296  1  0.85948359  0.49376484  0.24933864  1
  O  O297  1  0.87265048  0.50877432  0.75305631  1
  O  O298  1  0.11906867  0.37049638  0.37114432  1
  O  O299  1  0.11734985  0.36886484  0.86848912  1
  O  O300  1  0.13249769  0.86584823  0.36283506  1
  O  O301  1  0.11944492  0.86798577  0.87003822  1
  O  O302  1  0.62399511  0.36338143  0.36955200  1
  O  O303  1  0.61950466  0.36651946  0.86981702  1
  O  O304  1  0.61043972  0.87779330  0.37086847  1
  O  O305  1  0.62046885  0.86914769  0.87018909  1
  O  O306  1  0.38970513  0.12764915  0.12795651  1
  O  O307  1  0.38221283  0.13257858  0.62432761  1
  O  O308  1  0.37904271  0.63080926  0.12973583  1
  O  O309  1  0.37456192  0.63569577  0.63192133  1
  O  O310  1  0.88840551  0.12265757  0.13488339  1
  O  O311  1  0.88131130  0.11866961  0.63991950  1
  O  O312  1  0.88765993  0.62977691  0.11739332  1
  O  O313  1  0.88115812  0.63045979  0.63069914  1
  O  O314  1  0.25190652  0.25046471  0.11371703  1
  O  O315  1  0.25594689  0.25140025  0.61861405  1
  O  O316  1  0.25532060  0.75804962  0.11889368  1
  O  O317  1  0.25838187  0.75041068  0.61936463  1
  O  O318  1  0.74965693  0.25813441  0.12934117  1
  O  O319  1  0.74114777  0.25981273  0.61298435  1
  O  O320  1  0.75384484  0.75563496  0.11934572  1
  O  O321  1  0.75819692  0.75975282  0.62586008  1
  O  O322  1  0.24410842  0.24548673  0.38104835  1
  O  O323  1  0.24653458  0.24257194  0.88258724  1
  O  O324  1  0.24521268  0.74445642  0.37925113  1
  O  O325  1  0.24507816  0.74463085  0.88050069  1
  O  O326  1  0.74293836  0.24607254  0.38275841  1
  O  O327  1  0.73375005  0.25111417  0.87451667  1
  O  O328  1  0.74352850  0.75220455  0.37892605  1
  O  O329  1  0.74374550  0.74492512  0.88084183  1
  O  O330  1  0.00104486  0.11719369  0.00708559  1
  O  O331  1  0.00313030  0.11957429  0.50496806  1
  O  O332  1  0.00743683  0.62545622  0.01013142  1
  O  O333  1  0.00554088  0.62020248  0.50645867  1
  O  O334  1  0.49472674  0.11498312  0.00838269  1
  O  O335  1  0.50467465  0.11947711  0.50564387  1
  O  O336  1  0.50510484  0.62436267  0.00650163  1
  O  O337  1  0.50481229  0.62057511  0.50529416  1
  O  O338  1  0.48682432  0.37487061  0.49735788  1
  O  O339  1  0.48906777  0.37552303  0.99497372  1
  O  O340  1  0.49542293  0.88191009  0.48863558  1
  O  O341  1  0.49541315  0.88236802  0.99527801  1
  O  O342  1  0.99342088  0.37848790  0.49759884  1
  O  O343  1  1.00319160  0.37247541  0.98711008  1
  O  O344  1  0.99163778  0.88633315  0.50666693  1
  O  O345  1  0.99595469  0.87982251  0.99622221  1
  O  O346  1  0.49133853  0.49643331  0.37421660  1
  O  O347  1  0.49295098  0.49310588  0.87626780  1
  O  O348  1  0.49308929  0.99560151  0.37719931  1
  O  O349  1  0.49809210  0.99602510  0.88226227  1
  O  O350  1  1.00144322  0.49348734  0.38218910  1
  O  O351  1  1.00066888  0.48689506  0.87541395  1
  O  O352  1  1.00672245  0.99964331  0.38559505  1
  O  O353  1  0.99438327  0.99373072  0.88096744  1
  O  O354  1  0.00011816  0.00767563  0.11154239  1
  O  O355  1  0.00647312  0.00827801  0.61914492  1
  O  O356  1  0.00561388  0.50874052  0.12626239  1
  O  O357  1  0.00643737  0.50551768  0.62010469  1
  O  O358  1  0.50623270  0.00595128  0.11764835  1
  O  O359  1  0.50377947  0.00453835  0.61967805  1
  O  O360  1  0.50580006  0.50719650  0.12491340  1
  O  O361  1  0.51136524  0.49923089  0.62411329  1
  O  O362  1  0.24299505  0.38129802  0.24960105  1
  O  O363  1  0.24282325  0.38121555  0.75034870  1
  O  O364  1  0.24351990  0.87573185  0.24007369  1
  O  O365  1  0.24089425  0.87778950  0.74848429  1
  O  O366  1  0.74361918  0.38018751  0.24220367  1
  O  O367  1  0.74631290  0.37162670  0.73930435  1
  O  O368  1  0.75156084  0.86859110  0.23422463  1
  O  O369  1  0.74511645  0.88086547  0.74515979  1
  O  O370  1  0.25024800  0.12392483  0.25706892  1
  O  O371  1  0.25135395  0.12532117  0.76297344  1
  O  O372  1  0.25432981  0.62190604  0.25396812  1
  O  O373  1  0.25486133  0.62009875  0.75687067  1
  O  O374  1  0.75448641  0.12658310  0.26468987  1
  O  O375  1  0.75864678  0.11999093  0.75261485  1
  O  O376  1  0.74554461  0.60809141  0.24371469  1
  O  O377  1  0.75720631  0.62538751  0.75712182  1
  O  O378  1  0.36991714  0.11767307  0.37377008  1
  O  O379  1  0.36649846  0.12037012  0.87459217  1
  O  O380  1  0.36919338  0.62091947  0.36871080  1
  O  O381  1  0.36908708  0.62000552  0.87031992  1
  O  O382  1  0.86185003  0.12512504  0.37352324  1
  O  O383  1  0.87618526  0.11743512  0.86228534  1
  O  O384  1  0.86746471  0.62034759  0.37665516  1
  O  O385  1  0.86853443  0.62541245  0.86930032  1
  O  O386  1  0.12545478  0.38130131  0.13207608  1
  O  O387  1  0.12680486  0.38266745  0.63151758  1
  O  O388  1  0.13542196  0.86744976  0.13500925  1
  O  O389  1  0.12462920  0.88237145  0.63223044  1
  O  O390  1  0.63146545  0.37965732  0.13048081  1
  O  O391  1  0.63286720  0.37988431  0.62990627  1
  O  O392  1  0.63358369  0.88163296  0.12607886  1
  O  O393  1  0.62942200  0.88126953  0.63190255  1
  O  O394  1  0.11545534  0.25633923  0.25691209  1
  O  O395  1  0.11613552  0.25457851  0.75591877  1
  O  O396  1  0.11488757  0.75887897  0.25310533  1
  O  O397  1  0.11916612  0.75444233  0.75553074  1
  O  O398  1  0.61778093  0.25349936  0.25815683  1
  O  O399  1  0.61872427  0.25605984  0.75755644  1
  O  O400  1  0.61006782  0.75406033  0.24831359  1
  O  O401  1  0.61989668  0.75570548  0.75467604  1
  O  O402  1  0.38661241  0.25028006  0.24970970  1
  O  O403  1  0.38188116  0.25002515  0.74334153  1
  O  O404  1  0.38227911  0.74541947  0.24465706  1
  O  O405  1  0.37888297  0.74569574  0.74374586  1
  O  O406  1  0.88950985  0.25258225  0.25390207  1
  O  O407  1  0.88516111  0.23961511  0.75616814  1
  O  O408  1  0.88974418  0.75698397  0.24204893  1
  O  O409  1  0.88163956  0.74496503  0.74500698  1
  O  O410  1  0.37319780  0.49160421  0.49470158  1
  O  O411  1  0.37344908  0.49027917  0.99365995  1
  O  O412  1  0.38105723  0.99982807  0.48815421  1
  O  O413  1  0.38712511  0.99383872  0.99410868  1
  O  O414  1  0.88224477  0.48871928  0.50121114  1
  O  O415  1  0.87988662  0.49081831  0.99532024  1
  O  O416  1  0.88601972  0.99139231  0.50667906  1
  O  O417  1  0.88598040  0.99180836  0.99368891  1
  O  O418  1  0.11189069  0.00017198  -0.00876616  1
  O  O419  1  0.11692567  0.00603839  0.50533832  1
  O  O420  1  0.12337178  0.50637903  0.00657503  1
  O  O421  1  0.12041300  0.50611424  0.50514761  1
  O  O422  1  0.61291524  -0.00653370  0.00910022  1
  O  O423  1  0.61791102  0.00028821  0.50835668  1
  O  O424  1  0.62237786  0.50642079  0.00702633  1
  O  O425  1  0.62311574  0.49465975  0.51200823  1
  O  O426  1  0.37243189  0.37300354  0.11322841  1
  O  O427  1  0.37314599  0.36962503  0.61602241  1
  O  O428  1  0.36740083  0.86989492  0.11951371  1
  O  O429  1  0.37298416  0.86332385  0.62442436  1
  O  O430  1  0.86356819  0.37016379  0.12592353  1
  O  O431  1  0.86507755  0.37857868  0.61547220  1
  O  O432  1  0.86720620  0.86662981  0.11610923  1
  O  O433  1  0.87120417  0.87160988  0.62071913  1
  O  O434  1  0.13075630  0.13238320  0.38262690  1
  O  O435  1  0.13497037  0.13017175  0.87821846  1
  O  O436  1  0.13094559  0.63157868  0.38030575  1
  O  O437  1  0.13001724  0.63006716  0.87963799  1
  O  O438  1  0.63627348  0.13476936  0.37544330  1
  O  O439  1  0.62421545  0.14019774  0.86914555  1
  O  O440  1  0.63260389  0.62847365  0.37591370  1
  O  O441  1  0.62920804  0.63057060  0.87932212  1
