# generated using pymatgen
data_V93Zn93O256
_symmetry_space_group_name_H-M   'P 1'
_cell_length_a   17.05472564
_cell_length_b   17.05359971
_cell_length_c   17.05399634
_cell_angle_alpha   90.00918980
_cell_angle_beta   89.96681052
_cell_angle_gamma   89.99237229
_symmetry_Int_Tables_number   1
_chemical_formula_structural   V93Zn93O256
_chemical_formula_sum   'V93 Zn93 O256'
_cell_volume   4960.05948543
_cell_formula_units_Z   1
loop_
 _symmetry_equiv_pos_site_id
 _symmetry_equiv_pos_as_xyz
  1  'x, y, z'
loop_
 _atom_site_type_symbol
 _atom_site_label
 _atom_site_symmetry_multiplicity
 _atom_site_fract_x
 _atom_site_fract_y
 _atom_site_fract_z
 _atom_site_occupancy
  V  V0  1  0.37100168  0.24979552  0.12148572  1
  V  V1  1  0.25642353  0.75350067  -0.00036849  1
  V  V2  1  0.25076517  0.37579125  0.62459866  1
  V  V3  1  0.74932980  0.24836610  0.00064802  1
  V  V4  1  0.24938181  0.75405132  0.50443028  1
  V  V5  1  0.87564825  0.24937938  0.62549318  1
  V  V6  1  0.37126927  0.87726773  0.50546705  1
  V  V7  1  -0.00070570  0.62957495  0.63073809  1
  V  V8  1  0.87481834  0.62421951  0.24988383  1
  V  V9  1  0.37502268  0.62551769  0.75005321  1
  V  V10  1  0.75022542  0.49956149  0.25017187  1
  V  V11  1  0.62454500  0.12440702  0.49975056  1
  V  V12  1  -0.00088031  0.49834928  0.49818186  1
  V  V13  1  0.25070603  0.50025707  0.75019696  1
  V  V14  1  0.12262512  0.25279428  0.37280533  1
  V  V15  1  0.62523128  0.87534364  0.24983448  1
  V  V16  1  0.00036512  0.00034116  0.49858338  1
  V  V17  1  0.62491306  0.37472430  0.24976507  1
  V  V18  1  0.37533357  0.49939925  0.87516055  1
  V  V19  1  0.87645103  0.00192429  0.37058076  1
  V  V20  1  0.12649012  0.50114716  0.62557750  1
  V  V21  1  0.62471037  0.24989317  0.37423880  1
  V  V22  1  0.62381096  0.87525208  0.74971747  1
  V  V23  1  0.24999886  0.12689370  0.37343777  1
  V  V24  1  0.62312118  0.12250081  -0.00070884  1
  V  V25  1  0.49883518  0.62511983  0.12501970  1
  V  V26  1  0.62373757  0.24842202  0.87437447  1
  V  V27  1  0.49926712  0.25114772  0.24971473  1
  V  V28  1  0.37565875  0.24939982  0.62415149  1
  V  V29  1  0.12261455  0.36762137  0.75528080  1
  V  V30  1  0.62582682  0.75070702  0.37491046  1
  V  V31  1  0.49918129  0.49985779  0.00056542  1
  V  V32  1  0.25011891  0.25178745  0.49847082  1
  V  V33  1  0.49874966  0.12442681  0.12357689  1
  V  V34  1  0.37290493  -0.00282033  0.88176314  1
  V  V35  1  0.62570936  0.49962615  0.62510047  1
  V  V36  1  0.75195439  0.62057684  0.87328020  1
  V  V37  1  0.12483852  0.00146454  0.12283682  1
  V  V38  1  0.37508354  0.12580240  0.74999647  1
  V  V39  1  0.24962251  0.62598422  0.87610756  1
  V  V40  1  0.87507118  0.12401111  0.75014490  1
  V  V41  1  -0.00818320  0.24540979  0.25037586  1
  V  V42  1  0.87504847  0.75053851  0.12527103  1
  V  V43  1  0.24952923  0.37039776  0.12104179  1
  V  V44  1  -0.00703860  0.12345463  0.12694367  1
  V  V45  1  0.12492904  0.87463352  0.25101537  1
  V  V46  1  0.62399613  0.00135349  0.62405216  1
  V  V47  1  0.25023565  0.50170823  0.24965737  1
  V  V48  1  0.49846301  0.75064515  0.75054919  1
  V  V49  1  0.75065412  0.74927397  0.00071835  1
  V  V50  1  0.75055038  0.37466372  0.62460742  1
  V  V51  1  0.37267526  0.37076796  -0.00015780  1
  V  V52  1  0.50083475  0.62581806  0.62517581  1
  V  V53  1  0.00107851  0.74969186  0.25014791  1
  V  V54  1  0.75148941  0.87439495  0.62396630  1
  V  V55  1  0.37384785  0.12648710  0.24892639  1
  V  V56  1  0.37467001  0.50140556  0.37486711  1
  V  V57  1  0.62407089  0.74987396  0.87545717  1
  V  V58  1  0.75037931  0.62506175  0.37444129  1
  V  V59  1  0.24964551  0.00035339  0.24920541  1
  V  V60  1  0.37336191  0.75410291  0.62596801  1
  V  V61  1  0.13008007  -0.00598643  0.62421597  1
  V  V62  1  0.49502494  0.87561079  0.88190264  1
  V  V63  1  0.24921716  -0.00619954  0.74650774  1
  V  V64  1  0.24549547  0.13541099  0.87915296  1
  V  V65  1  0.00013130  0.12560436  0.62551227  1
  V  V66  1  0.12479917  0.50154414  0.12495163  1
  V  V67  1  0.49991139  0.37322022  0.87483047  1
  V  V68  1  0.12618773  0.62758263  0.49864648  1
  V  V69  1  0.37529933  0.00126677  0.37544568  1
  V  V70  1  0.37496327  0.62644518  0.24969771  1
  V  V71  1  0.75290638  0.00152704  0.24865965  1
  V  V72  1  0.49877998  0.74987794  0.24998252  1
  V  V73  1  0.37519767  0.37680391  0.49913067  1
  V  V74  1  0.62576995  0.37416056  0.75008281  1
  V  V75  1  0.00108535  -0.00641651  -0.00470257  1
  V  V76  1  0.74869927  0.37397654  0.12530828  1
  V  V77  1  0.75052024  0.25030572  0.49997150  1
  V  V78  1  0.62495753  -0.00004666  0.12388606  1
  V  V79  1  0.75097334  0.87443218  0.12364599  1
  V  V80  1  0.49925326  0.50134093  0.50034771  1
  V  V81  1  0.75385095  0.12529816  0.36866172  1
  V  V82  1  0.11944435  0.75831771  0.87366027  1
  V  V83  1  0.87841543  -0.00842305  0.87363098  1
  V  V84  1  -0.00077452  0.49859700  -0.00079933  1
  V  V85  1  0.74985077  0.12217298  0.87463542  1
  V  V86  1  0.75179732  0.74989460  0.50040002  1
  V  V87  1  0.49915873  0.87616953  0.37512663  1
  V  V88  1  0.62372805  0.62360847  0.00058438  1
  V  V89  1  0.25690587  0.87521558  0.12077294  1
  V  V90  1  0.12566411  0.13848621  -0.00416143  1
  V  V91  1  0.12551498  0.12621606  0.50057108  1
  V  V92  1  0.87362849  0.37172394  -0.00187527  1
  Zn  Zn93  1  0.87641231  0.75047288  0.62905094  1
  Zn  Zn94  1  -0.00911351  0.76177203  0.75818635  1
  Zn  Zn95  1  0.75078025  -0.00143798  0.75113157  1
  Zn  Zn96  1  0.12611015  0.75197910  0.37573194  1
  Zn  Zn97  1  0.87511013  0.49773207  0.37483309  1
  Zn  Zn98  1  0.01310134  0.36099844  0.88652404  1
  Zn  Zn99  1  0.50023570  0.12646229  0.62358417  1
  Zn  Zn100  1  0.87997702  0.49710018  0.87122329  1
  Zn  Zn101  1  -0.00040338  0.62432537  0.12458431  1
  Zn  Zn102  1  0.62505952  0.62483334  0.50035273  1
  Zn  Zn103  1  0.49520993  -0.00440581  0.00327070  1
  Zn  Zn104  1  0.87619784  0.37496281  0.49971613  1
  Zn  Zn105  1  -0.00312661  0.37606233  0.37114385  1
  Zn  Zn106  1  0.12134202  0.87711874  0.75065084  1
  Zn  Zn107  1  0.87626393  0.62341095  0.75069898  1
  Zn  Zn108  1  0.87835687  0.87540943  0.50030280  1
  Zn  Zn109  1  0.49886690  0.00131748  0.49997759  1
  Zn  Zn110  1  0.12330823  0.37577884  0.24950964  1
  Zn  Zn111  1  0.50047534  0.24916982  0.74833356  1
  Zn  Zn112  1  -0.00119248  0.87527914  0.37633854  1
  Zn  Zn113  1  0.50029338  0.37621153  0.37461930  1
  Zn  Zn114  1  0.75455602  0.49863633  0.74880458  1
  Zn  Zn115  1  0.88040588  0.87086103  -0.00462388  1
  Zn  Zn116  1  0.87033956  0.24391630  0.13012237  1
  Zn  Zn117  1  0.37720259  0.75395156  0.12196847  1
  Zn  Zn118  1  0.62377633  0.49931489  0.12567681  1
  Zn  Zn119  1  0.12397248  0.62561791  -0.00181798  1
  Zn  Zn120  1  0.25049582  0.62771804  0.37400389  1
  Zn  Zn121  1  0.00297849  0.24499794  0.75650035  1
  Zn  Zn122  1  0.18251216  0.18708633  0.18560275  1
  Zn  Zn123  1  0.19095115  0.18380042  0.68722044  1
  Zn  Zn124  1  0.18861711  0.68735404  0.18495981  1
  Zn  Zn125  1  0.18755103  0.68888933  0.68834854  1
  Zn  Zn126  1  0.68553195  0.18750816  0.18679200  1
  Zn  Zn127  1  0.68969362  0.18750300  0.68891355  1
  Zn  Zn128  1  0.68664673  0.68638088  0.18721047  1
  Zn  Zn129  1  0.68622844  0.68712709  0.68875073  1
  Zn  Zn130  1  0.31213236  0.31608396  0.30957941  1
  Zn  Zn131  1  0.31182902  0.31308155  0.81149037  1
  Zn  Zn132  1  0.31223752  0.81200795  0.31553208  1
  Zn  Zn133  1  0.31007235  0.81332348  0.81407536  1
  Zn  Zn134  1  0.81396777  0.31565527  0.31540196  1
  Zn  Zn135  1  0.81302726  0.30994018  0.81231827  1
  Zn  Zn136  1  0.81421348  0.81505574  0.31275708  1
  Zn  Zn137  1  0.81125778  0.80851155  0.80974510  1
  Zn  Zn138  1  0.18748200  0.43921645  0.43630928  1
  Zn  Zn139  1  0.18923463  0.43732427  0.93865001  1
  Zn  Zn140  1  0.18870408  0.93863468  0.43701957  1
  Zn  Zn141  1  0.18863511  0.94228935  0.93792059  1
  Zn  Zn142  1  0.68699564  0.43764608  0.43781002  1
  Zn  Zn143  1  0.68632737  0.43693016  0.93812662  1
  Zn  Zn144  1  0.68842551  0.93803571  0.43767271  1
  Zn  Zn145  1  0.68788131  0.93642049  0.93790484  1
  Zn  Zn146  1  0.30840705  0.06534038  0.06094664  1
  Zn  Zn147  1  0.31144447  0.06400207  0.56226804  1
  Zn  Zn148  1  0.31243207  0.56352379  0.06220174  1
  Zn  Zn149  1  0.31306053  0.56532439  0.56305348  1
  Zn  Zn150  1  0.81311925  0.05909747  0.05816052  1
  Zn  Zn151  1  0.81294174  0.06289893  0.55913705  1
  Zn  Zn152  1  0.81266973  0.56115283  0.06377628  1
  Zn  Zn153  1  0.81435532  0.56293618  0.56325152  1
  Zn  Zn154  1  0.43691868  0.43791895  0.18753191  1
  Zn  Zn155  1  0.43938030  0.43693154  0.68742441  1
  Zn  Zn156  1  0.43791016  0.93906029  0.18959928  1
  Zn  Zn157  1  0.43832378  0.93893367  0.69041953  1
  Zn  Zn158  1  0.93664806  0.43291785  0.18723767  1
  Zn  Zn159  1  0.93738178  0.43957691  0.68622122  1
  Zn  Zn160  1  0.93736504  0.93735876  0.18572590  1
  Zn  Zn161  1  0.94109431  0.93826214  0.68869913  1
  Zn  Zn162  1  0.06218980  0.06424346  0.31140346  1
  Zn  Zn163  1  0.06311886  0.06311266  0.81304601  1
  Zn  Zn164  1  0.06299826  0.56393949  0.31284156  1
  Zn  Zn165  1  0.06553166  0.56077865  0.81487012  1
  Zn  Zn166  1  0.56307600  0.06315494  0.31151456  1
  Zn  Zn167  1  0.56079345  0.06013582  0.81191807  1
  Zn  Zn168  1  0.56326042  0.56240403  0.31325093  1
  Zn  Zn169  1  0.56412271  0.56069608  0.81178286  1
  Zn  Zn170  1  0.43944988  0.18797383  0.43778001  1
  Zn  Zn171  1  0.43571595  0.18628139  0.93729544  1
  Zn  Zn172  1  0.43708880  0.68813941  0.43732251  1
  Zn  Zn173  1  0.43672439  0.68736726  0.93769412  1
  Zn  Zn174  1  0.93658987  0.18628020  0.43858981  1
  Zn  Zn175  1  0.93880324  0.18446976  0.93666126  1
  Zn  Zn176  1  0.93662586  0.68679613  0.43698906  1
  Zn  Zn177  1  0.93682330  0.68393792  0.93994200  1
  Zn  Zn178  1  0.05943667  0.31295210  0.06924203  1
  Zn  Zn179  1  0.06271853  0.31316154  0.56654366  1
  Zn  Zn180  1  0.06787576  0.81173576  0.06261398  1
  Zn  Zn181  1  0.06085794  0.81465095  0.56423301  1
  Zn  Zn182  1  0.56099918  0.31148061  0.06251434  1
  Zn  Zn183  1  0.56169869  0.31247135  0.56237866  1
  Zn  Zn184  1  0.56400480  0.81081579  0.06322790  1
  Zn  Zn185  1  0.56146803  0.81337503  0.56085076  1
  O  O186  1  0.11820586  0.11919199  0.11599758  1
  O  O187  1  0.12078054  0.11905770  0.61853872  1
  O  O188  1  0.12455158  0.61197561  0.12185690  1
  O  O189  1  0.12001509  0.62176342  0.61661945  1
  O  O190  1  0.61862470  0.11919628  0.11973770  1
  O  O191  1  0.62715770  0.11604743  0.61982626  1
  O  O192  1  0.61722449  0.62397403  0.11822947  1
  O  O193  1  0.61774275  0.61890036  0.62464133  1
  O  O194  1  0.37550220  0.38252226  0.38145029  1
  O  O195  1  0.37890759  0.37997111  0.87911865  1
  O  O196  1  0.37943245  0.88167107  0.38291352  1
  O  O197  1  0.38404787  0.88537500  0.86696847  1
  O  O198  1  0.87986409  0.37929717  0.38223893  1
  O  O199  1  0.87049949  0.37667007  0.89055580  1
  O  O200  1  0.87601807  0.88807946  0.37822928  1
  O  O201  1  0.86766480  0.88761914  0.87472198  1
  O  O202  1  0.25517126  0.00743503  0.36873986  1
  O  O203  1  0.25739028  0.00672983  0.86685714  1
  O  O204  1  0.25568959  0.50272348  0.36790463  1
  O  O205  1  0.25670106  0.50551311  0.87032042  1
  O  O206  1  0.75619666  0.00671428  0.36998488  1
  O  O207  1  0.75820843  0.00480716  0.87471099  1
  O  O208  1  0.75030594  0.50747715  0.36880438  1
  O  O209  1  0.74920512  0.51108416  0.87569508  1
  O  O210  1  0.24301888  0.49300653  0.12905317  1
  O  O211  1  0.24672343  0.49611115  0.63027372  1
  O  O212  1  0.24514706  0.99373947  0.12965775  1
  O  O213  1  0.24108781  1.00991508  0.63483817  1
  O  O214  1  0.74687492  0.49249393  0.13168636  1
  O  O215  1  0.74342617  0.49370629  0.62439449  1
  O  O216  1  0.74520833  0.99533598  0.12904052  1
  O  O217  1  0.74034799  0.99121494  0.62324968  1
  O  O218  1  0.00438989  0.36217132  0.25043839  1
  O  O219  1  0.01796908  0.37745802  0.74735117  1
  O  O220  1  0.00994749  0.86777699  0.24852281  1
  O  O221  1  0.00905612  0.87166674  0.74393446  1
  O  O222  1  0.50564904  0.36846846  0.25062101  1
  O  O223  1  0.50614390  0.37310455  0.75755545  1
  O  O224  1  0.50545995  0.87009919  0.25529584  1
  O  O225  1  0.50447647  0.86943455  0.75906546  1
  O  O226  1  0.49373849  0.13042202  0.24355244  1
  O  O227  1  0.48560878  0.12490167  0.74944643  1
  O  O228  1  0.49557962  0.63068957  0.24476807  1
  O  O229  1  0.49421889  0.63110160  0.74623384  1
  O  O230  1  1.00765418  0.13233024  0.23749066  1
  O  O231  1  0.99352766  0.12347260  0.74193353  1
  O  O232  1  0.99552844  0.63458649  0.24813654  1
  O  O233  1  1.00521497  0.62483234  0.73824956  1
  O  O234  1  0.38026691  0.25783273  0.00914596  1
  O  O235  1  0.36898362  0.25604206  0.50324553  1
  O  O236  1  0.36118492  0.74898222  -0.00010947  1
  O  O237  1  0.36861772  0.75798102  0.50493534  1
  O  O238  1  0.86719420  0.25637712  0.00238190  1
  O  O239  1  0.86811441  0.24898751  0.50757658  1
  O  O240  1  0.86989744  0.75163337  0.00635410  1
  O  O241  1  0.86286250  0.75296541  0.50185453  1
  O  O242  1  0.12982310  0.24615151  0.49244669  1
  O  O243  1  0.11682846  0.23700439  1.00449642  1
  O  O244  1  0.13260958  0.74474960  0.50126851  1
  O  O245  1  0.13437201  0.74728237  0.99068194  1
  O  O246  1  0.63061779  0.24456586  0.49418089  1
  O  O247  1  0.62933214  0.24296256  0.99432987  1
  O  O248  1  0.63489275  0.75012780  0.49376994  1
  O  O249  1  0.63020037  0.74310914  0.99442462  1
  O  O250  1  0.49293972  0.24356857  0.13081780  1
  O  O251  1  0.49143177  0.24716830  0.62756450  1
  O  O252  1  0.49770768  0.74513928  0.13133532  1
  O  O253  1  0.49467083  0.74633165  0.63138104  1
  O  O254  1  0.99766180  0.24023950  0.13437243  1
  O  O255  1  0.99422710  0.24274429  0.62782462  1
  O  O256  1  0.99652958  0.74961129  0.13496595  1
  O  O257  1  1.00054733  0.73892205  0.62490498  1
  O  O258  1  0.00851364  0.24583770  0.36870212  1
  O  O259  1  -0.00566974  0.25242304  0.86845437  1
  O  O260  1  0.00157504  0.75289316  0.36229522  1
  O  O261  1  0.01704955  0.74176625  0.87787243  1
  O  O262  1  0.50658575  0.25091976  0.36742721  1
  O  O263  1  0.50580920  0.25562527  0.87354231  1
  O  O264  1  0.50558540  0.75626824  0.36993775  1
  O  O265  1  0.50303650  0.75670709  0.87022101  1
  O  O266  1  0.24574024  0.13258468  0.49283710  1
  O  O267  1  0.23759912  0.11935904  0.99107987  1
  O  O268  1  0.24101227  0.63347077  0.50047545  1
  O  O269  1  0.24859294  0.63411285  0.99456093  1
  O  O270  1  0.74373862  0.12982309  0.48957935  1
  O  O271  1  0.74287504  0.12870322  0.99507923  1
  O  O272  1  0.74891988  0.63515256  0.49511941  1
  O  O273  1  0.74411234  0.62941342  0.99366416  1
  O  O274  1  0.25717198  0.38164203  0.01279413  1
  O  O275  1  0.25478332  0.37129335  0.50534975  1
  O  O276  1  0.24184816  0.86798168  0.01191733  1
  O  O277  1  0.26153875  0.86779014  0.49445055  1
  O  O278  1  0.75439672  0.36883166  0.00544706  1
  O  O279  1  0.74987616  0.36725391  0.50679046  1
  O  O280  1  0.75007605  0.86627083  0.00669682  1
  O  O281  1  0.74902372  0.86652141  0.50777780  1
  O  O282  1  0.12950514  0.49957253  0.24098779  1
  O  O283  1  0.13278852  0.49221890  0.74426482  1
  O  O284  1  0.12989171  0.99357735  0.24418455  1
  O  O285  1  0.13350924  1.00303698  0.74077946  1
  O  O286  1  0.63137975  0.49286716  0.24877295  1
  O  O287  1  0.62652214  0.49185424  0.74284443  1
  O  O288  1  0.63135012  0.99452042  0.24369897  1
  O  O289  1  0.62693081  0.99439465  0.74056904  1
  O  O290  1  0.36881002  0.00709638  0.25570536  1
  O  O291  1  0.36782768  0.00803101  0.75532147  1
  O  O292  1  0.37036717  0.50645522  0.25503192  1
  O  O293  1  0.37049708  0.50517578  0.75514833  1
  O  O294  1  0.86867590  -0.00497639  0.26081665  1
  O  O295  1  0.87338323  0.00570759  0.75748212  1
  O  O296  1  0.86924693  0.50614642  0.24979691  1
  O  O297  1  0.87276231  0.50411112  0.75462022  1
  O  O298  1  0.12342119  0.36250261  0.37453226  1
  O  O299  1  0.13042722  0.37838118  0.85875162  1
  O  O300  1  0.12447814  0.87596938  0.36137738  1
  O  O301  1  0.13006601  0.86038642  0.87747348  1
  O  O302  1  0.62422515  0.36699745  0.36807254  1
  O  O303  1  0.61982106  0.36823520  0.87085070  1
  O  O304  1  0.62026408  0.87124284  0.36908257  1
  O  O305  1  0.61706632  0.87010983  0.86926780  1
  O  O306  1  0.37776357  0.12924463  0.12999008  1
  O  O307  1  0.37410983  0.12985091  0.63431097  1
  O  O308  1  0.38138019  0.62753875  0.13175504  1
  O  O309  1  0.38085315  0.63248829  0.63151647  1
  O  O310  1  0.88870612  0.12402626  0.11811837  1
  O  O311  1  0.87942576  0.12820551  0.62957282  1
  O  O312  1  0.87587589  0.63282921  0.13221964  1
  O  O313  1  0.88759998  0.62684081  0.62564173  1
  O  O314  1  0.25430108  0.26258987  0.13341286  1
  O  O315  1  0.25571187  0.25486522  0.61731726  1
  O  O316  1  0.25013861  0.75838931  0.11665849  1
  O  O317  1  0.25668762  0.74601585  0.61294378  1
  O  O318  1  0.75051754  0.25409737  0.11922781  1
  O  O319  1  0.75498178  0.25420856  0.61855277  1
  O  O320  1  0.75466521  0.75444156  0.12047425  1
  O  O321  1  0.74691395  0.75798550  0.61660842  1
  O  O322  1  0.24196231  0.24674255  0.37773651  1
  O  O323  1  0.25519796  0.23408215  0.87082060  1
  O  O324  1  0.24802596  0.74781815  0.38931261  1
  O  O325  1  0.24358185  0.74630717  0.88265165  1
  O  O326  1  0.74540819  0.24178268  0.37831530  1
  O  O327  1  0.74327998  0.24237619  0.88128270  1
  O  O328  1  0.74594318  0.74700144  0.38178054  1
  O  O329  1  0.74314497  0.74163254  0.88092798  1
  O  O330  1  0.00713649  0.11491834  0.00770484  1
  O  O331  1  0.00686596  0.11998697  0.50524055  1
  O  O332  1  0.00180880  0.61153582  0.00476914  1
  O  O333  1  0.00908235  0.62040904  0.50663150  1
  O  O334  1  0.50558286  0.12205398  0.00649286  1
  O  O335  1  0.50806305  0.12159237  0.50218489  1
  O  O336  1  0.50354990  0.62015250  0.00434615  1
  O  O337  1  0.50044524  0.62049811  0.50787944  1
  O  O338  1  0.49237699  0.38255029  0.49877933  1
  O  O339  1  0.49382486  0.38020264  0.99447640  1
  O  O340  1  0.48920390  0.87631272  0.49288841  1
  O  O341  1  0.50423662  0.87448145  0.98593228  1
  O  O342  1  1.00339383  0.38867278  0.50154388  1
  O  O343  1  0.99103660  0.38013001  1.00331795  1
  O  O344  1  0.99907121  0.88392092  0.49628572  1
  O  O345  1  1.00099317  0.88959539  1.00830052  1
  O  O346  1  0.49320064  0.49936459  0.38200814  1
  O  O347  1  0.49420909  0.49404746  0.88026536  1
  O  O348  1  0.49291838  0.99447539  0.37446104  1
  O  O349  1  0.49077006  0.99144351  0.87508472  1
  O  O350  1  1.00174596  0.49967752  0.38633630  1
  O  O351  1  1.00279459  0.49270057  0.88898841  1
  O  O352  1  0.99174693  1.00292552  0.37877119  1
  O  O353  1  0.99040059  1.00624147  0.88485904  1
  O  O354  1  0.00478125  0.00682843  0.11918153  1
  O  O355  1  0.00941199  0.00740104  0.61738813  1
  O  O356  1  0.00949992  0.49739887  0.11826887  1
  O  O357  1  0.00728876  0.50928224  0.61636784  1
  O  O358  1  0.50547151  0.00543174  0.12420509  1
  O  O359  1  0.51334172  0.00101316  0.62403249  1
  O  O360  1  0.50015664  0.50664170  0.11803079  1
  O  O361  1  0.50441571  0.50616037  0.62014340  1
  O  O362  1  0.24848520  0.38380853  0.23878697  1
  O  O363  1  0.24340141  0.38071791  0.74410756  1
  O  O364  1  0.24243186  0.87938598  0.24394901  1
  O  O365  1  0.24663115  0.89067309  0.75461536  1
  O  O366  1  0.74500981  0.37890101  0.24486822  1
  O  O367  1  0.74313016  0.37464970  0.74307839  1
  O  O368  1  0.74384084  0.88037094  0.24379252  1
  O  O369  1  0.74183338  0.87427419  0.73905027  1
  O  O370  1  0.25373520  0.12008739  0.25341199  1
  O  O371  1  0.25782432  0.11688687  0.75786186  1
  O  O372  1  0.25602749  0.61981269  0.25070018  1
  O  O373  1  0.25664972  0.61966225  0.75459676  1
  O  O374  1  0.74309395  0.11897386  0.26153905  1
  O  O375  1  0.75666398  0.12154372  0.75700200  1
  O  O376  1  0.75480240  0.62030250  0.25465298  1
  O  O377  1  0.74777935  0.62370311  0.76286552  1
  O  O378  1  0.36910033  0.12192718  0.36886972  1
  O  O379  1  0.36829366  0.11711236  0.86782060  1
  O  O380  1  0.37379259  0.61920129  0.36828660  1
  O  O381  1  0.37055334  0.61932111  0.86874464  1
  O  O382  1  0.86316956  0.11541741  0.37979369  1
  O  O383  1  0.86815618  0.11432958  0.87032499  1
  O  O384  1  0.86791895  0.62359680  0.36723157  1
  O  O385  1  0.86299124  0.62149129  0.87680642  1
  O  O386  1  0.13352728  0.38383221  0.12539180  1
  O  O387  1  0.13273614  0.38188225  0.63247157  1
  O  O388  1  0.13400033  0.88037882  0.13522756  1
  O  O389  1  0.12675347  0.89203793  0.62088233  1
  O  O390  1  0.63079586  0.37471511  0.13147046  1
  O  O391  1  0.63023470  0.37922381  0.63023466  1
  O  O392  1  0.63045808  0.87997293  0.13054927  1
  O  O393  1  0.63123323  0.88185229  0.62826501  1
  O  O394  1  0.11686648  0.24977601  0.25997793  1
  O  O395  1  0.12780182  0.26531996  0.74158702  1
  O  O396  1  0.11861243  0.75736702  0.24934303  1
  O  O397  1  0.13049174  0.75215279  0.76578016  1
  O  O398  1  0.61884650  0.25467136  0.25489767  1
  O  O399  1  0.62333833  0.25500679  0.75682556  1
  O  O400  1  0.61946998  0.75625833  0.25516682  1
  O  O401  1  0.61751566  0.75545396  0.75597172  1
  O  O402  1  0.37916928  0.24482628  0.24370286  1
  O  O403  1  0.37348855  0.24009426  0.74359253  1
  O  O404  1  0.38156018  0.74479914  0.25002131  1
  O  O405  1  0.37819282  0.74584377  0.74593617  1
  O  O406  1  0.88745017  0.25095759  0.25106518  1
  O  O407  1  0.87425352  0.24167133  0.74131904  1
  O  O408  1  0.88289487  0.74636670  0.24550354  1
  O  O409  1  0.87730727  0.74156330  0.74718858  1
  O  O410  1  0.37892563  0.49633477  0.49581379  1
  O  O411  1  0.37992881  0.49343787  0.99371848  1
  O  O412  1  0.37404865  0.99306595  0.49483990  1
  O  O413  1  0.37471454  1.00533649  0.98556970  1
  O  O414  1  0.88853948  0.50092698  0.49907098  1
  O  O415  1  0.88405766  0.49021174  1.00231406  1
  O  O416  1  0.88160647  0.99984120  0.48961175  1
  O  O417  1  0.88376539  0.99669626  0.99083881  1
  O  O418  1  0.11674999  0.00562074  0.00499544  1
  O  O419  1  0.12309785  0.00731617  0.50465967  1
  O  O420  1  0.11700993  0.49770391  0.00863640  1
  O  O421  1  0.12091575  0.50954902  0.50496798  1
  O  O422  1  0.62270857  0.00522596  0.00676789  1
  O  O423  1  0.62435691  0.00468768  0.50816514  1
  O  O424  1  0.61653565  0.50577836  0.00143990  1
  O  O425  1  0.61746449  0.50185806  0.50684743  1
  O  O426  1  0.36731663  0.37052403  0.12041537  1
  O  O427  1  0.36931430  0.37042389  0.61985370  1
  O  O428  1  0.36090094  0.87517340  0.13208515  1
  O  O429  1  0.38207925  0.87115530  0.61352950  1
  O  O430  1  0.86723252  0.37075450  0.11432174  1
  O  O431  1  0.86903071  0.36780548  0.62284756  1
  O  O432  1  0.86765020  0.86822828  0.12363570  1
  O  O433  1  0.86080143  0.87598009  0.62323532  1
  O  O434  1  0.13069799  0.13362117  0.37979293  1
  O  O435  1  0.13423477  0.11818850  0.88392350  1
  O  O436  1  0.12636503  0.62840747  0.38847093  1
  O  O437  1  0.13432192  0.63314219  0.87638933  1
  O  O438  1  0.63355846  0.12912466  0.37929657  1
  O  O439  1  0.62887801  0.12775470  0.87916086  1
  O  O440  1  0.63204921  0.63345302  0.37632321  1
  O  O441  1  0.63017688  0.63038979  0.88060959  1
