# generated using pymatgen
data_V93Zn93O256
_symmetry_space_group_name_H-M   'P 1'
_cell_length_a   17.05011780
_cell_length_b   17.05139930
_cell_length_c   17.05385525
_cell_angle_alpha   90.01629906
_cell_angle_beta   90.08504265
_cell_angle_gamma   90.00454073
_symmetry_Int_Tables_number   1
_chemical_formula_structural   V93Zn93O256
_chemical_formula_sum   'V93 Zn93 O256'
_cell_volume   4958.03380614
_cell_formula_units_Z   1
loop_
 _symmetry_equiv_pos_site_id
 _symmetry_equiv_pos_as_xyz
  1  'x, y, z'
loop_
 _atom_site_type_symbol
 _atom_site_label
 _atom_site_symmetry_multiplicity
 _atom_site_fract_x
 _atom_site_fract_y
 _atom_site_fract_z
 _atom_site_occupancy
  V  V0  1  0.00058482  0.62405125  0.12523118  1
  V  V1  1  0.74942778  0.12584654  0.37448355  1
  V  V2  1  0.12649195  0.87097298  0.75668484  1
  V  V3  1  -0.00470949  0.24589660  0.74982836  1
  V  V4  1  0.62313554  0.62381901  -0.00100371  1
  V  V5  1  0.87520853  0.37537091  0.50185599  1
  V  V6  1  0.75082450  0.50064356  0.25025302  1
  V  V7  1  0.12564435  0.37187094  0.25676954  1
  V  V8  1  0.25138006  -0.00147403  0.24996037  1
  V  V9  1  0.00094826  0.49962512  -0.00058687  1
  V  V10  1  0.24612042  0.64280810  0.87455795  1
  V  V11  1  0.12542499  -0.00022005  0.12507929  1
  V  V12  1  0.62534461  0.62726795  0.50052610  1
  V  V13  1  0.12622347  0.37613321  0.75048382  1
  V  V14  1  -0.00010808  0.12529475  0.12440223  1
  V  V15  1  0.50010942  0.12479120  0.12389977  1
  V  V16  1  0.25005690  0.62515101  0.37489114  1
  V  V17  1  0.75044023  0.37435870  0.12526692  1
  V  V18  1  0.00020598  0.37489517  0.87564001  1
  V  V19  1  0.63111124  -0.00055829  0.62678329  1
  V  V20  1  0.87484877  0.24996031  0.12515244  1
  V  V21  1  0.37532722  0.25011639  0.12358446  1
  V  V22  1  0.00123299  0.49929995  0.50139489  1
  V  V23  1  0.12632705  0.00026750  0.62450153  1
  V  V24  1  0.37526873  0.37499186  -0.00134077  1
  V  V25  1  0.62593946  0.75063915  0.37637180  1
  V  V26  1  0.37423113  0.62482173  0.24909576  1
  V  V27  1  0.87451790  0.74830316  0.12639703  1
  V  V28  1  0.75043218  0.25128671  0.49976963  1
  V  V29  1  0.00094947  0.00044196  0.49984647  1
  V  V30  1  0.75195992  0.11823603  0.86817865  1
  V  V31  1  0.25132084  0.00044419  0.74862140  1
  V  V32  1  0.00046145  0.87373505  0.37520243  1
  V  V33  1  0.50071498  0.50044455  0.50039462  1
  V  V34  1  0.50056526  0.75446773  0.75469044  1
  V  V35  1  0.74874588  0.24934978  -0.00139619  1
  V  V36  1  0.87431190  0.87651467  -0.00296010  1
  V  V37  1  0.12398069  0.24890998  0.87497021  1
  V  V38  1  0.49889570  0.74928522  0.24941066  1
  V  V39  1  0.00455628  0.24993352  0.25663571  1
  V  V40  1  0.87504212  -0.00063887  0.37468840  1
  V  V41  1  -0.00023206  0.74906638  0.25098492  1
  V  V42  1  0.75056458  0.37569453  0.62569875  1
  V  V43  1  0.24954049  0.37504601  0.12489736  1
  V  V44  1  0.62501963  0.37480905  0.25031330  1
  V  V45  1  0.87661577  0.49994567  0.87503733  1
  V  V46  1  0.00049951  0.12523958  0.62554161  1
  V  V47  1  0.36317241  0.49787517  0.86909878  1
  V  V48  1  0.12434444  0.12375853  -0.00078954  1
  V  V49  1  0.62390223  0.00011175  0.12430882  1
  V  V50  1  0.37662484  0.12508029  0.74910073  1
  V  V51  1  0.12549689  0.13019215  0.49267406  1
  V  V52  1  0.37483250  0.24962920  0.62513680  1
  V  V53  1  0.37028273  0.87030768  0.00157294  1
  V  V54  1  0.75009568  0.50008701  0.75003923  1
  V  V55  1  0.50047481  0.62523963  0.62776974  1
  V  V56  1  0.62849138  0.87938543  0.75764328  1
  V  V57  1  0.37655822  0.50086322  0.37552984  1
  V  V58  1  0.25158117  0.37774215  0.62939276  1
  V  V59  1  0.87664821  0.49923348  0.37558126  1
  V  V60  1  0.13002142  0.50076787  0.63133971  1
  V  V61  1  0.38122273  -0.00445942  0.87370958  1
  V  V62  1  0.87526459  0.87412211  0.50095876  1
  V  V63  1  0.74851885  0.87442674  0.12521925  1
  V  V64  1  0.12619287  0.62612518  0.50129708  1
  V  V65  1  0.37474320  0.75219689  0.62344660  1
  V  V66  1  0.87596864  0.62644505  0.75055166  1
  V  V67  1  0.12512769  0.49887171  0.12403429  1
  V  V68  1  0.62522380  0.37554812  0.75063689  1
  V  V69  1  0.74829235  0.74909667  0.00021896  1
  V  V70  1  0.37412473  0.12444853  0.24977022  1
  V  V71  1  0.49989131  0.25116707  0.24951656  1
  V  V72  1  0.49971031  0.25071987  0.74976159  1
  V  V73  1  0.49943125  0.37618542  0.87479001  1
  V  V74  1  0.62424285  0.87460727  0.24997784  1
  V  V75  1  0.25156870  0.87513080  0.62398578  1
  V  V76  1  0.49807777  0.62436177  0.12381927  1
  V  V77  1  0.50032727  -0.00446594  -0.00209956  1
  V  V78  1  0.87529376  0.12489311  0.24934643  1
  V  V79  1  0.87563934  0.74992173  0.62554960  1
  V  V80  1  -0.00167087  -0.00045518  -0.00137486  1
  V  V81  1  0.24655608  0.25094558  0.49398034  1
  V  V82  1  0.12444549  0.87465476  0.25065682  1
  V  V83  1  0.49683971  0.87720543  0.37759469  1
  V  V84  1  0.62227897  0.12472715  0.49989728  1
  V  V85  1  0.74989782  0.00013621  0.24897014  1
  V  V86  1  0.25022134  0.12467061  0.87410645  1
  V  V87  1  0.24979838  0.24876296  -0.00021763  1
  V  V88  1  0.75063664  0.75167787  0.50186187  1
  V  V89  1  0.12892800  0.63885642  -0.00155059  1
  V  V90  1  0.50014675  0.37618182  0.37489391  1
  V  V91  1  0.00366898  0.75061651  0.75758583  1
  V  V92  1  0.74837666  0.62510397  0.87538168  1
  Zn  Zn93  1  0.62478147  0.24911301  0.87472653  1
  Zn  Zn94  1  0.36678352  0.74509286  0.11908949  1
  Zn  Zn95  1  0.87561565  0.62464514  0.25091370  1
  Zn  Zn96  1  0.24879389  0.12956982  0.37181811  1
  Zn  Zn97  1  0.87481373  0.24863520  0.62510401  1
  Zn  Zn98  1  0.75045397  0.62603656  0.37569409  1
  Zn  Zn99  1  0.86514444  0.10787054  0.73951648  1
  Zn  Zn100  1  0.62475393  0.49940692  0.12458649  1
  Zn  Zn101  1  0.87526856  0.37546963  0.00027510  1
  Zn  Zn102  1  0.62413065  0.25047263  0.37502912  1
  Zn  Zn103  1  0.24365808  0.86359795  0.12021633  1
  Zn  Zn104  1  0.37571049  0.37406863  0.50027874  1
  Zn  Zn105  1  0.49722791  0.00066107  0.50135279  1
  Zn  Zn106  1  0.62448042  0.12427438  -0.00224958  1
  Zn  Zn107  1  0.50032214  0.12390519  0.62492514  1
  Zn  Zn108  1  0.00601145  0.37066531  0.37962618  1
  Zn  Zn109  1  0.61898182  0.75395611  0.87712516  1
  Zn  Zn110  1  0.00782231  0.87293518  0.87946581  1
  Zn  Zn111  1  0.00217227  0.62509569  0.62804667  1
  Zn  Zn112  1  0.24965813  0.75316380  0.49937913  1
  Zn  Zn113  1  0.36468266  0.62031631  0.74709695  1
  Zn  Zn114  1  0.24939325  0.49866791  0.24948108  1
  Zn  Zn115  1  0.87478987  -0.00533223  0.86452565  1
  Zn  Zn116  1  0.12479536  0.75012371  0.37620220  1
  Zn  Zn117  1  0.37450179  0.00304444  0.37763323  1
  Zn  Zn118  1  0.75511152  0.88101867  0.63171431  1
  Zn  Zn119  1  0.62570873  0.50115159  0.62532804  1
  Zn  Zn120  1  0.49794421  0.49973780  -0.00147956  1
  Zn  Zn121  1  0.37241634  0.87947125  0.49841664  1
  Zn  Zn122  1  0.18740011  0.18745842  0.18690741  1
  Zn  Zn123  1  0.18691588  0.18885968  0.68472463  1
  Zn  Zn124  1  0.18685302  0.68783861  0.18684572  1
  Zn  Zn125  1  0.18909339  0.68820454  0.69032443  1
  Zn  Zn126  1  0.68556173  0.18759194  0.18643985  1
  Zn  Zn127  1  0.68549161  0.19069967  0.68560608  1
  Zn  Zn128  1  0.68643656  0.68630839  0.18774251  1
  Zn  Zn129  1  0.68741363  0.69176343  0.68791990  1
  Zn  Zn130  1  0.31444411  0.31411229  0.31188259  1
  Zn  Zn131  1  0.31261995  0.31198152  0.81191282  1
  Zn  Zn132  1  0.31196460  0.81034278  0.30897745  1
  Zn  Zn133  1  0.31641731  0.81410521  0.81066525  1
  Zn  Zn134  1  0.81387954  0.31276981  0.31394096  1
  Zn  Zn135  1  0.81252186  0.31165808  0.81417595  1
  Zn  Zn136  1  0.81271441  0.81195710  0.31366193  1
  Zn  Zn137  1  0.80994827  0.80943606  0.81249861  1
  Zn  Zn138  1  0.19005098  0.43921800  0.44087952  1
  Zn  Zn139  1  0.18587608  0.43926962  0.93937507  1
  Zn  Zn140  1  0.18778066  0.93914630  0.43658251  1
  Zn  Zn141  1  0.19122004  0.93951328  0.93698205  1
  Zn  Zn142  1  0.68632225  0.43838077  0.43787777  1
  Zn  Zn143  1  0.68680276  0.43763640  0.93687620  1
  Zn  Zn144  1  0.68734770  0.93780872  0.43916330  1
  Zn  Zn145  1  0.68655602  0.93764903  0.93752927  1
  Zn  Zn146  1  0.31270260  0.05959567  0.06320443  1
  Zn  Zn147  1  0.31326540  0.06370459  0.56054441  1
  Zn  Zn148  1  0.30946689  0.56150780  0.05689710  1
  Zn  Zn149  1  0.31417538  0.56260348  0.56111391  1
  Zn  Zn150  1  0.81165673  0.06333244  0.05994840  1
  Zn  Zn151  1  0.81236933  0.06344391  0.56146177  1
  Zn  Zn152  1  0.81370418  0.56171141  0.06247072  1
  Zn  Zn153  1  0.81233288  0.56431733  0.56394954  1
  Zn  Zn154  1  0.43658042  0.43962217  0.18739940  1
  Zn  Zn155  1  0.43697645  0.43843051  0.68938822  1
  Zn  Zn156  1  0.43667555  0.93663233  0.18573570  1
  Zn  Zn157  1  0.44407840  0.93784631  0.68540184  1
  Zn  Zn158  1  0.93875645  0.43519345  0.18736680  1
  Zn  Zn159  1  0.93971477  0.43783090  0.68735838  1
  Zn  Zn160  1  0.93767038  0.93663039  0.18591124  1
  Zn  Zn161  1  0.94058483  0.93576478  0.68789863  1
  Zn  Zn162  1  0.06276645  0.06132687  0.31208060  1
  Zn  Zn163  1  0.06009510  0.05880157  0.81244735  1
  Zn  Zn164  1  0.06302548  0.55984576  0.31182604  1
  Zn  Zn165  1  0.06567429  0.56504581  0.81499267  1
  Zn  Zn166  1  0.56179393  0.06263142  0.31219179  1
  Zn  Zn167  1  0.56526570  0.06459910  0.81243260  1
  Zn  Zn168  1  0.56371480  0.56304038  0.31294648  1
  Zn  Zn169  1  0.55901712  0.56029243  0.81300704  1
  Zn  Zn170  1  0.43467954  0.18979943  0.43568943  1
  Zn  Zn171  1  0.43836277  0.18596401  0.93596933  1
  Zn  Zn172  1  0.43814107  0.68942135  0.43823446  1
  Zn  Zn173  1  0.43378268  0.68359016  0.93421631  1
  Zn  Zn174  1  0.93594165  0.18712293  0.43860581  1
  Zn  Zn175  1  0.93333830  0.18591129  0.93612950  1
  Zn  Zn176  1  0.93830146  0.68561748  0.43839011  1
  Zn  Zn177  1  0.93819482  0.68698245  0.93920388  1
  Zn  Zn178  1  0.06239889  0.31237019  0.06486577  1
  Zn  Zn179  1  0.06319184  0.31308364  0.56428888  1
  Zn  Zn180  1  0.05936536  0.81394956  0.06666132  1
  Zn  Zn181  1  0.06184371  0.81192883  0.56734368  1
  Zn  Zn182  1  0.56385857  0.31361579  0.06226391  1
  Zn  Zn183  1  0.56330898  0.31284921  0.56348547  1
  Zn  Zn184  1  0.55823945  0.81145544  0.06228844  1
  Zn  Zn185  1  0.56442386  0.81533619  0.56578531  1
  O  O186  1  0.11924678  0.11996867  0.11814498  1
  O  O187  1  0.12036461  0.11924158  0.61629404  1
  O  O188  1  0.11991537  0.61821909  0.11774098  1
  O  O189  1  0.12893965  0.61653479  0.61810069  1
  O  O190  1  0.61832860  0.11729246  0.12292188  1
  O  O191  1  0.62511130  0.11900682  0.61613496  1
  O  O192  1  0.61599312  0.62495685  0.11629167  1
  O  O193  1  0.61500985  0.62687324  0.61976129  1
  O  O194  1  0.38217623  0.38305115  0.37606799  1
  O  O195  1  0.37849368  0.37973641  0.87855953  1
  O  O196  1  0.38626838  0.87386436  0.37431602  1
  O  O197  1  0.37096931  0.88827368  0.88401946  1
  O  O198  1  0.87686670  0.38572284  0.38187922  1
  O  O199  1  0.88264117  0.38200889  0.87624692  1
  O  O200  1  0.88078524  0.88087739  0.38049030  1
  O  O201  1  0.87062480  0.87344826  0.89037964  1
  O  O202  1  0.25070324  0.00276671  0.36060069  1
  O  O203  1  0.26022070  0.00666480  0.86818951  1
  O  O204  1  0.25690242  0.51038846  0.37603398  1
  O  O205  1  0.25985806  0.49805383  0.87647405  1
  O  O206  1  0.75558388  0.00484570  0.36841195  1
  O  O207  1  0.75053628  0.01580402  0.88252236  1
  O  O208  1  0.75890687  0.49961820  0.36673298  1
  O  O209  1  0.75648858  0.50537786  0.86986853  1
  O  O210  1  0.24370633  0.49230664  0.12540329  1
  O  O211  1  0.24178063  0.48971354  0.61863277  1
  O  O212  1  0.24336702  0.99874103  0.13542919  1
  O  O213  1  0.24600016  0.99549422  0.63085002  1
  O  O214  1  0.75152811  0.49428284  0.13540984  1
  O  O215  1  0.74926417  0.49434700  0.63274442  1
  O  O216  1  0.74444850  0.99460275  0.12964953  1
  O  O217  1  0.73666273  1.00058116  0.62165033  1
  O  O218  1  0.00853558  0.36593010  0.25057173  1
  O  O219  1  0.00628584  0.36603058  0.75529211  1
  O  O220  1  0.00412513  0.87046460  0.25530705  1
  O  O221  1  0.01110583  0.86736680  0.75202202  1
  O  O222  1  0.50496813  0.37113135  0.25381006  1
  O  O223  1  0.50512619  0.37005738  0.75502433  1
  O  O224  1  0.50501951  0.86981200  0.25577603  1
  O  O225  1  0.51250863  0.86370033  0.74326742  1
  O  O226  1  0.49474958  0.13035110  0.24339124  1
  O  O227  1  0.49403256  0.13257237  0.74959584  1
  O  O228  1  0.49617308  0.62888638  0.24207432  1
  O  O229  1  0.50142702  0.63296316  0.73851878  1
  O  O230  1  0.99613930  0.13095182  0.24475486  1
  O  O231  1  1.00233200  0.13326413  0.74440778  1
  O  O232  1  0.99945049  0.62997962  0.24340052  1
  O  O233  1  0.99580590  0.63390651  0.75101604  1
  O  O234  1  0.36910735  0.25408798  0.00413495  1
  O  O235  1  0.36558904  0.25131183  0.50762772  1
  O  O236  1  0.38505043  0.76893511  -0.00464693  1
  O  O237  1  0.37442887  0.75247918  0.51338022  1
  O  O238  1  0.86543490  0.25100675  0.00658846  1
  O  O239  1  0.86887138  0.25755228  0.50038132  1
  O  O240  1  0.86923604  0.75703021  0.00651602  1
  O  O241  1  0.87177115  0.75432513  0.50511721  1
  O  O242  1  0.13360798  0.24087002  0.50760607  1
  O  O243  1  0.12962517  0.24340423  0.99511221  1
  O  O244  1  0.12547280  0.73726318  0.50123410  1
  O  O245  1  0.11661542  0.73757882  1.00377216  1
  O  O246  1  0.63150860  0.24081960  0.49917209  1
  O  O247  1  0.63692221  0.24770195  0.99949688  1
  O  O248  1  0.63044223  0.74682422  0.49619306  1
  O  O249  1  0.62816586  0.74154994  0.99871739  1
  O  O250  1  0.49420456  0.24530415  0.12914580  1
  O  O251  1  0.49216370  0.24985092  0.63151152  1
  O  O252  1  0.49605875  0.73875251  0.13004213  1
  O  O253  1  0.49308653  0.74339524  0.63071993  1
  O  O254  1  0.99460111  0.24389614  0.13314388  1
  O  O255  1  1.00085327  0.24486496  0.63518451  1
  O  O256  1  0.99337486  0.74385848  0.13196056  1
  O  O257  1  0.99356520  0.74771668  0.63689284  1
  O  O258  1  -0.00576366  0.25070793  0.36039684  1
  O  O259  1  0.00477940  0.25301839  0.86897742  1
  O  O260  1  0.00015141  0.75605494  0.36942287  1
  O  O261  1  -0.00605936  0.75387835  0.86203895  1
  O  O262  1  0.50053953  0.25787285  0.36673571  1
  O  O263  1  0.50007901  0.25711612  0.86836631  1
  O  O264  1  0.50593754  0.75746888  0.36956362  1
  O  O265  1  0.49973883  0.74035637  0.85861970  1
  O  O266  1  0.24123338  0.13395758  0.49990057  1
  O  O267  1  0.24482074  0.12874138  0.99473656  1
  O  O268  1  0.24222002  0.62564330  0.49239767  1
  O  O269  1  0.24064501  0.62209511  0.98753489  1
  O  O270  1  0.74229029  0.13057149  0.49383600  1
  O  O271  1  0.74908897  0.13429354  0.99202696  1
  O  O272  1  0.74333978  0.63268565  0.49950212  1
  O  O273  1  0.74135398  0.62919342  0.99720481  1
  O  O274  1  0.25407380  0.36703701  0.00518005  1
  O  O275  1  0.24959683  0.36740969  0.51096538  1
  O  O276  1  0.26610865  0.88338831  0.00198769  1
  O  O277  1  0.25026361  0.87263903  0.50777622  1
  O  O278  1  0.75109833  0.36621687  0.00527867  1
  O  O279  1  0.75448635  0.37130060  0.50538092  1
  O  O280  1  0.75473799  0.86993198  0.00625227  1
  O  O281  1  0.75834736  0.86933469  0.50098615  1
  O  O282  1  0.12559172  0.48992505  0.24187081  1
  O  O283  1  0.11837712  0.49400174  0.73781109  1
  O  O284  1  0.13134559  0.99578203  0.24469404  1
  O  O285  1  0.13120988  0.99293044  0.74409586  1
  O  O286  1  0.63605942  0.49492541  0.25011824  1
  O  O287  1  0.63224598  0.49425290  0.74915643  1
  O  O288  1  0.63067350  0.99449935  0.24397931  1
  O  O289  1  0.61762478  0.98624967  0.74363138  1
  O  O290  1  0.36588443  0.00539284  0.24772271  1
  O  O291  1  0.37294361  0.00323515  0.75616575  1
  O  O292  1  0.37271222  0.50736533  0.25740829  1
  O  O293  1  0.37996722  0.50434546  0.76267271  1
  O  O294  1  0.86999332  0.00490468  0.25400420  1
  O  O295  1  0.87415084  -0.00379737  0.75185948  1
  O  O296  1  0.86774689  0.49793488  0.25851847  1
  O  O297  1  0.87117835  0.50628901  0.75562922  1
  O  O298  1  0.12570786  0.38268733  0.36107455  1
  O  O299  1  0.12003180  0.36865190  0.87045759  1
  O  O300  1  0.11755120  0.87379506  0.36936427  1
  O  O301  1  0.12908655  0.88014783  0.86053398  1
  O  O302  1  0.61830167  0.37387532  0.36815467  1
  O  O303  1  0.61792854  0.37408571  0.86861220  1
  O  O304  1  0.61791552  0.87066127  0.36896915  1
  O  O305  1  0.62536100  0.87518673  0.86211246  1
  O  O306  1  0.38014149  0.13069410  0.12912283  1
  O  O307  1  0.37636180  0.13118318  0.63232838  1
  O  O308  1  0.38332913  0.62293303  0.12777118  1
  O  O309  1  0.38226817  0.63285292  0.62658519  1
  O  O310  1  0.88022514  0.12912835  0.13063080  1
  O  O311  1  0.88354702  0.12837821  0.62449775  1
  O  O312  1  0.88221203  0.63102495  0.12555134  1
  O  O313  1  0.87839454  0.63111932  0.63301473  1
  O  O314  1  0.25576773  0.25423619  0.11847512  1
  O  O315  1  0.25455315  0.25822643  0.61688699  1
  O  O316  1  0.25521625  0.75187280  0.12868584  1
  O  O317  1  0.26050642  0.75509136  0.62637723  1
  O  O318  1  0.75505494  0.25331577  0.11833576  1
  O  O319  1  0.75309251  0.25752410  0.61829914  1
  O  O320  1  0.75386261  0.75508304  0.12042430  1
  O  O321  1  0.75855483  0.75278569  0.61896823  1
  O  O322  1  0.25514595  0.25164770  0.39001102  1
  O  O323  1  0.24409642  0.24408344  0.88005793  1
  O  O324  1  0.24817609  0.73715540  0.37737414  1
  O  O325  1  0.25549380  0.74110825  0.87691727  1
  O  O326  1  0.74856260  0.24352801  0.38050549  1
  O  O327  1  0.75044114  0.24251378  0.88489772  1
  O  O328  1  0.74393665  0.74923101  0.38201121  1
  O  O329  1  0.74592033  0.74155653  0.88330862  1
  O  O330  1  0.00442736  0.12073796  0.00488254  1
  O  O331  1  0.00708058  0.12139753  0.50432479  1
  O  O332  1  0.00774826  0.61902929  0.00435142  1
  O  O333  1  0.01133936  0.61876946  0.50247169  1
  O  O334  1  0.49988303  0.11468174  0.00585572  1
  O  O335  1  0.51279607  0.12695426  0.49891056  1
  O  O336  1  0.50655617  0.62612483  0.00708691  1
  O  O337  1  0.50456599  0.62214977  0.50922022  1
  O  O338  1  0.49967054  0.38173021  0.49374473  1
  O  O339  1  0.49294707  0.37493571  0.99389541  1
  O  O340  1  0.50076726  0.87466573  0.48757958  1
  O  O341  1  0.49069453  0.88896576  1.00393693  1
  O  O342  1  0.99551213  0.38039428  0.49895240  1
  O  O343  1  0.99988308  0.38027388  0.99360152  1
  O  O344  1  0.99613321  0.88062939  0.49554624  1
  O  O345  1  0.98996873  0.87913069  1.00029315  1
  O  O346  1  0.49550811  0.49645620  0.38013350  1
  O  O347  1  0.48909162  0.49371505  0.87788651  1
  O  O348  1  0.49924951  0.98795935  0.37404990  1
  O  O349  1  0.48989634  1.00839491  0.88404428  1
  O  O350  1  0.99152442  0.49727090  0.38122021  1
  O  O351  1  0.99647096  0.49477673  0.87938833  1
  O  O352  1  0.99400561  0.99456726  0.37988042  1
  O  O353  1  0.99708273  0.99486502  0.88457060  1
  O  O354  1  0.00512477  0.00639495  0.11983567  1
  O  O355  1  0.00727401  0.00505484  0.61771445  1
  O  O356  1  0.00434437  0.50438830  0.11962342  1
  O  O357  1  0.01179643  0.50167532  0.61934946  1
  O  O358  1  0.50432840  0.00527848  0.11762185  1
  O  O359  1  0.51418244  0.00374228  0.62099358  1
  O  O360  1  0.50215314  0.51248093  0.12293935  1
  O  O361  1  0.49978978  0.51074494  0.62055656  1
  O  O362  1  0.24200732  0.37418212  0.24335719  1
  O  O363  1  0.24202388  0.36560286  0.73671668  1
  O  O364  1  0.24351123  0.88426113  0.24936045  1
  O  O365  1  0.24491418  0.88033271  0.74433058  1
  O  O366  1  0.74590846  0.38179506  0.24593768  1
  O  O367  1  0.74607107  0.38004524  0.74626120  1
  O  O368  1  0.74471197  0.88039026  0.24472004  1
  O  O369  1  0.73300769  0.86784095  0.74845383  1
  O  O370  1  0.25417005  0.11731527  0.24952769  1
  O  O371  1  0.25510397  0.12014839  0.75412206  1
  O  O372  1  0.25377922  0.62159897  0.26107389  1
  O  O373  1  0.24757817  0.62798705  0.76827273  1
  O  O374  1  0.75542374  0.11975781  0.25364278  1
  O  O375  1  0.74949682  0.13360341  0.76480165  1
  O  O376  1  0.75201166  0.61332885  0.25168739  1
  O  O377  1  0.75501266  0.62118621  0.75556777  1
  O  O378  1  0.37188190  0.12390168  0.36424574  1
  O  O379  1  0.36903044  0.11653742  0.86938374  1
  O  O380  1  0.36871687  0.62130547  0.37109964  1
  O  O381  1  0.35906847  0.61717775  0.87716345  1
  O  O382  1  0.86981024  0.11825904  0.36915440  1
  O  O383  1  0.86124108  0.12244554  0.87297940  1
  O  O384  1  0.87323208  0.61128226  0.37428339  1
  O  O385  1  0.86880715  0.61987550  0.87060532  1
  O  O386  1  0.13034568  0.37897266  0.13286268  1
  O  O387  1  0.13238920  0.38275041  0.62964944  1
  O  O388  1  0.12395662  0.88314219  0.13197460  1
  O  O389  1  0.13134683  0.88120699  0.63337878  1
  O  O390  1  0.63196740  0.37815748  0.13202839  1
  O  O391  1  0.63234983  0.37803490  0.63211325  1
  O  O392  1  0.62871510  0.87929212  0.13023808  1
  O  O393  1  0.62902625  0.88353292  0.63299548  1
  O  O394  1  0.11534104  0.25859243  0.24309064  1
  O  O395  1  0.11598197  0.25417679  0.75564676  1
  O  O396  1  0.11656932  0.75655658  0.25263711  1
  O  O397  1  0.11587615  0.76021079  0.74300046  1
  O  O398  1  0.61786006  0.25633995  0.25067038  1
  O  O399  1  0.61752438  0.25831452  0.75116204  1
  O  O400  1  0.61970032  0.75535286  0.25511148  1
  O  O401  1  0.61742869  0.76080424  0.75039283  1
  O  O402  1  0.37994956  0.24533996  0.24236134  1
  O  O403  1  0.37935865  0.24426147  0.74492650  1
  O  O404  1  0.38339075  0.74101120  0.24886133  1
  O  O405  1  0.38330598  0.74882806  0.73956991  1
  O  O406  1  0.88248466  0.24427838  0.24463131  1
  O  O407  1  0.88885220  0.24875394  0.75016622  1
  O  O408  1  0.88033138  0.74858240  0.24406506  1
  O  O409  1  0.88228487  0.74631349  0.74545386  1
  O  O410  1  0.38313826  0.49865163  0.49353610  1
  O  O411  1  0.37587545  0.49127146  0.99025397  1
  O  O412  1  0.37917518  0.99782226  0.49561720  1
  O  O413  1  0.38189869  0.99427124  0.99274784  1
  O  O414  1  0.87989227  0.49590975  0.49396367  1
  O  O415  1  0.88227591  0.49924866  0.99274185  1
  O  O416  1  0.88115930  0.99526374  0.49395875  1
  O  O417  1  0.87958797  0.98932444  1.00193551  1
  O  O418  1  0.11975758  0.00463931  0.00454248  1
  O  O419  1  0.12040121  0.00867371  0.50516786  1
  O  O420  1  0.11814897  0.50556263  0.00635979  1
  O  O421  1  0.12164973  0.50748241  0.50928008  1
  O  O422  1  0.61549289  -0.00081961  0.00577409  1
  O  O423  1  0.62447709  0.01011507  0.50613716  1
  O  O424  1  0.62358572  0.51229568  0.00260201  1
  O  O425  1  0.61847899  0.50856767  0.50226575  1
  O  O426  1  0.36999452  0.36957280  0.11972792  1
  O  O427  1  0.36582984  0.37053031  0.62505928  1
  O  O428  1  0.37455760  0.87472868  0.11000188  1
  O  O429  1  0.37078934  0.86708840  0.62561439  1
  O  O430  1  0.86845530  0.36767114  0.12359848  1
  O  O431  1  0.86920401  0.37461747  0.61889095  1
  O  O432  1  0.86885347  0.86952031  0.11661816  1
  O  O433  1  0.87534917  0.86829943  0.61750860  1
  O  O434  1  0.12595404  0.12074378  0.38908667  1
  O  O435  1  0.13035508  0.12872785  0.87993943  1
  O  O436  1  0.13305232  0.62233444  0.38449262  1
  O  O437  1  0.13819513  0.62139208  0.88355941  1
  O  O438  1  0.63123174  0.12536534  0.38282949  1
  O  O439  1  0.63764790  0.12812645  0.87776866  1
  O  O440  1  0.62509656  0.63346026  0.38226375  1
  O  O441  1  0.62897962  0.62515965  0.88495586  1
