# generated using pymatgen
data_V93Zn93O256
_symmetry_space_group_name_H-M   'P 1'
_cell_length_a   17.05140846
_cell_length_b   17.05123765
_cell_length_c   17.04862207
_cell_angle_alpha   90.04158687
_cell_angle_beta   90.04758726
_cell_angle_gamma   89.94456731
_symmetry_Int_Tables_number   1
_chemical_formula_structural   V93Zn93O256
_chemical_formula_sum   'V93 Zn93 O256'
_cell_volume   4956.84092191
_cell_formula_units_Z   1
loop_
 _symmetry_equiv_pos_site_id
 _symmetry_equiv_pos_as_xyz
  1  'x, y, z'
loop_
 _atom_site_type_symbol
 _atom_site_label
 _atom_site_symmetry_multiplicity
 _atom_site_fract_x
 _atom_site_fract_y
 _atom_site_fract_z
 _atom_site_occupancy
  V  V0  1  0.74932267  0.87484312  0.62592892  1
  V  V1  1  0.38121313  0.24475193  0.12553725  1
  V  V2  1  0.49923953  0.49997230  -0.00022631  1
  V  V3  1  0.87495843  -0.00097332  0.87537787  1
  V  V4  1  0.12399461  0.37420870  0.25060251  1
  V  V5  1  0.87419755  0.37787602  -0.00384223  1
  V  V6  1  0.25074862  -0.00327285  0.24455404  1
  V  V7  1  0.87475426  0.74930921  0.62558711  1
  V  V8  1  0.12496193  0.49868565  0.62503702  1
  V  V9  1  0.12557444  0.00010794  0.62543470  1
  V  V10  1  0.12493535  0.37524419  0.74894841  1
  V  V11  1  0.62697783  0.87587021  0.24891634  1
  V  V12  1  0.74851374  0.50579938  0.25446972  1
  V  V13  1  0.75091548  0.25027536  0.49978273  1
  V  V14  1  0.25198818  0.12721937  0.37551768  1
  V  V15  1  0.49949933  0.62342048  0.62433890  1
  V  V16  1  0.49977095  0.25062778  0.74901811  1
  V  V17  1  0.87505511  0.25016534  0.62353053  1
  V  V18  1  0.62550997  0.74559280  0.37199053  1
  V  V19  1  0.62600721  0.87509557  0.74902834  1
  V  V20  1  0.49208909  0.63495617  0.12618755  1
  V  V21  1  0.37293216  0.24990820  0.61934211  1
  V  V22  1  0.12622529  0.87220619  0.24602223  1
  V  V23  1  0.12040113  0.74878261  0.37479775  1
  V  V24  1  0.37549871  0.12488570  0.74837848  1
  V  V25  1  0.62280669  0.50199861  0.12504639  1
  V  V26  1  0.12481650  0.87479013  0.74944022  1
  V  V27  1  0.00024873  0.87181264  0.37111759  1
  V  V28  1  0.12457672  0.62503736  0.50036850  1
  V  V29  1  0.00130576  0.12500573  0.62488291  1
  V  V30  1  0.62572034  0.12278154  0.49939098  1
  V  V31  1  0.87350236  0.62827350  0.25259071  1
  V  V32  1  0.74985764  0.25148513  -0.00090301  1
  V  V33  1  0.87534114  0.25168724  0.12547223  1
  V  V34  1  0.62659663  0.62422235  0.49601992  1
  V  V35  1  0.37517829  0.62424291  0.75050169  1
  V  V36  1  0.87547616  0.12567060  0.25126361  1
  V  V37  1  0.74940776  0.75084431  0.00012062  1
  V  V38  1  0.24988895  -0.00083787  0.74923843  1
  V  V39  1  0.49956994  0.37382305  0.37139060  1
  V  V40  1  0.37412713  0.37520307  -0.00198617  1
  V  V41  1  0.75238118  0.50004645  0.75543021  1
  V  V42  1  -0.00232007  0.62668368  0.12822119  1
  V  V43  1  0.75014880  0.37508542  0.62420906  1
  V  V44  1  0.62540841  0.25113149  0.37427368  1
  V  V45  1  0.24930703  0.37501090  0.12350755  1
  V  V46  1  0.24924414  0.36969745  0.61920531  1
  V  V47  1  0.87546468  0.87426159  0.49952933  1
  V  V48  1  0.50062981  0.12496059  0.62370356  1
  V  V49  1  0.49983076  0.49932754  0.49804306  1
  V  V50  1  0.12916910  0.25031971  0.37705091  1
  V  V51  1  0.24967050  0.25046838  0.00009049  1
  V  V52  1  0.37760719  0.00089570  0.37771446  1
  V  V53  1  0.00124375  0.12563307  0.12522485  1
  V  V54  1  0.74973608  0.37744901  0.12418841  1
  V  V55  1  0.49872382  0.37546845  0.87344133  1
  V  V56  1  0.87502843  0.12507679  0.74980687  1
  V  V57  1  0.87543402  0.75197273  0.12799086  1
  V  V58  1  0.37424969  0.50331409  0.37133363  1
  V  V59  1  0.87381852  0.62118565  0.75801343  1
  V  V60  1  0.87463380  0.00095515  0.37429953  1
  V  V61  1  0.62655260  0.74849778  0.87545371  1
  V  V62  1  0.12231456  0.49951300  0.12537799  1
  V  V63  1  0.12497119  0.12515988  0.00094546  1
  V  V64  1  0.37571254  0.00017285  0.87436009  1
  V  V65  1  0.50168904  0.00452140  0.00547162  1
  V  V66  1  0.25000896  0.12577667  0.87413008  1
  V  V67  1  -0.00013331  0.25080227  0.75010191  1
  V  V68  1  -0.00601409  0.50058443  -0.00407897  1
  V  V69  1  -0.00037315  -0.00033700  0.00094392  1
  V  V70  1  0.25016211  0.50100910  0.25013833  1
  V  V71  1  0.62402273  0.25008383  0.87314636  1
  V  V72  1  0.62146249  0.12542355  0.00602809  1
  V  V73  1  0.75043494  0.12604073  0.87447270  1
  V  V74  1  0.12879296  0.12763520  0.50017998  1
  V  V75  1  -0.00337764  0.37783602  0.87510340  1
  V  V76  1  -0.00017775  0.74933193  0.75076557  1
  V  V77  1  0.12482649  0.25093797  0.87505072  1
  V  V78  1  -0.00182899  0.49914340  0.49980099  1
  V  V79  1  0.37255958  0.37122224  0.49781893  1
  V  V80  1  0.00120941  0.25044600  0.25012426  1
  V  V81  1  0.50093949  0.74913164  0.75011021  1
  V  V82  1  0.25040126  0.62441337  0.87566140  1
  V  V83  1  0.87270594  0.50278091  0.37618470  1
  V  V84  1  0.62368963  0.37557092  0.24996641  1
  V  V85  1  0.37490240  0.74907550  0.62419746  1
  V  V86  1  0.36946423  0.87108367  0.00668657  1
  V  V87  1  0.74989568  0.74387496  0.49543622  1
  V  V88  1  0.37527518  0.87465053  0.50291655  1
  V  V89  1  0.00015938  0.62414964  0.62635048  1
  V  V90  1  0.62521702  0.49912254  0.62352144  1
  V  V91  1  0.12545103  0.74988869  0.87742524  1
  V  V92  1  0.50035492  0.87490201  0.87502005  1
  Zn  Zn93  1  0.37431405  0.49968832  0.87368937  1
  Zn  Zn94  1  0.24863709  0.74667780  0.50367180  1
  Zn  Zn95  1  0.00116311  -0.00088708  0.50116150  1
  Zn  Zn96  1  0.24902524  0.87286990  0.62512019  1
  Zn  Zn97  1  0.75036861  0.62038973  0.87912246  1
  Zn  Zn98  1  0.12887079  -0.00419605  0.12351713  1
  Zn  Zn99  1  0.50137377  0.87457116  0.37502105  1
  Zn  Zn100  1  0.12519038  0.62557424  0.00191511  1
  Zn  Zn101  1  0.74892005  -0.00006201  0.74899061  1
  Zn  Zn102  1  0.87488141  0.87518292  0.00204663  1
  Zn  Zn103  1  0.38274029  0.12184338  0.24340276  1
  Zn  Zn104  1  0.31151787  0.81189867  0.16997085  1
  Zn  Zn105  1  0.24844520  0.62559696  0.37657750  1
  Zn  Zn106  1  0.75049937  0.12573340  0.37378069  1
  Zn  Zn107  1  0.24941238  0.74964566  0.00854171  1
  Zn  Zn108  1  0.36568692  0.63972747  0.24404763  1
  Zn  Zn109  1  0.75003812  0.87891098  0.12522848  1
  Zn  Zn110  1  0.50274097  -0.00198230  0.50195701  1
  Zn  Zn111  1  0.50472285  0.23961630  0.24269926  1
  Zn  Zn112  1  0.75052149  0.00182858  0.24641688  1
  Zn  Zn113  1  0.62430281  0.62550137  0.00033557  1
  Zn  Zn114  1  -0.00032570  0.37462520  0.37591291  1
  Zn  Zn115  1  0.62603921  0.00407417  0.12971135  1
  Zn  Zn116  1  0.25168530  0.49805618  0.75012450  1
  Zn  Zn117  1  0.62583005  -0.00033635  0.62625998  1
  Zn  Zn118  1  0.87592449  0.37401095  0.49797100  1
  Zn  Zn119  1  0.48917432  0.75633075  0.24989187  1
  Zn  Zn120  1  -0.00081057  0.87313191  0.87662067  1
  Zn  Zn121  1  0.62430722  0.37579000  0.74860074  1
  Zn  Zn122  1  0.19093631  0.18539656  0.18821424  1
  Zn  Zn123  1  0.18858964  0.18865488  0.68754074  1
  Zn  Zn124  1  0.18056397  0.68576944  0.19075590  1
  Zn  Zn125  1  0.18891047  0.68729218  0.68831041  1
  Zn  Zn126  1  0.69056704  0.18887193  0.18901316  1
  Zn  Zn127  1  0.68783760  0.18746327  0.68676307  1
  Zn  Zn128  1  0.68567888  0.68800374  0.18513688  1
  Zn  Zn129  1  0.68793555  0.68621514  0.68576415  1
  Zn  Zn130  1  0.31384924  0.31273898  0.30882436  1
  Zn  Zn131  1  0.31261154  0.31227764  0.80916439  1
  Zn  Zn132  1  0.30633804  0.81430107  0.32970183  1
  Zn  Zn133  1  0.31251047  0.81238696  0.81430940  1
  Zn  Zn134  1  0.81157871  0.31552815  0.31304066  1
  Zn  Zn135  1  0.81256519  0.31429719  0.81162241  1
  Zn  Zn136  1  0.80970288  0.81318883  0.31262274  1
  Zn  Zn137  1  0.81228118  0.81197725  0.81358120  1
  Zn  Zn138  1  0.18724276  0.43798643  0.43831610  1
  Zn  Zn139  1  0.18406427  0.43988470  0.93778295  1
  Zn  Zn140  1  0.18939500  0.93884358  0.43823362  1
  Zn  Zn141  1  0.18717307  0.93801105  0.93530290  1
  Zn  Zn142  1  0.68853792  0.43620574  0.43700089  1
  Zn  Zn143  1  0.68332440  0.43686077  0.93720515  1
  Zn  Zn144  1  0.68963904  0.93444606  0.43594524  1
  Zn  Zn145  1  0.68810304  0.93690701  0.93798395  1
  Zn  Zn146  1  0.31425904  0.06158234  0.06044560  1
  Zn  Zn147  1  0.31116125  0.06230720  0.56230650  1
  Zn  Zn148  1  0.31196767  0.56275229  0.05997418  1
  Zn  Zn149  1  0.31052447  0.55918873  0.56178235  1
  Zn  Zn150  1  0.81019815  0.06397816  0.06389401  1
  Zn  Zn151  1  0.81194403  0.06077089  0.56205154  1
  Zn  Zn152  1  0.81138911  0.56405229  0.06394589  1
  Zn  Zn153  1  0.81284693  0.56264848  0.56671175  1
  Zn  Zn154  1  0.43744878  0.43610861  0.18449787  1
  Zn  Zn155  1  0.43565993  0.43766212  0.68737533  1
  Zn  Zn156  1  0.44426529  0.94329640  0.19034650  1
  Zn  Zn157  1  0.43997367  0.93814791  0.68582698  1
  Zn  Zn158  1  0.93656665  0.43807853  0.18727008  1
  Zn  Zn159  1  0.93588611  0.43729544  0.68713221  1
  Zn  Zn160  1  0.93992889  0.93787572  0.18912945  1
  Zn  Zn161  1  0.93882756  0.93679434  0.68829858  1
  Zn  Zn162  1  0.06241303  0.05957885  0.31267050  1
  Zn  Zn163  1  0.06217003  0.06278049  0.81285985  1
  Zn  Zn164  1  0.05859901  0.56269189  0.31283230  1
  Zn  Zn165  1  0.06361309  0.56223805  0.81217418  1
  Zn  Zn166  1  0.56208083  0.06356264  0.31198304  1
  Zn  Zn167  1  0.56327808  0.06174727  0.81432087  1
  Zn  Zn168  1  0.55898244  0.56595793  0.30929214  1
  Zn  Zn169  1  0.56511812  0.56195782  0.81298483  1
  Zn  Zn170  1  0.44063486  0.18866560  0.43572367  1
  Zn  Zn171  1  0.43737044  0.18876954  0.93727735  1
  Zn  Zn172  1  0.44019062  0.68859963  0.43633545  1
  Zn  Zn173  1  0.43792995  0.68793130  0.93865198  1
  Zn  Zn174  1  0.94119003  0.18689070  0.43821373  1
  Zn  Zn175  1  0.93725321  0.18891483  0.93754600  1
  Zn  Zn176  1  0.93845843  0.68629290  0.43752430  1
  Zn  Zn177  1  0.93734587  0.68737486  0.94027792  1
  Zn  Zn178  1  0.06198780  0.31373855  0.06230654  1
  Zn  Zn179  1  0.06140602  0.31261743  0.56028855  1
  Zn  Zn180  1  0.06070233  0.81140848  0.06343166  1
  Zn  Zn181  1  0.06129467  0.81287097  0.56188654  1
  Zn  Zn182  1  0.56261480  0.31436841  0.06066949  1
  Zn  Zn183  1  0.56153250  0.31250441  0.56084086  1
  Zn  Zn184  1  0.56220832  0.81650068  0.06148062  1
  Zn  Zn185  1  0.56226826  0.81181299  0.56196480  1
  O  O186  1  0.11915698  0.12346198  0.11870991  1
  O  O187  1  0.12237802  0.12232397  0.61790343  1
  O  O188  1  0.11133294  0.61843313  0.12601450  1
  O  O189  1  0.11904385  0.61915171  0.62177571  1
  O  O190  1  0.63095406  0.12770877  0.10887879  1
  O  O191  1  0.62023346  0.12564136  0.61484646  1
  O  O192  1  0.61193331  0.61933518  0.12463336  1
  O  O193  1  0.61815314  0.61944888  0.61725869  1
  O  O194  1  0.37836225  0.38327139  0.37780029  1
  O  O195  1  0.38016234  0.37460959  0.88027667  1
  O  O196  1  0.37591171  0.88524396  0.38619498  1
  O  O197  1  0.38110624  0.88166631  0.88222251  1
  O  O198  1  0.87750666  0.38919350  0.37518171  1
  O  O199  1  0.88392788  0.36844087  0.88328942  1
  O  O200  1  0.88254232  0.87971583  0.37770504  1
  O  O201  1  0.87766648  0.88694048  0.87698307  1
  O  O202  1  0.25796364  0.00672878  0.36735892  1
  O  O203  1  0.25495561  0.00719855  0.86876785  1
  O  O204  1  0.25747750  0.49876779  0.36676127  1
  O  O205  1  0.24906169  0.51148607  0.87277185  1
  O  O206  1  0.76579749  -0.00018485  0.37414933  1
  O  O207  1  0.76142158  0.00602562  0.87619695  1
  O  O208  1  0.75815544  0.49634278  0.36395302  1
  O  O209  1  0.74263888  0.50041619  0.85987773  1
  O  O210  1  0.24380351  0.49567851  0.13119346  1
  O  O211  1  0.24315229  0.48860988  0.62733099  1
  O  O212  1  0.24921167  1.00643021  0.14013374  1
  O  O213  1  0.24325462  0.99926666  0.63280219  1
  O  O214  1  0.74440493  0.49602100  0.13310120  1
  O  O215  1  0.74436396  0.49488304  0.63189246  1
  O  O216  1  0.74586841  0.99651887  0.12730651  1
  O  O217  1  0.74882915  0.99008904  0.62753067  1
  O  O218  1  0.00685275  0.36903726  0.25038806  1
  O  O219  1  0.00463569  0.36998601  0.75434183  1
  O  O220  1  0.00996269  0.88160481  0.26440129  1
  O  O221  1  0.00649844  0.86722059  0.75294694  1
  O  O222  1  0.50775602  0.37555113  0.25502668  1
  O  O223  1  0.50039814  0.36822710  0.75453181  1
  O  O224  1  0.51171677  0.87331439  0.25277102  1
  O  O225  1  0.50500503  0.86838953  0.75497616  1
  O  O226  1  0.49531935  0.12713357  0.25166300  1
  O  O227  1  0.49428425  0.13027212  0.74506054  1
  O  O228  1  0.49404200  0.62858573  0.23612997  1
  O  O229  1  0.49564722  0.62977753  0.74416622  1
  O  O230  1  0.99636254  0.13042078  0.24488711  1
  O  O231  1  0.99564433  0.13171963  0.74504099  1
  O  O232  1  0.98709105  0.61667377  0.23728568  1
  O  O233  1  0.99261853  0.62824284  0.74567392  1
  O  O234  1  0.36836149  0.25514036  0.00496290  1
  O  O235  1  0.38131176  0.25903833  0.50625871  1
  O  O236  1  0.37562104  0.76873488  -0.00431039  1
  O  O237  1  0.37539752  0.75787895  0.50450938  1
  O  O238  1  0.86941437  0.25582780  0.00602850  1
  O  O239  1  0.87007132  0.24934421  0.50565588  1
  O  O240  1  0.86730202  0.75058771  0.00898074  1
  O  O241  1  0.86791788  0.75259970  0.50409878  1
  O  O242  1  0.12051618  0.23960463  0.48902464  1
  O  O243  1  0.12990667  0.24576104  0.99460582  1
  O  O244  1  0.12352629  0.74333384  0.49328983  1
  O  O245  1  0.12364955  0.74923615  0.98797801  1
  O  O246  1  0.63047669  0.24241558  0.49492912  1
  O  O247  1  0.62965995  0.24442574  0.99374232  1
  O  O248  1  0.63164342  0.74531355  0.49266937  1
  O  O249  1  0.63394820  0.75103749  0.99488459  1
  O  O250  1  0.48602573  0.25856374  0.12361198  1
  O  O251  1  0.49369727  0.24492020  0.62956358  1
  O  O252  1  0.50223376  0.73711488  0.12400759  1
  O  O253  1  0.49527870  0.74241149  0.63023326  1
  O  O254  1  0.99497276  0.24572915  0.12982084  1
  O  O255  1  0.99578139  0.24478198  0.63080702  1
  O  O256  1  0.98807768  0.73711149  0.11757636  1
  O  O257  1  0.99462820  0.74386728  0.63098818  1
  O  O258  1  0.01183044  0.25029728  0.36838346  1
  O  O259  1  0.00595525  0.25545379  0.86969497  1
  O  O260  1  0.00792824  0.76055201  0.38045896  1
  O  O261  1  0.00904068  0.74904081  0.87025225  1
  O  O262  1  0.50795691  0.25867095  0.37278371  1
  O  O263  1  0.50400610  0.25517648  0.86854129  1
  O  O264  1  0.51199891  0.75251742  0.37195419  1
  O  O265  1  0.50608449  0.75494094  0.86970592  1
  O  O266  1  0.23903136  0.11965549  0.48848837  1
  O  O267  1  0.24435916  0.12970975  0.99299823  1
  O  O268  1  0.23961086  0.62326402  0.49724266  1
  O  O269  1  0.24681853  0.62657683  0.98840171  1
  O  O270  1  0.74144552  0.13154453  0.49966606  1
  O  O271  1  0.74322039  0.13253536  0.99319009  1
  O  O272  1  0.74382133  0.63697500  0.50833614  1
  O  O273  1  0.74832646  0.63577540  0.99904850  1
  O  O274  1  0.25285801  0.37007124  0.00364269  1
  O  O275  1  0.25547354  0.37961963  0.51131744  1
  O  O276  1  0.26648319  0.87917981  -0.00435213  1
  O  O277  1  0.26293964  0.87367393  0.50225923  1
  O  O278  1  0.75398549  0.37136272  0.00423238  1
  O  O279  1  0.75253414  0.36852125  0.50648550  1
  O  O280  1  0.75326475  0.86363056  0.00263597  1
  O  O281  1  0.75577041  0.86421481  0.50585484  1
  O  O282  1  0.13092973  0.49482977  0.24645549  1
  O  O283  1  0.12447584  0.49226062  0.74219710  1
  O  O284  1  0.13472778  0.99022152  0.25295348  1
  O  O285  1  0.12969442  0.99569349  0.74609562  1
  O  O286  1  0.63222268  0.49708327  0.24697374  1
  O  O287  1  0.63378928  0.49974663  0.74080061  1
  O  O288  1  0.62749517  0.98961973  0.25195819  1
  O  O289  1  0.62801792  0.99108317  0.74987604  1
  O  O290  1  0.36759468  -0.00152475  0.26026540  1
  O  O291  1  0.37073015  0.00548945  0.75460565  1
  O  O292  1  0.36476347  0.49655450  0.25702272  1
  O  O293  1  0.37300443  0.50864281  0.75299817  1
  O  O294  1  0.87726060  0.00651918  0.25938301  1
  O  O295  1  0.87642433  0.00627359  0.76062152  1
  O  O296  1  0.86712359  0.50678599  0.25534613  1
  O  O297  1  0.86481612  0.51007627  0.74256654  1
  O  O298  1  0.12648759  0.36507050  0.37017400  1
  O  O299  1  0.11861535  0.36936361  0.86936235  1
  O  O300  1  0.11878374  0.86926156  0.37160142  1
  O  O301  1  0.12408607  0.86547752  0.86909534  1
  O  O302  1  0.61961814  0.37138890  0.36947513  1
  O  O303  1  0.61680214  0.36698273  0.87244885  1
  O  O304  1  0.62436199  0.86528132  0.36850979  1
  O  O305  1  0.62003358  0.86832071  0.86978979  1
  O  O306  1  0.36753689  0.13976246  0.12368384  1
  O  O307  1  0.37914304  0.13002894  0.62853910  1
  O  O308  1  0.38804077  0.62064431  0.12524234  1
  O  O309  1  0.38061022  0.62822716  0.62881949  1
  O  O310  1  0.88119935  0.13294305  0.13013621  1
  O  O311  1  0.88110805  0.12964985  0.62972146  1
  O  O312  1  0.87984345  0.63131407  0.13297824  1
  O  O313  1  0.88121828  0.63083761  0.63419301  1
  O  O314  1  0.25494841  0.25651502  0.11876453  1
  O  O315  1  0.25613409  0.26132766  0.62889764  1
  O  O316  1  0.24156783  0.74480432  0.11987023  1
  O  O317  1  0.25880655  0.75178573  0.62339512  1
  O  O318  1  0.75585640  0.25796307  0.11874918  1
  O  O319  1  0.75588301  0.25498929  0.62003154  1
  O  O320  1  0.75885508  0.74970220  0.11644185  1
  O  O321  1  0.75519481  0.75539870  0.61659085  1
  O  O322  1  0.23945803  0.23991318  0.36656847  1
  O  O323  1  0.24454288  0.24530768  0.87962808  1
  O  O324  1  0.23462995  0.74535092  0.38384975  1
  O  O325  1  0.24088321  0.74219336  0.87699286  1
  O  O326  1  0.74393188  0.25075167  0.38173045  1
  O  O327  1  0.74486846  0.24629259  0.87993518  1
  O  O328  1  0.74177126  0.75392487  0.38761949  1
  O  O329  1  0.74556294  0.74871915  0.88468616  1
  O  O330  1  0.00504131  0.11870612  0.00445658  1
  O  O331  1  0.01198279  0.12286288  0.50636856  1
  O  O332  1  -0.00159115  0.61583031  0.00949979  1
  O  O333  1  0.00427962  0.61905464  0.50753619  1
  O  O334  1  0.51042804  0.11652955  -0.01000827  1
  O  O335  1  0.51122323  0.12534641  0.50495735  1
  O  O336  1  0.49962884  0.62024843  0.01112410  1
  O  O337  1  0.50523891  0.61806160  0.50475658  1
  O  O338  1  0.49412177  0.38171847  0.49236204  1
  O  O339  1  0.49406372  0.38038859  0.99294193  1
  O  O340  1  0.48850022  0.87710635  0.49905989  1
  O  O341  1  0.49224570  0.88413901  0.99380800  1
  O  O342  1  0.99637086  0.38328074  0.49733534  1
  O  O343  1  0.99475071  0.38238500  0.99616066  1
  O  O344  1  0.99368378  0.87689333  0.49031219  1
  O  O345  1  0.99808425  0.88793310  0.99881550  1
  O  O346  1  0.49179355  0.49511574  0.37731885  1
  O  O347  1  0.49947985  0.49400092  0.88124382  1
  O  O348  1  0.48598267  0.99940177  0.37899469  1
  O  O349  1  0.49453072  0.99441028  0.88228669  1
  O  O350  1  0.99024464  0.49805841  0.38052036  1
  O  O351  1  1.00724097  0.49466620  0.88804667  1
  O  O352  1  0.99092455  0.99190236  0.37813153  1
  O  O353  1  0.99174437  1.00247819  0.88443487  1
  O  O354  1  -0.00002283  0.00700212  0.11518955  1
  O  O355  1  0.00717081  0.00771863  0.62517268  1
  O  O356  1  0.00242515  0.50635023  0.11728420  1
  O  O357  1  0.00490832  0.50464860  0.61995529  1
  O  O358  1  0.50484166  -0.00076589  0.10900061  1
  O  O359  1  0.50400082  0.00957909  0.62233257  1
  O  O360  1  0.50446564  0.50661282  0.11924769  1
  O  O361  1  0.50445973  0.50378040  0.61762801  1
  O  O362  1  0.24333071  0.38328302  0.24398240  1
  O  O363  1  0.24317216  0.37576005  0.73992653  1
  O  O364  1  0.24301889  0.88189904  0.25259984  1
  O  O365  1  0.24362963  0.88184418  0.74990806  1
  O  O366  1  0.74482582  0.38574162  0.24365915  1
  O  O367  1  0.74915451  0.38358418  0.74323460  1
  O  O368  1  0.73971926  0.87723037  0.24874867  1
  O  O369  1  0.74432676  0.87388235  0.74329050  1
  O  O370  1  0.25169205  0.11561522  0.26179071  1
  O  O371  1  0.25556612  0.12016902  0.75497730  1
  O  O372  1  0.24887357  0.61171552  0.25325924  1
  O  O373  1  0.25609075  0.62410312  0.75966549  1
  O  O374  1  0.75994196  0.12399395  0.25382850  1
  O  O375  1  0.75734999  0.12394801  0.75631573  1
  O  O376  1  0.75853600  0.61321895  0.24255337  1
  O  O377  1  0.75792350  0.61747360  0.74893497  1
  O  O378  1  0.36491716  0.11745558  0.38049338  1
  O  O379  1  0.36938061  0.12074537  0.86875641  1
  O  O380  1  0.37466835  0.61232892  0.37163118  1
  O  O381  1  0.36576129  0.62668722  0.87007452  1
  O  O382  1  0.87746243  0.11618602  0.37086628  1
  O  O383  1  0.87102161  0.11877646  0.87039613  1
  O  O384  1  0.88183558  0.61535685  0.36388697  1
  O  O385  1  0.87338027  0.62978995  0.86119214  1
  O  O386  1  0.13002912  0.37953301  0.13065487  1
  O  O387  1  0.13143901  0.37722555  0.62817390  1
  O  O388  1  0.11441597  0.87625518  0.14181430  1
  O  O389  1  0.12549225  0.88139852  0.63097618  1
  O  O390  1  0.63065631  0.38149967  0.12967866  1
  O  O391  1  0.63115056  0.38119409  0.62476920  1
  O  O392  1  0.62614284  0.87510700  0.13731157  1
  O  O393  1  0.63113145  0.87436667  0.63057587  1
  O  O394  1  0.12108604  0.25377266  0.25724627  1
  O  O395  1  0.11911490  0.25500780  0.75538980  1
  O  O396  1  0.12839345  0.75969999  0.26475539  1
  O  O397  1  0.11969043  0.75386548  0.75797856  1
  O  O398  1  0.62644128  0.25834554  0.25542770  1
  O  O399  1  0.61793150  0.25045113  0.75547271  1
  O  O400  1  0.62815530  0.75640550  0.25938668  1
  O  O401  1  0.61983075  0.75435784  0.75443183  1
  O  O402  1  0.37594309  0.24911358  0.23800350  1
  O  O403  1  0.38013801  0.24331101  0.74186688  1
  O  O404  1  0.37110023  0.75610124  0.25366031  1
  O  O405  1  0.38194635  0.74478324  0.74518075  1
  O  O406  1  0.88085822  0.24705103  0.24547638  1
  O  O407  1  0.88082635  0.24451576  0.74404373  1
  O  O408  1  0.86514458  0.73796649  0.24184410  1
  O  O409  1  0.87957373  0.74232241  0.74484942  1
  O  O410  1  0.37965666  0.49361445  0.48966552  1
  O  O411  1  0.38062256  0.49193981  0.99707003  1
  O  O412  1  0.37439859  0.99272756  0.49359315  1
  O  O413  1  0.38279635  0.99457444  0.99387056  1
  O  O414  1  0.87792474  0.50317595  0.49068344  1
  O  O415  1  0.88560308  0.49432520  1.00697340  1
  O  O416  1  0.87704882  0.99315376  0.49141367  1
  O  O417  1  0.88363736  1.00283018  0.99208641  1
  O  O418  1  0.11645447  0.00524359  0.00041990  1
  O  O419  1  0.12430337  0.01001391  0.50535833  1
  O  O420  1  0.11328588  0.50134211  0.00847626  1
  O  O421  1  0.11788454  0.50483089  0.50505700  1
  O  O422  1  0.61781711  0.00911730  -0.00291425  1
  O  O423  1  0.62603880  0.01100886  0.49888986  1
  O  O424  1  0.61810371  0.50182472  0.00720745  1
  O  O425  1  0.61997380  0.50467640  0.50262341  1
  O  O426  1  0.36705693  0.36857893  0.11745286  1
  O  O427  1  0.36737683  0.37082597  0.61872971  1
  O  O428  1  0.37976084  0.88268687  0.11117213  1
  O  O429  1  0.37518308  0.86875958  0.61810450  1
  O  O430  1  0.86902684  0.37058859  0.11879444  1
  O  O431  1  0.86865110  0.36746555  0.62301307  1
  O  O432  1  0.87683097  0.86218857  0.12737474  1
  O  O433  1  0.87136124  0.86842452  0.62004215  1
  O  O434  1  0.13131883  0.13028648  0.38051508  1
  O  O435  1  0.13010514  0.13135504  0.88019717  1
  O  O436  1  0.11944440  0.63395109  0.38024334  1
  O  O437  1  0.13254817  0.63423120  0.87412139  1
  O  O438  1  0.62769702  0.13141960  0.38496126  1
  O  O439  1  0.63132423  0.13117084  0.88241431  1
  O  O440  1  0.61984082  0.63532865  0.38054199  1
  O  O441  1  0.62727622  0.63422090  0.87848353  1
