# generated using pymatgen
data_V93Zn93O256
_symmetry_space_group_name_H-M   'P 1'
_cell_length_a   17.04752259
_cell_length_b   17.05105190
_cell_length_c   17.05632476
_cell_angle_alpha   90.00314971
_cell_angle_beta   90.05804322
_cell_angle_gamma   89.95930076
_symmetry_Int_Tables_number   1
_chemical_formula_structural   V93Zn93O256
_chemical_formula_sum   'V93 Zn93 O256'
_cell_volume   4957.89785078
_cell_formula_units_Z   1
loop_
 _symmetry_equiv_pos_site_id
 _symmetry_equiv_pos_as_xyz
  1  'x, y, z'
loop_
 _atom_site_type_symbol
 _atom_site_label
 _atom_site_symmetry_multiplicity
 _atom_site_fract_x
 _atom_site_fract_y
 _atom_site_fract_z
 _atom_site_occupancy
  V  V0  1  0.12487075  0.25215310  0.87701301  1
  V  V1  1  0.24878353  0.87490958  0.62558816  1
  V  V2  1  0.37498714  0.12852010  0.24228839  1
  V  V3  1  0.75176654  0.24874381  -0.00093020  1
  V  V4  1  0.62466367  0.24949494  0.37513570  1
  V  V5  1  0.00505236  0.11184296  0.12149907  1
  V  V6  1  0.49566245  0.25009269  0.24329891  1
  V  V7  1  -0.00014509  0.49797179  0.00023177  1
  V  V8  1  0.12542305  -0.00002184  0.62401787  1
  V  V9  1  0.50348554  0.75767601  0.75099200  1
  V  V10  1  0.12535847  0.62583801  0.49974414  1
  V  V11  1  0.50047181  0.87511455  0.37481290  1
  V  V12  1  0.49984092  0.75013315  0.25076244  1
  V  V13  1  0.37544503  0.25029494  0.62455793  1
  V  V14  1  0.37479104  0.12516844  0.74989102  1
  V  V15  1  0.25111037  0.50051080  0.25022596  1
  V  V16  1  0.12430818  0.11113324  0.00384591  1
  V  V17  1  0.37448983  0.00006293  0.87428446  1
  V  V18  1  0.11743423  0.75376412  0.87464175  1
  V  V19  1  0.62962323  0.62791033  0.50083231  1
  V  V20  1  -0.00015093  0.12660368  0.62283155  1
  V  V21  1  0.75053085  0.37356887  0.62576494  1
  V  V22  1  0.25110777  0.12462973  0.87568893  1
  V  V23  1  0.62572044  -0.00030215  0.12671429  1
  V  V24  1  0.37512033  0.62564405  0.24972590  1
  V  V25  1  0.87744611  0.37465037  -0.00036375  1
  V  V26  1  0.50016560  0.50118040  0.50069173  1
  V  V27  1  0.25069570  0.24962840  0.49930716  1
  V  V28  1  0.37593077  -0.00013886  0.37394460  1
  V  V29  1  0.12449096  0.87857117  0.24414506  1
  V  V30  1  0.49989724  0.37592909  0.87608280  1
  V  V31  1  -0.00064113  -0.00104348  0.49830769  1
  V  V32  1  0.37608046  0.37544992  0.50019779  1
  V  V33  1  0.74848563  0.86896066  0.62191813  1
  V  V34  1  0.62713943  0.24897526  0.87525871  1
  V  V35  1  0.37515071  0.62597156  0.75200514  1
  V  V36  1  0.37607149  0.37442140  0.00080672  1
  V  V37  1  0.74961888  0.49886887  0.25021153  1
  V  V38  1  0.62483218  0.75795456  0.87223037  1
  V  V39  1  0.25458577  0.37231695  0.12640972  1
  V  V40  1  0.25032865  0.00013479  0.75081669  1
  V  V41  1  0.12557155  0.62560974  -0.00018765  1
  V  V42  1  0.37454740  0.50117712  0.37456069  1
  V  V43  1  0.75409332  0.12141619  0.87433817  1
  V  V44  1  0.25081705  0.75047366  0.49941753  1
  V  V45  1  0.62551698  0.37492354  0.25014297  1
  V  V46  1  0.75045771  0.37410477  0.12559869  1
  V  V47  1  0.11560827  0.87632892  0.75379690  1
  V  V48  1  -0.00037760  0.87470353  0.37498986  1
  V  V49  1  0.50030718  0.12472685  0.62461382  1
  V  V50  1  0.36959352  0.87542099  -0.00083947  1
  V  V51  1  -0.00017345  0.37402873  0.37489628  1
  V  V52  1  0.50058283  0.00098036  0.00061928  1
  V  V53  1  0.12461563  0.25046318  0.37454070  1
  V  V54  1  0.12539221  0.12410253  0.49871854  1
  V  V55  1  0.75077254  0.12363136  0.37337031  1
  V  V56  1  0.87503350  0.12260840  0.24915685  1
  V  V57  1  0.75076106  0.75269360  0.00162653  1
  V  V58  1  0.74794642  -0.00648796  0.75126964  1
  V  V59  1  0.62545388  0.12465323  0.49970257  1
  V  V60  1  0.24613434  0.00004521  0.24335425  1
  V  V61  1  0.50049045  0.25049872  0.75030656  1
  V  V62  1  0.87478618  0.74892464  0.12520489  1
  V  V63  1  0.00112099  0.24912326  0.24903359  1
  V  V64  1  0.49911749  -0.00005947  0.49895623  1
  V  V65  1  0.00082365  0.62259739  0.12672831  1
  V  V66  1  0.62445734  -0.00569525  0.62952085  1
  V  V67  1  0.50048278  0.62550411  0.62585426  1
  V  V68  1  0.62968397  0.75084778  0.37772945  1
  V  V69  1  0.74999272  0.24951911  0.50108808  1
  V  V70  1  0.25040219  0.62524203  0.87449511  1
  V  V71  1  0.12631493  0.49971431  0.62752453  1
  V  V72  1  0.25013442  0.37576534  0.62567471  1
  V  V73  1  0.37489479  0.75208631  0.12426729  1
  V  V74  1  0.87740684  0.24836616  0.12389926  1
  V  V75  1  0.62586558  0.37515087  0.75060247  1
  V  V76  1  0.75162243  0.49973594  0.75055434  1
  V  V77  1  0.12668890  0.49964767  0.12567680  1
  V  V78  1  0.37486962  0.75066070  0.62610980  1
  V  V79  1  -0.00009256  0.25098685  0.74913686  1
  V  V80  1  0.88568584  0.88107721  -0.00579117  1
  V  V81  1  0.50033007  0.37521501  0.37496817  1
  V  V82  1  -0.00110719  0.62851434  0.62788955  1
  V  V83  1  0.00123887  0.74943318  0.25180247  1
  V  V84  1  0.25319504  0.24959872  0.00486228  1
  V  V85  1  0.87426943  0.37395122  0.49967665  1
  V  V86  1  0.75223968  0.62431760  0.87436366  1
  V  V87  1  0.25012331  0.12479957  0.37362994  1
  V  V88  1  0.87557115  0.62446854  0.25165012  1
  V  V89  1  0.62344037  0.62391969  0.00302786  1
  V  V90  1  0.87580385  0.49895817  0.37563258  1
  V  V91  1  0.87112962  0.86768083  0.49995466  1
  V  V92  1  0.75085135  0.62671323  0.37781279  1
  Zn  Zn93  1  0.25005618  0.62544723  0.37429790  1
  Zn  Zn94  1  0.87537468  0.12254226  0.74694713  1
  Zn  Zn95  1  -0.00682870  0.75512418  0.75248432  1
  Zn  Zn96  1  0.49883801  0.12918902  0.12216562  1
  Zn  Zn97  1  0.62562090  0.12502822  0.00124478  1
  Zn  Zn98  1  0.62486363  0.50033322  0.62484079  1
  Zn  Zn99  1  -0.00011481  0.37710609  0.87357632  1
  Zn  Zn100  1  0.87878645  0.49876208  0.87453653  1
  Zn  Zn101  1  0.24932794  0.75118789  0.00005957  1
  Zn  Zn102  1  0.87605539  0.62707554  0.74901697  1
  Zn  Zn103  1  0.12581216  0.37515969  0.25063672  1
  Zn  Zn104  1  0.25304094  0.49781223  0.75135244  1
  Zn  Zn105  1  0.86882512  0.74660592  0.62531085  1
  Zn  Zn106  1  0.87484217  0.24832493  0.62546100  1
  Zn  Zn107  1  0.12700475  0.74997867  0.37337449  1
  Zn  Zn108  1  0.24447281  0.87842389  0.12201981  1
  Zn  Zn109  1  0.49991016  0.50075410  0.00098865  1
  Zn  Zn110  1  0.12684134  0.37601312  0.75137584  1
  Zn  Zn111  1  0.62771373  0.87414441  0.24874597  1
  Zn  Zn112  1  0.37723253  0.50130297  0.87488079  1
  Zn  Zn113  1  0.50002199  0.62268359  0.12497135  1
  Zn  Zn114  1  0.62313109  0.49987528  0.12562716  1
  Zn  Zn115  1  0.50252930  0.87923392  0.87086883  1
  Zn  Zn116  1  0.75132037  0.87709655  0.12712751  1
  Zn  Zn117  1  0.89085485  -0.00691148  0.86755285  1
  Zn  Zn118  1  -0.00062756  0.49914146  0.50050681  1
  Zn  Zn119  1  0.87218476  -0.00184629  0.37378859  1
  Zn  Zn120  1  0.37383741  0.87564496  0.49916719  1
  Zn  Zn121  1  0.74969265  -0.00270504  0.25075218  1
  Zn  Zn122  1  0.18494950  0.18667785  0.18645281  1
  Zn  Zn123  1  0.18669625  0.18825524  0.68721515  1
  Zn  Zn124  1  0.18933384  0.68938777  0.18739507  1
  Zn  Zn125  1  0.18638062  0.68976550  0.69005714  1
  Zn  Zn126  1  0.68626895  0.18551394  0.18664750  1
  Zn  Zn127  1  0.68789190  0.18482616  0.68846577  1
  Zn  Zn128  1  0.68759720  0.68767821  0.18981316  1
  Zn  Zn129  1  0.68469962  0.68693935  0.68946993  1
  Zn  Zn130  1  0.31346321  0.31275617  0.31266131  1
  Zn  Zn131  1  0.31228658  0.31315978  0.81343259  1
  Zn  Zn132  1  0.31221647  0.81419331  0.31249647  1
  Zn  Zn133  1  0.30913311  0.81363338  0.81415593  1
  Zn  Zn134  1  0.81354232  0.30969689  0.31229414  1
  Zn  Zn135  1  0.81565699  0.31176896  0.81397534  1
  Zn  Zn136  1  0.81150329  0.81412992  0.31204342  1
  Zn  Zn137  1  0.81372454  0.81197590  0.81069934  1
  Zn  Zn138  1  0.18769899  0.43784171  0.43815153  1
  Zn  Zn139  1  0.18791515  0.43883840  0.93880719  1
  Zn  Zn140  1  0.18663609  0.93665737  0.43256380  1
  Zn  Zn141  1  0.06270342  0.93873328  0.93526176  1
  Zn  Zn142  1  0.68774625  0.43916582  0.43758721  1
  Zn  Zn143  1  0.68867158  0.43733883  0.93789407  1
  Zn  Zn144  1  0.68765988  0.93810196  0.43895597  1
  Zn  Zn145  1  0.69032876  0.93826938  0.94052576  1
  Zn  Zn146  1  0.31140047  0.06165511  0.06098841  1
  Zn  Zn147  1  0.31252593  0.06223062  0.56212428  1
  Zn  Zn148  1  0.31311237  0.56214522  0.06183082  1
  Zn  Zn149  1  0.31306867  0.56348393  0.56414349  1
  Zn  Zn150  1  0.81371259  0.06281276  0.06349256  1
  Zn  Zn151  1  0.81390689  0.05943771  0.56159017  1
  Zn  Zn152  1  0.81253769  0.56056621  0.06361250  1
  Zn  Zn153  1  0.81279499  0.55973840  0.56300075  1
  Zn  Zn154  1  0.43911329  0.43978332  0.18514255  1
  Zn  Zn155  1  0.43746518  0.43991337  0.68892201  1
  Zn  Zn156  1  0.43871850  0.93767726  0.18811247  1
  Zn  Zn157  1  0.43563580  0.93693514  0.68515519  1
  Zn  Zn158  1  0.93766753  0.43579053  0.18807356  1
  Zn  Zn159  1  0.93828001  0.43740327  0.68635152  1
  Zn  Zn160  1  0.93426294  0.93506627  0.18625938  1
  Zn  Zn161  1  0.93292103  0.94072083  0.68271581  1
  Zn  Zn162  1  0.06055779  0.06150548  0.31124431  1
  Zn  Zn163  1  0.06528775  0.06863094  0.80989482  1
  Zn  Zn164  1  0.06366651  0.56027520  0.31376925  1
  Zn  Zn165  1  0.06297118  0.56401372  0.81291666  1
  Zn  Zn166  1  0.56228213  0.06325401  0.31085824  1
  Zn  Zn167  1  0.56432311  0.06381624  0.81335696  1
  Zn  Zn168  1  0.56182512  0.56364924  0.31243980  1
  Zn  Zn169  1  0.56316349  0.56376198  0.81500202  1
  Zn  Zn170  1  0.43740843  0.18661975  0.43369719  1
  Zn  Zn171  1  0.43777278  0.18891360  0.93704183  1
  Zn  Zn172  1  0.43889743  0.68744973  0.43700221  1
  Zn  Zn173  1  0.43932308  0.68972461  0.93660082  1
  Zn  Zn174  1  0.93606567  0.18715861  0.43643885  1
  Zn  Zn175  1  0.94036922  0.18152871  0.93784672  1
  Zn  Zn176  1  0.93924597  0.68820028  0.43841680  1
  Zn  Zn177  1  0.93717811  0.68672289  0.93994968  1
  Zn  Zn178  1  0.06435245  0.31014956  0.06382999  1
  Zn  Zn179  1  0.06255233  0.31345458  0.56119799  1
  Zn  Zn180  1  0.06207357  0.80782881  0.06530516  1
  Zn  Zn181  1  0.06135222  0.81279348  0.56351709  1
  Zn  Zn182  1  0.56542409  0.31301282  0.06203615  1
  Zn  Zn183  1  0.56418526  0.31346875  0.56370712  1
  Zn  Zn184  1  0.55995641  0.81528283  0.06213789  1
  Zn  Zn185  1  0.56127268  0.81270395  0.56069559  1
  O  O186  1  0.11718370  0.12967733  0.11566629  1
  O  O187  1  0.12138133  0.11950766  0.61781301  1
  O  O188  1  0.12072891  0.62029550  0.12014285  1
  O  O189  1  0.12036534  0.61885191  0.61886023  1
  O  O190  1  0.62052580  0.11539143  0.12119731  1
  O  O191  1  0.61938923  0.11626465  0.61958408  1
  O  O192  1  0.62539077  0.62602734  0.11393470  1
  O  O193  1  0.61981771  0.62504944  0.61588495  1
  O  O194  1  0.38073608  0.38067017  0.38136387  1
  O  O195  1  0.38012172  0.37559390  0.88402750  1
  O  O196  1  0.38181918  0.88197313  0.37648052  1
  O  O197  1  0.37660377  0.88124867  0.88231428  1
  O  O198  1  0.87955219  0.37912785  0.37952782  1
  O  O199  1  0.87841950  0.37716103  0.88453853  1
  O  O200  1  0.88036488  0.87542328  0.38330500  1
  O  O201  1  0.87230083  0.87280708  0.89062286  1
  O  O202  1  0.25551723  0.00597558  0.36608646  1
  O  O203  1  0.25976179  0.01075132  0.86539116  1
  O  O204  1  0.25704316  0.50043091  0.36914368  1
  O  O205  1  0.24887673  0.51366508  0.87312531  1
  O  O206  1  0.74987117  0.00950864  0.37340248  1
  O  O207  1  0.74704616  0.00581312  0.86616150  1
  O  O208  1  0.75633252  0.50565267  0.36924670  1
  O  O209  1  0.75020930  0.50862544  0.86749693  1
  O  O210  1  0.24610021  0.49223825  0.12988319  1
  O  O211  1  0.24217893  0.49514830  0.62539320  1
  O  O212  1  0.25575861  0.99807735  0.14009392  1
  O  O213  1  0.24522042  0.99581467  0.63019210  1
  O  O214  1  0.74915224  0.49260288  0.13315924  1
  O  O215  1  0.74767815  0.49394473  0.63538696  1
  O  O216  1  0.73745640  0.99996398  0.12385247  1
  O  O217  1  0.74181141  0.99407384  0.63161707  1
  O  O218  1  0.00178351  0.36751640  0.25661423  1
  O  O219  1  0.00484881  0.36433165  0.75114148  1
  O  O220  1  0.00582171  0.87002441  0.25391229  1
  O  O221  1  0.01276007  0.87692564  0.74069095  1
  O  O222  1  0.50341412  0.36838266  0.25556023  1
  O  O223  1  0.50504057  0.36937985  0.75507039  1
  O  O224  1  0.50266520  0.86809768  0.25789273  1
  O  O225  1  0.49546882  0.86171572  0.75024780  1
  O  O226  1  0.49100425  0.13394724  0.25092269  1
  O  O227  1  0.49479447  0.13077220  0.74449931  1
  O  O228  1  0.49275300  0.63236543  0.24929784  1
  O  O229  1  0.49556691  0.63422958  0.74609410  1
  O  O230  1  0.99642391  0.13042762  0.24209262  1
  O  O231  1  1.00110148  0.13602587  0.74112090  1
  O  O232  1  0.99523608  0.62857195  0.24637952  1
  O  O233  1  0.99873191  0.62473867  0.73845085  1
  O  O234  1  0.36233187  0.25894422  -0.00571789  1
  O  O235  1  0.37094049  0.25474375  0.50444444  1
  O  O236  1  0.37792984  0.75853633  0.00762398  1
  O  O237  1  0.36601411  0.74934143  0.50672915  1
  O  O238  1  0.87107837  0.25400485  0.00463627  1
  O  O239  1  0.86733198  0.25636436  0.50048288  1
  O  O240  1  0.86858082  0.75580450  0.00445132  1
  O  O241  1  0.87953236  0.76364748  0.50359344  1
  O  O242  1  0.13140713  0.24382453  0.49465467  1
  O  O243  1  0.13624417  0.24742535  0.99215652  1
  O  O244  1  0.13424224  0.74187457  0.50150208  1
  O  O245  1  0.12668590  0.74488168  0.99240956  1
  O  O246  1  0.62937483  0.24440461  0.49498244  1
  O  O247  1  0.63312646  0.24852113  0.99301473  1
  O  O248  1  0.61746738  0.73837400  0.48955051  1
  O  O249  1  0.63246922  0.74368694  0.99388632  1
  O  O250  1  0.50510964  0.25005294  0.13988265  1
  O  O251  1  0.49524495  0.24473390  0.63007292  1
  O  O252  1  0.49044407  0.74915892  0.13101977  1
  O  O253  1  0.49635600  0.74589646  0.63227950  1
  O  O254  1  0.99505175  0.24512398  0.13151975  1
  O  O255  1  1.00269187  0.24537281  0.63339627  1
  O  O256  1  0.99428652  0.74101278  0.13218430  1
  O  O257  1  1.00177923  0.73768110  0.62735527  1
  O  O258  1  0.00543008  0.25382677  0.36913914  1
  O  O259  1  0.01015458  0.24812956  0.86753505  1
  O  O260  1  0.00237602  0.75617161  0.36831268  1
  O  O261  1  0.01367000  0.73917492  0.87184614  1
  O  O262  1  0.50546944  0.25590003  0.36741631  1
  O  O263  1  0.50622498  0.25481741  0.86899694  1
  O  O264  1  0.50784386  0.75472562  0.37052795  1
  O  O265  1  0.50823597  0.75204778  0.86715153  1
  O  O266  1  0.24537743  0.12999819  0.49398855  1
  O  O267  1  0.24561731  0.13319525  0.99781823  1
  O  O268  1  0.24212529  0.63429321  0.50202168  1
  O  O269  1  0.24436568  0.62675466  0.99136104  1
  O  O270  1  0.74447986  0.12952645  0.49509220  1
  O  O271  1  0.75017216  0.12994776  0.99036780  1
  O  O272  1  0.73753869  0.61811082  0.49484352  1
  O  O273  1  0.74521570  0.63339832  0.99349018  1
  O  O274  1  0.25659395  0.36881697  0.00614492  1
  O  O275  1  0.25698581  0.36905153  0.50510712  1
  O  O276  1  0.26667077  0.87373892  0.00454484  1
  O  O277  1  0.24841353  0.86561747  0.50524315  1
  O  O278  1  0.75627891  0.36877927  0.00538424  1
  O  O279  1  0.75337395  0.36961143  0.50510216  1
  O  O280  1  0.75797577  0.86219759  0.00129847  1
  O  O281  1  0.75986054  0.88215615  0.50988859  1
  O  O282  1  0.13267601  0.49817921  0.24384804  1
  O  O283  1  0.12789688  0.49955698  0.73748659  1
  O  O284  1  0.13522203  0.99137824  0.25637785  1
  O  O285  1  0.13130785  0.99484884  0.74393447  1
  O  O286  1  0.63191488  0.49312620  0.25155746  1
  O  O287  1  0.63564662  0.49480999  0.75052042  1
  O  O288  1  0.62366174  0.99854438  0.23860321  1
  O  O289  1  0.63188778  1.00511286  0.73787524  1
  O  O290  1  0.36862045  0.00790479  0.25575964  1
  O  O291  1  0.37127656  0.00617538  0.75309369  1
  O  O292  1  0.37061821  0.50533223  0.25493295  1
  O  O293  1  0.37327069  0.50995865  0.75383301  1
  O  O294  1  0.87227002  0.00810944  0.25160987  1
  O  O295  1  0.86323716  0.00246164  0.75107822  1
  O  O296  1  0.86999203  0.50512070  0.25588669  1
  O  O297  1  0.86286125  0.50176596  0.75227207  1
  O  O298  1  0.11902091  0.36846538  0.37525419  1
  O  O299  1  0.12550022  0.36317390  0.87496662  1
  O  O300  1  0.11809396  0.87206472  0.36416346  1
  O  O301  1  0.12227705  0.86546878  0.86581826  1
  O  O302  1  0.61984329  0.36953749  0.37025682  1
  O  O303  1  0.62114901  0.36841521  0.87015812  1
  O  O304  1  0.61994373  0.86496580  0.37769947  1
  O  O305  1  0.62474759  0.86099690  0.88212325  1
  O  O306  1  0.37637481  0.12134167  0.13901167  1
  O  O307  1  0.38049554  0.13061105  0.62977270  1
  O  O308  1  0.37583491  0.63548292  0.12929111  1
  O  O309  1  0.38087768  0.63183234  0.63087375  1
  O  O310  1  0.88412286  0.13037024  0.12785518  1
  O  O311  1  0.88410075  0.12735920  0.62474328  1
  O  O312  1  0.88059619  0.62859630  0.13173206  1
  O  O313  1  0.88535927  0.62573459  0.62255888  1
  O  O314  1  0.24368926  0.25988350  0.11514626  1
  O  O315  1  0.25579993  0.25429494  0.61861808  1
  O  O316  1  0.26288013  0.75388225  0.12272567  1
  O  O317  1  0.25427330  0.75450043  0.61794470  1
  O  O318  1  0.75668481  0.25366485  0.11929328  1
  O  O319  1  0.75031106  0.25523010  0.61950097  1
  O  O320  1  0.75565670  0.74763659  0.11493986  1
  O  O321  1  0.74527198  0.76575910  0.63203058  1
  O  O322  1  0.24552555  0.24505709  0.38039170  1
  O  O323  1  0.24368432  0.24496543  0.88277785  1
  O  O324  1  0.24975546  0.74830623  0.38734220  1
  O  O325  1  0.23964064  0.74109285  0.87657323  1
  O  O326  1  0.74350786  0.24434430  0.38098037  1
  O  O327  1  0.74673363  0.24120927  0.87823093  1
  O  O328  1  0.73769407  0.74284015  0.37011377  1
  O  O329  1  0.74353910  0.74306141  0.88125541  1
  O  O330  1  0.01257518  0.13241359  0.01061144  1
  O  O331  1  0.00674888  0.12035239  0.50276256  1
  O  O332  1  0.00528794  0.61878907  0.00782070  1
  O  O333  1  0.01061840  0.62418511  0.50817447  1
  O  O334  1  0.49872142  0.11400758  0.00120636  1
  O  O335  1  0.50479198  0.12056950  0.50501266  1
  O  O336  1  0.51281913  0.62584696  -0.00103419  1
  O  O337  1  0.50778273  0.62032996  0.50553096  1
  O  O338  1  0.49565996  0.37994927  0.49523434  1
  O  O339  1  0.49004129  0.37070168  0.99542459  1
  O  O340  1  0.49659585  0.88215307  0.49361001  1
  O  O341  1  0.49070854  0.88647510  0.99697808  1
  O  O342  1  0.99294544  0.37551682  0.49280185  1
  O  O343  1  0.99534656  0.38032121  1.00111190  1
  O  O344  1  0.99396377  0.87957634  0.49579158  1
  O  O345  1  0.99048389  0.87261776  1.00140822  1
  O  O346  1  0.49425089  0.49418619  0.38018030  1
  O  O347  1  0.49970999  0.49147254  0.87957739  1
  O  O348  1  0.49631688  0.99565775  0.37986636  1
  O  O349  1  0.49517257  1.00003480  0.88205773  1
  O  O350  1  0.99354652  0.49304746  0.37691111  1
  O  O351  1  0.99975259  0.49871345  0.88336950  1
  O  O352  1  0.99858132  0.99264521  0.38151354  1
  O  O353  1  1.00045262  1.01014124  0.87691127  1
  O  O354  1  -0.00306303  0.01311423  0.12802729  1
  O  O355  1  0.00700457  0.00636513  0.61804722  1
  O  O356  1  0.00637705  0.50434762  0.12168518  1
  O  O357  1  0.00950514  0.50797133  0.62236530  1
  O  O358  1  0.50650382  0.00141789  0.11580008  1
  O  O359  1  0.50612339  0.00450672  0.62089896  1
  O  O360  1  0.50522351  0.50426487  0.11918242  1
  O  O361  1  0.50209306  0.50738920  0.61924419  1
  O  O362  1  0.25145595  0.37987486  0.24109010  1
  O  O363  1  0.24759647  0.37635285  0.74174045  1
  O  O364  1  0.24190184  0.88358379  0.25061732  1
  O  O365  1  0.24061810  0.88077929  0.74478522  1
  O  O366  1  0.74547443  0.37837537  0.24592234  1
  O  O367  1  0.74598356  0.38130043  0.74740983  1
  O  O368  1  0.74629345  0.87831376  0.24488606  1
  O  O369  1  0.75345346  0.88700774  0.74120482  1
  O  O370  1  0.25542523  0.11997829  0.25388356  1
  O  O371  1  0.25580180  0.12143670  0.75379065  1
  O  O372  1  0.25660601  0.61875735  0.25163915  1
  O  O373  1  0.25606737  0.62664424  0.75889402  1
  O  O374  1  0.75732872  0.12580095  0.25610193  1
  O  O375  1  0.75111265  0.11524469  0.75751214  1
  O  O376  1  0.75661908  0.61941136  0.25685252  1
  O  O377  1  0.74818026  0.61674122  0.75823233  1
  O  O378  1  0.36899254  0.11976121  0.36565302  1
  O  O379  1  0.37095755  0.12156278  0.86843089  1
  O  O380  1  0.37392862  0.61845747  0.36910280  1
  O  O381  1  0.36554095  0.62743245  0.87190701  1
  O  O382  1  0.86881842  0.12385094  0.36762863  1
  O  O383  1  0.86254029  0.12124763  0.87422606  1
  O  O384  1  0.87105004  0.62013864  0.37158404  1
  O  O385  1  0.86113033  0.62415400  0.87579412  1
  O  O386  1  0.13774483  0.38119094  0.12518495  1
  O  O387  1  0.13111118  0.38523746  0.62237341  1
  O  O388  1  0.12545233  0.86953695  0.13951745  1
  O  O389  1  0.13039236  0.88090684  0.63179094  1
  O  O390  1  0.63343564  0.37525830  0.13249038  1
  O  O391  1  0.63164127  0.37716785  0.63266069  1
  O  O392  1  0.62644369  0.88557877  0.12456927  1
  O  O393  1  0.63223726  0.88743662  0.61536640  1
  O  O394  1  0.12003864  0.25169315  0.25769036  1
  O  O395  1  0.11868686  0.24906595  0.75997031  1
  O  O396  1  0.11987533  0.75752572  0.25220566  1
  O  O397  1  0.12367107  0.76054107  0.75734889  1
  O  O398  1  0.61691817  0.25474074  0.25638143  1
  O  O399  1  0.61989945  0.25490051  0.75506785  1
  O  O400  1  0.61829659  0.74848238  0.26121080  1
  O  O401  1  0.61454018  0.74341913  0.76113315  1
  O  O402  1  0.38445610  0.24078336  0.25765023  1
  O  O403  1  0.38049723  0.24481211  0.74434428  1
  O  O404  1  0.37901430  0.74646594  0.24302406  1
  O  O405  1  0.38242454  0.74545414  0.74603302  1
  O  O406  1  0.88110834  0.24275171  0.24374568  1
  O  O407  1  0.88795839  0.24703077  0.74908658  1
  O  O408  1  0.88075501  0.74352597  0.24551447  1
  O  O409  1  0.87746029  0.74559944  0.74475709  1
  O  O410  1  0.38032525  0.49526225  0.49559133  1
  O  O411  1  0.37506055  0.48682422  0.99648772  1
  O  O412  1  0.38095072  1.00048061  0.49274270  1
  O  O413  1  0.38172774  0.99491862  0.99555025  1
  O  O414  1  0.87559789  0.49206780  0.49237962  1
  O  O415  1  0.88182788  0.49329867  1.00043439  1
  O  O416  1  0.88253029  0.98883699  0.49856607  1
  O  O417  1  0.86850858  0.98144159  1.00035812  1
  O  O418  1  0.13097859  0.01301734  -0.00421715  1
  O  O419  1  0.12103009  0.00459073  0.50410371  1
  O  O420  1  0.12033726  0.50598077  0.00660216  1
  O  O421  1  0.12625164  0.50990050  0.50978465  1
  O  O422  1  0.61551428  0.00002357  0.00594488  1
  O  O423  1  0.61860514  0.00651515  0.50858361  1
  O  O424  1  0.62767937  0.51246230  0.00098782  1
  O  O425  1  0.61802139  0.51030131  0.49952902  1
  O  O426  1  0.36321428  0.37922408  0.11571420  1
  O  O427  1  0.37151550  0.36951764  0.61939071  1
  O  O428  1  0.37678829  0.86659958  0.11852370  1
  O  O429  1  0.36653400  0.86871509  0.62241515  1
  O  O430  1  0.86975999  0.36801667  0.12023989  1
  O  O431  1  0.86831598  0.37289396  0.61800411  1
  O  O432  1  0.87435267  0.86629201  0.11260256  1
  O  O433  1  0.86534899  0.87401357  0.61656066  1
  O  O434  1  0.13046952  0.13015707  0.37986850  1
  O  O435  1  0.13231550  0.13586451  0.88386341  1
  O  O436  1  0.12694077  0.62557538  0.38810089  1
  O  O437  1  0.13301137  0.63219362  0.87922004  1
  O  O438  1  0.62929921  0.13046538  0.38054857  1
  O  O439  1  0.63646197  0.13068259  0.87630102  1
  O  O440  1  0.62920464  0.63164357  0.38235201  1
  O  O441  1  0.63482143  0.63381747  0.88326706  1
