# generated using pymatgen
data_V93Zn93O256
_symmetry_space_group_name_H-M   'P 1'
_cell_length_a   17.04961433
_cell_length_b   17.04657330
_cell_length_c   17.04529002
_cell_angle_alpha   89.98588115
_cell_angle_beta   89.97554818
_cell_angle_gamma   90.04383756
_symmetry_Int_Tables_number   1
_chemical_formula_structural   V93Zn93O256
_chemical_formula_sum   'V93 Zn93 O256'
_cell_volume   4953.99843214
_cell_formula_units_Z   1
loop_
 _symmetry_equiv_pos_site_id
 _symmetry_equiv_pos_as_xyz
  1  'x, y, z'
loop_
 _atom_site_type_symbol
 _atom_site_label
 _atom_site_symmetry_multiplicity
 _atom_site_fract_x
 _atom_site_fract_y
 _atom_site_fract_z
 _atom_site_occupancy
  V  V0  1  0.49867886  -0.00048532  0.50100872  1
  V  V1  1  0.87408464  0.75483493  0.62005641  1
  V  V2  1  0.50123201  0.49898852  0.00165298  1
  V  V3  1  0.62455653  0.62413196  0.50086482  1
  V  V4  1  0.87606148  0.62131267  0.75052428  1
  V  V5  1  0.49991566  0.12511172  0.12628594  1
  V  V6  1  0.12104622  0.87293975  0.24960783  1
  V  V7  1  -0.00004138  0.12558738  0.12477384  1
  V  V8  1  0.49849975  0.24950220  0.25008469  1
  V  V9  1  0.62667851  0.87474398  0.74863810  1
  V  V10  1  0.24910181  0.37595519  0.62517914  1
  V  V11  1  0.37355021  0.87428893  0.50127366  1
  V  V12  1  0.37376810  0.62476068  0.25036363  1
  V  V13  1  -0.00116679  0.62353030  0.62285455  1
  V  V14  1  0.25235826  0.37454980  0.12549082  1
  V  V15  1  0.24921584  0.24983627  0.50008821  1
  V  V16  1  0.49791744  0.62382476  0.62851710  1
  V  V17  1  -0.00724809  -0.00630703  0.49615625  1
  V  V18  1  0.62365445  0.87432108  0.24969940  1
  V  V19  1  0.87169039  0.49776442  0.36959571  1
  V  V20  1  0.37512789  0.25008595  0.62554410  1
  V  V21  1  0.37375398  0.74996620  0.12458859  1
  V  V22  1  0.87547283  0.87586941  -0.00132720  1
  V  V23  1  -0.01842121  0.60793451  0.10191051  1
  V  V24  1  0.87444510  0.12371336  0.25020498  1
  V  V25  1  0.37403548  0.50596333  0.86806616  1
  V  V26  1  0.75476042  0.37943380  0.12692753  1
  V  V27  1  0.24842695  0.12442898  0.37489468  1
  V  V28  1  0.24898879  0.12608409  0.87540852  1
  V  V29  1  0.12404843  0.12531328  0.49984424  1
  V  V30  1  0.49902193  0.74582138  0.74934360  1
  V  V31  1  0.37478976  0.12507797  0.75094827  1
  V  V32  1  0.87679718  0.12774406  0.75139041  1
  V  V33  1  0.62779440  0.25077177  0.87609012  1
  V  V34  1  0.12537771  -0.00056584  0.62422215  1
  V  V35  1  0.75722108  0.25353969  0.00249114  1
  V  V36  1  0.87685129  0.37345302  0.49429349  1
  V  V37  1  0.87353442  0.75123777  0.12532942  1
  V  V38  1  0.24945748  0.87432396  0.62497275  1
  V  V39  1  0.00047983  0.87534938  0.87324283  1
  V  V40  1  0.50035944  0.87526809  0.87453730  1
  V  V41  1  0.75089871  0.12717059  0.87659264  1
  V  V42  1  0.37334373  0.74382631  0.62938654  1
  V  V43  1  0.24830575  -0.00102177  0.24974136  1
  V  V44  1  0.12462447  0.87483050  0.74883155  1
  V  V45  1  -0.00102058  0.49521410  0.49096039  1
  V  V46  1  0.50278025  0.37453490  0.87635597  1
  V  V47  1  0.37599134  0.37471385  0.50006023  1
  V  V48  1  0.00165652  0.25734354  0.75097841  1
  V  V49  1  0.11798364  0.25444590  0.37473136  1
  V  V50  1  0.74890083  0.87670901  0.12496072  1
  V  V51  1  0.12134155  0.74789369  0.37163178  1
  V  V52  1  0.75028548  0.00022554  0.74986939  1
  V  V53  1  0.50033307  0.49843344  0.50136039  1
  V  V54  1  0.62757528  0.49928759  0.62691780  1
  V  V55  1  0.25002810  0.74952504  -0.00231485  1
  V  V56  1  0.11925503  0.37535984  0.25304691  1
  V  V57  1  0.49876745  0.37454296  0.37577574  1
  V  V58  1  0.62429582  -0.00044671  0.62574771  1
  V  V59  1  0.75254658  0.62311041  0.87547951  1
  V  V60  1  0.49915137  0.75022936  0.25068962  1
  V  V61  1  0.49948031  0.12474069  0.62544126  1
  V  V62  1  0.37442608  0.12460216  0.25009789  1
  V  V63  1  0.62999728  0.37493135  0.75188569  1
  V  V64  1  0.62389132  0.62652476  -0.00005449  1
  V  V65  1  0.62415197  0.24989949  0.37566349  1
  V  V66  1  0.00038912  0.12688240  0.62633802  1
  V  V67  1  0.75037650  0.25055951  0.50216511  1
  V  V68  1  0.87276265  0.62396302  0.25017466  1
  V  V69  1  0.24851623  0.87410248  0.12418202  1
  V  V70  1  0.12279266  0.62412324  0.49551201  1
  V  V71  1  0.49987710  0.62536291  0.12526234  1
  V  V72  1  0.62579615  0.74975896  0.87327249  1
  V  V73  1  0.74930139  0.75099620  -0.00087583  1
  V  V74  1  0.74997135  0.12345551  0.37451641  1
  V  V75  1  0.12184072  0.49992398  0.12021876  1
  V  V76  1  -0.00122132  0.74535932  0.24380959  1
  V  V77  1  -0.00159375  0.38347878  0.89253493  1
  V  V78  1  0.87583449  0.00003139  0.87462715  1
  V  V79  1  0.62334005  0.74947266  0.37539634  1
  V  V80  1  0.12429325  0.49804389  0.62529855  1
  V  V81  1  0.75321039  0.75501622  0.49949836  1
  V  V82  1  0.62699147  0.38108256  0.24963841  1
  V  V83  1  0.62463782  0.00048672  0.12666803  1
  V  V84  1  0.12347002  0.00029869  0.12459163  1
  V  V85  1  0.49909084  0.00016189  -0.00088786  1
  V  V86  1  0.24907307  0.62427609  0.37188402  1
  V  V87  1  0.00034484  0.74984944  0.74762299  1
  V  V88  1  0.12590472  0.62248101  -0.00316452  1
  V  V89  1  0.25143597  0.24952354  0.00026794  1
  V  V90  1  0.37334810  -0.00181689  0.37602014  1
  V  V91  1  0.74809493  0.62072247  0.36985331  1
  V  V92  1  0.75559398  0.49932284  0.75398031  1
  Zn  Zn93  1  0.25981289  0.50559753  0.74135672  1
  Zn  Zn94  1  0.50274044  0.25022418  0.75155183  1
  Zn  Zn95  1  0.37682437  0.25098381  0.12538039  1
  Zn  Zn96  1  -0.00324145  0.25241223  0.25356028  1
  Zn  Zn97  1  0.12374362  0.12395183  -0.00126374  1
  Zn  Zn98  1  0.12792908  0.37693170  0.75382953  1
  Zn  Zn99  1  0.89053813  0.50674028  0.91277348  1
  Zn  Zn100  1  0.62587893  0.12668663  0.00167328  1
  Zn  Zn101  1  0.25134707  0.49925147  0.24878098  1
  Zn  Zn102  1  0.37358049  0.87464865  -0.00312793  1
  Zn  Zn103  1  0.25517842  0.63047488  0.86355837  1
  Zn  Zn104  1  0.62731575  0.50305594  0.13103806  1
  Zn  Zn105  1  0.62478986  0.12403062  0.50133652  1
  Zn  Zn106  1  -0.00941174  0.86691798  0.37632128  1
  Zn  Zn107  1  0.74883424  -0.00143439  0.25147355  1
  Zn  Zn108  1  0.24902282  -0.00041948  0.75161342  1
  Zn  Zn109  1  0.75336870  0.87805434  0.62087352  1
  Zn  Zn110  1  0.37680628  0.37475594  -0.00028422  1
  Zn  Zn111  1  0.87554128  0.25301776  0.62681026  1
  Zn  Zn112  1  0.86666115  -0.01032882  0.38034441  1
  Zn  Zn113  1  0.87901913  0.25398876  0.12352774  1
  Zn  Zn114  1  0.12475749  0.25397406  0.87648888  1
  Zn  Zn115  1  0.49825920  0.87443145  0.37550226  1
  Zn  Zn116  1  0.24789893  0.74964826  0.49966969  1
  Zn  Zn117  1  0.37435815  0.49984709  0.37471534  1
  Zn  Zn118  1  0.00115678  0.00075604  -0.00125103  1
  Zn  Zn119  1  0.75243138  0.37624843  0.62690669  1
  Zn  Zn120  1  0.37433996  -0.00143830  0.87423479  1
  Zn  Zn121  1  0.12667828  0.74883004  0.87181367  1
  Zn  Zn122  1  0.18636870  0.18850208  0.18875779  1
  Zn  Zn123  1  0.18600727  0.18870882  0.68860817  1
  Zn  Zn124  1  0.18386196  0.68458922  0.18329790  1
  Zn  Zn125  1  0.18796263  0.68451448  0.68716575  1
  Zn  Zn126  1  0.68614983  0.19093241  0.18744057  1
  Zn  Zn127  1  0.68755987  0.18661612  0.68837479  1
  Zn  Zn128  1  0.68639497  0.68909312  0.18728739  1
  Zn  Zn129  1  0.68817878  0.68530474  0.68719884  1
  Zn  Zn130  1  0.30978558  0.31172419  0.31277886  1
  Zn  Zn131  1  0.31414929  0.31750424  0.81243574  1
  Zn  Zn132  1  0.31045204  0.81156674  0.31234615  1
  Zn  Zn133  1  0.31349410  0.81426180  0.81079075  1
  Zn  Zn134  1  0.81094987  0.31029110  0.31090196  1
  Zn  Zn135  1  0.82030945  0.31914155  0.82042079  1
  Zn  Zn136  1  0.81236209  0.81214768  0.31264329  1
  Zn  Zn137  1  0.81396802  0.81167144  0.80933031  1
  Zn  Zn138  1  0.18912924  0.43715807  0.43731018  1
  Zn  Zn139  1  0.18692588  0.43564850  0.93682505  1
  Zn  Zn140  1  0.18311554  0.93456829  0.43750962  1
  Zn  Zn141  1  0.18551466  0.93872509  0.93693179  1
  Zn  Zn142  1  0.68760449  0.43649018  0.43753256  1
  Zn  Zn143  1  0.69058122  0.43780618  0.93989984  1
  Zn  Zn144  1  0.68301651  0.93639556  0.43776373  1
  Zn  Zn145  1  0.68660774  0.93904813  0.93710852  1
  Zn  Zn146  1  0.31385950  0.06221019  0.06284177  1
  Zn  Zn147  1  0.31122842  0.06165779  0.56354206  1
  Zn  Zn148  1  0.31247945  0.56158773  0.06017101  1
  Zn  Zn149  1  0.31144635  0.56352293  0.55855277  1
  Zn  Zn150  1  0.81308235  0.06348764  0.06205623  1
  Zn  Zn151  1  0.81311005  0.06587218  0.56619365  1
  Zn  Zn152  1  0.80653082  0.56138156  0.06387433  1
  Zn  Zn153  1  0.81183463  0.56407826  0.56169958  1
  Zn  Zn154  1  0.43756872  0.43909273  0.18969457  1
  Zn  Zn155  1  0.44203382  0.43402445  0.68843773  1
  Zn  Zn156  1  0.43624806  0.93621515  0.18666750  1
  Zn  Zn157  1  0.43709121  0.93557464  0.68814449  1
  Zn  Zn158  1  0.93768867  0.43768069  0.18740561  1
  Zn  Zn159  1  0.93697480  0.43638863  0.68364235  1
  Zn  Zn160  1  0.93599808  0.93868652  0.18964927  1
  Zn  Zn161  1  0.93843282  0.93889644  0.68641964  1
  Zn  Zn162  1  0.06200495  0.06365056  0.31237699  1
  Zn  Zn163  1  0.06373843  0.06343520  0.81168221  1
  Zn  Zn164  1  0.05918920  0.56223825  0.30397585  1
  Zn  Zn165  1  0.06485896  0.56427310  0.81292163  1
  Zn  Zn166  1  0.56192874  0.06158843  0.31382767  1
  Zn  Zn167  1  0.56371458  0.06395558  0.81297043  1
  Zn  Zn168  1  0.55945476  0.56212431  0.31454743  1
  Zn  Zn169  1  0.56412714  0.56185157  0.81221815  1
  Zn  Zn170  1  0.43666272  0.18612407  0.43810834  1
  Zn  Zn171  1  0.43747233  0.18843077  0.93847123  1
  Zn  Zn172  1  0.43595953  0.68775807  0.44053783  1
  Zn  Zn173  1  0.43816173  0.68776271  0.93724113  1
  Zn  Zn174  1  0.93633417  0.18283736  0.43771334  1
  Zn  Zn175  1  0.93875701  0.19148488  0.93701602  1
  Zn  Zn176  1  0.93617802  0.68479036  0.43568309  1
  Zn  Zn177  1  0.93699570  0.68989633  0.93455068  1
  Zn  Zn178  1  0.06712144  0.30819556  0.06617469  1
  Zn  Zn179  1  0.06105122  0.31353333  0.56187384  1
  Zn  Zn180  1  0.06027478  0.80879068  0.06171689  1
  Zn  Zn181  1  0.06323384  0.81120316  0.56171931  1
  Zn  Zn182  1  0.56757004  0.31156050  0.06348596  1
  Zn  Zn183  1  0.56412002  0.31203482  0.56516939  1
  Zn  Zn184  1  0.56172576  0.81391759  0.06227762  1
  Zn  Zn185  1  0.56178779  0.81282087  0.56278094  1
  O  O186  1  0.11563517  0.11908972  0.12737358  1
  O  O187  1  0.12024510  0.12030271  0.61959527  1
  O  O188  1  0.11759643  0.61523321  0.11591088  1
  O  O189  1  0.11828926  0.61629655  0.61479236  1
  O  O190  1  0.61754742  0.11861163  0.12605043  1
  O  O191  1  0.61792772  0.11798403  0.62507802  1
  O  O192  1  0.61903694  0.62370024  0.11920297  1
  O  O193  1  0.61944123  0.61869677  0.61934250  1
  O  O194  1  0.38018493  0.37481987  0.38194643  1
  O  O195  1  0.38487076  0.38452857  0.87857188  1
  O  O196  1  0.37375306  0.88042840  0.38165579  1
  O  O197  1  0.38451508  0.87858261  0.87588005  1
  O  O198  1  0.86539267  0.38488763  0.38328719  1
  O  O199  1  0.89228711  0.38600038  0.88047691  1
  O  O200  1  0.87884597  0.87853096  0.37074480  1
  O  O201  1  0.87994783  0.88002508  0.87826666  1
  O  O202  1  0.25238827  0.00454792  0.36968752  1
  O  O203  1  0.25302421  0.01228570  0.87432532  1
  O  O204  1  0.25074365  0.51274864  0.37288129  1
  O  O205  1  0.26940873  0.49639020  0.87910372  1
  O  O206  1  0.74727249  0.01193823  0.37615561  1
  O  O207  1  0.75552355  0.00624622  0.86959063  1
  O  O208  1  0.75837338  0.51137689  0.38290682  1
  O  O209  1  0.75781465  0.50672611  0.87459857  1
  O  O210  1  0.24178237  0.49130623  0.12493784  1
  O  O211  1  0.23945726  0.49496906  0.61850743  1
  O  O212  1  0.24436680  0.99483567  0.13053860  1
  O  O213  1  0.24252644  0.99313992  0.62615218  1
  O  O214  1  0.74459838  0.48418213  0.12077279  1
  O  O215  1  0.74377460  0.50060085  0.63184337  1
  O  O216  1  0.74252354  0.99409120  0.12536959  1
  O  O217  1  0.74452720  0.99925340  0.63106352  1
  O  O218  1  0.01549143  0.37152861  0.24388227  1
  O  O219  1  0.00065990  0.36634970  0.75121421  1
  O  O220  1  0.00579945  0.86465731  0.24589835  1
  O  O221  1  0.00492971  0.86991288  0.75292475  1
  O  O222  1  0.50575391  0.36907659  0.25561912  1
  O  O223  1  0.51108241  0.37260785  0.75843226  1
  O  O224  1  0.50499633  0.86727603  0.25088971  1
  O  O225  1  0.50714161  0.86809264  0.75486210  1
  O  O226  1  0.49398843  0.12961744  0.24671508  1
  O  O227  1  0.49047449  0.12705065  0.74555386  1
  O  O228  1  0.49467776  0.63056459  0.24495300  1
  O  O229  1  0.50827899  0.63293058  0.74118691  1
  O  O230  1  0.99179371  0.12507854  0.24257910  1
  O  O231  1  0.99623006  0.13543020  0.74719188  1
  O  O232  1  0.98989914  0.62693492  0.23624690  1
  O  O233  1  0.99649872  0.63002104  0.74249937  1
  O  O234  1  0.36453168  0.25302917  0.00368011  1
  O  O235  1  0.36877353  0.25444359  0.50555104  1
  O  O236  1  0.36598702  0.74940326  0.00583242  1
  O  O237  1  0.37324559  0.75643688  0.51103354  1
  O  O238  1  0.86150134  0.24809708  0.00281365  1
  O  O239  1  0.86766443  0.25771689  0.49615479  1
  O  O240  1  0.86768268  0.75583383  0.00435416  1
  O  O241  1  0.86521682  0.74012525  0.50859313  1
  O  O242  1  0.12957018  0.24637258  0.49342710  1
  O  O243  1  0.14018076  0.24513048  0.99924945  1
  O  O244  1  0.12303076  0.74116833  0.49109434  1
  O  O245  1  0.13742830  0.74324407  1.00015913  1
  O  O246  1  0.63479264  0.24912017  0.49488294  1
  O  O247  1  0.63631919  0.24786143  0.99373929  1
  O  O248  1  0.63117496  0.74296832  0.49576757  1
  O  O249  1  0.62940082  0.74624602  0.99348289  1
  O  O250  1  0.49921396  0.24389106  0.13133844  1
  O  O251  1  0.49319275  0.24355362  0.62711515  1
  O  O252  1  0.49444419  0.74452329  0.12954523  1
  O  O253  1  0.49272158  0.74423198  0.62921139  1
  O  O254  1  0.99887022  0.23920491  0.12920961  1
  O  O255  1  0.99890378  0.24548671  0.63307187  1
  O  O256  1  0.98945572  0.73911203  0.12507352  1
  O  O257  1  0.99250204  0.74363210  0.62635103  1
  O  O258  1  0.01460034  0.24380496  0.37568605  1
  O  O259  1  0.00090046  0.26317914  0.86858043  1
  O  O260  1  0.00435733  0.74442585  0.36410030  1
  O  O261  1  0.00141679  0.75781575  0.86457087  1
  O  O262  1  0.50468263  0.25461252  0.37127464  1
  O  O263  1  0.50852027  0.25660403  0.87633481  1
  O  O264  1  0.50570585  0.74931192  0.36928735  1
  O  O265  1  0.50625271  0.75424404  0.87005003  1
  O  O266  1  0.24393024  0.13020865  0.49527427  1
  O  O267  1  0.25285049  0.13250474  0.99176767  1
  O  O268  1  0.24173023  0.62648713  0.48807800  1
  O  O269  1  0.24307389  0.63472740  0.99984790  1
  O  O270  1  0.75117270  0.13421038  0.49175636  1
  O  O271  1  0.74810856  0.13370584  0.99463382  1
  O  O272  1  0.74387635  0.63261255  0.49064686  1
  O  O273  1  0.74223471  0.63207801  0.99536094  1
  O  O274  1  0.25061900  0.36666397  0.00950815  1
  O  O275  1  0.25621314  0.36902666  0.50490521  1
  O  O276  1  0.25004274  0.86590813  0.00508397  1
  O  O277  1  0.25434315  0.87237762  0.50636652  1
  O  O278  1  0.74373016  0.36702410  0.01623444  1
  O  O279  1  0.75719892  0.36512037  0.49945079  1
  O  O280  1  0.75461474  0.86988538  0.00399916  1
  O  O281  1  0.74399618  0.85884641  0.50057983  1
  O  O282  1  0.12888404  0.49216543  0.24095488  1
  O  O283  1  0.11872571  0.49873783  0.73050598  1
  O  O284  1  0.12936982  0.99399023  0.24538449  1
  O  O285  1  0.12496618  0.99370351  0.74135747  1
  O  O286  1  0.61872397  0.48594035  0.25107736  1
  O  O287  1  0.63485832  0.49453118  0.74759334  1
  O  O288  1  0.62498580  0.99269221  0.24436451  1
  O  O289  1  0.63062270  0.99504337  0.74552372  1
  O  O290  1  0.36805435  0.00403351  0.25572811  1
  O  O291  1  0.37279684  0.01341247  0.75019146  1
  O  O292  1  0.37232278  0.50898239  0.25403872  1
  O  O293  1  0.38086787  0.49602733  0.76503158  1
  O  O294  1  0.87036822  0.01294332  0.25273287  1
  O  O295  1  0.87054566  0.00652808  0.75475057  1
  O  O296  1  0.88089075  0.50508807  0.26322282  1
  O  O297  1  0.86957016  0.50865978  0.74233039  1
  O  O298  1  0.13343644  0.36589940  0.36553889  1
  O  O299  1  0.11495477  0.37420178  0.87152848  1
  O  O300  1  0.11919948  0.86607217  0.36716550  1
  O  O301  1  0.11862905  0.87374259  0.86685509  1
  O  O302  1  0.62004840  0.36972959  0.36882088  1
  O  O303  1  0.62284860  0.37075977  0.87125853  1
  O  O304  1  0.62200282  0.86693260  0.36799994  1
  O  O305  1  0.62055819  0.86896552  0.86883688  1
  O  O306  1  0.38147538  0.12550608  0.13357767  1
  O  O307  1  0.37788174  0.13033736  0.63260001  1
  O  O308  1  0.37999364  0.63029632  0.13000534  1
  O  O309  1  0.38113487  0.63568820  0.61696304  1
  O  O310  1  0.88234508  0.12577748  0.13358793  1
  O  O311  1  0.88241141  0.12976601  0.63386365  1
  O  O312  1  0.86942661  0.63382486  0.13457159  1
  O  O313  1  0.88031858  0.63280547  0.62909348  1
  O  O314  1  0.25074617  0.25761116  0.11840297  1
  O  O315  1  0.25434344  0.25529388  0.61915081  1
  O  O316  1  0.25355651  0.75396912  0.11697035  1
  O  O317  1  0.25790632  0.75448225  0.62298340  1
  O  O318  1  0.75032570  0.25885155  0.11829273  1
  O  O319  1  0.75244683  0.24953525  0.61269337  1
  O  O320  1  0.75361502  0.75670011  0.11852901  1
  O  O321  1  0.75755392  0.74755293  0.61620225  1
  O  O322  1  0.24130888  0.24355107  0.38129753  1
  O  O323  1  0.25134526  0.24446726  0.88295736  1
  O  O324  1  0.24122975  0.73920068  0.37432993  1
  O  O325  1  0.25081701  0.75003957  0.88543561  1
  O  O326  1  0.74474687  0.24217574  0.38310846  1
  O  O327  1  0.74847439  0.24823829  0.88355502  1
  O  O328  1  0.74432388  0.74028072  0.38201126  1
  O  O329  1  0.74567462  0.74408990  0.87944342  1
  O  O330  1  0.00055999  0.12502614  0.01152200  1
  O  O331  1  0.00578254  0.11799529  0.50649774  1
  O  O332  1  0.01938226  0.64061269  -0.00104152  1
  O  O333  1  0.00282139  0.61434740  0.50312103  1
  O  O334  1  0.50138723  0.11614630  0.00600799  1
  O  O335  1  0.50014467  0.11809129  0.50740117  1
  O  O336  1  0.50514768  0.61890484  0.00549545  1
  O  O337  1  0.50579905  0.61858943  0.50631565  1
  O  O338  1  0.49579339  0.37829110  0.49570910  1
  O  O339  1  0.50293916  0.38422471  0.99632522  1
  O  O340  1  0.49208498  0.88160445  0.49914350  1
  O  O341  1  0.49929573  0.88366667  0.99391802  1
  O  O342  1  0.98989032  0.38431819  0.50079040  1
  O  O343  1  1.00788618  0.37107148  0.99067730  1
  O  O344  1  1.00492975  0.89074764  0.49992163  1
  O  O345  1  0.99269910  0.87459202  0.99256963  1
  O  O346  1  0.49805043  0.49264213  0.38396830  1
  O  O347  1  0.49428610  0.49630589  0.88287645  1
  O  O348  1  0.49137964  0.99885322  0.38209555  1
  O  O349  1  0.50129258  0.99545308  0.88397591  1
  O  O350  1  0.98931242  0.50747393  0.38414918  1
  O  O351  1  1.00534955  0.48720447  0.87409434  1
  O  O352  1  1.00029377  1.00274532  0.39043881  1
  O  O353  1  0.99349671  0.99430274  0.87483891  1
  O  O354  1  0.00455050  0.00957974  0.12470406  1
  O  O355  1  0.00488703  0.00587449  0.61582355  1
  O  O356  1  0.01485199  0.49984186  0.12909744  1
  O  O357  1  0.00554918  0.50359136  0.61142972  1
  O  O358  1  0.50436735  0.00389932  0.11796897  1
  O  O359  1  0.50404882  0.00522405  0.62089743  1
  O  O360  1  0.50121429  0.50586231  0.11629759  1
  O  O361  1  0.50712759  0.50361985  0.62068448  1
  O  O362  1  0.24130772  0.37462002  0.24047986  1
  O  O363  1  0.24806312  0.38306882  0.74098481  1
  O  O364  1  0.24210258  0.87926937  0.24412829  1
  O  O365  1  0.24297424  0.87716154  0.74329206  1
  O  O366  1  0.73793117  0.36576975  0.23885875  1
  O  O367  1  0.74844331  0.38154903  0.75117763  1
  O  O368  1  0.74159538  0.87485904  0.24223866  1
  O  O369  1  0.74415325  0.88214941  0.74841284  1
  O  O370  1  0.25395074  0.11858404  0.25504937  1
  O  O371  1  0.25790634  0.12656192  0.75814152  1
  O  O372  1  0.25406592  0.62527805  0.25666429  1
  O  O373  1  0.24503403  0.61602874  0.75236420  1
  O  O374  1  0.75579930  0.12662603  0.25935497  1
  O  O375  1  0.75690226  0.12041910  0.75619066  1
  O  O376  1  0.75363679  0.63114332  0.26319096  1
  O  O377  1  0.75528040  0.61961781  0.75718811  1
  O  O378  1  0.36753062  0.11854126  0.37043199  1
  O  O379  1  0.36733597  0.12591121  0.86637986  1
  O  O380  1  0.36452480  0.62683168  0.37016983  1
  O  O381  1  0.37677413  0.60963911  0.87952204  1
  O  O382  1  0.86490765  0.12212394  0.36834279  1
  O  O383  1  0.87077730  0.12030816  0.87030780  1
  O  O384  1  0.86574589  0.61731805  0.37023364  1
  O  O385  1  0.87126482  0.62251906  0.86779518  1
  O  O386  1  0.13409408  0.38069575  0.13106467  1
  O  O387  1  0.13074999  0.38430909  0.62071488  1
  O  O388  1  0.12886091  0.87925987  0.12977115  1
  O  O389  1  0.12980327  0.87898384  0.62914418  1
  O  O390  1  0.63249912  0.37611858  0.13526082  1
  O  O391  1  0.62874383  0.38126451  0.63297999  1
  O  O392  1  0.62952627  0.87969302  0.12998601  1
  O  O393  1  0.62672577  0.88135995  0.63171096  1
  O  O394  1  0.12525717  0.25762267  0.25916856  1
  O  O395  1  0.11382617  0.25299981  0.75205655  1
  O  O396  1  0.11758340  0.75233248  0.25091959  1
  O  O397  1  0.11711059  0.75662941  0.74748801  1
  O  O398  1  0.61739740  0.25842316  0.25677360  1
  O  O399  1  0.62706099  0.25691145  0.75795067  1
  O  O400  1  0.61827030  0.75430795  0.25540808  1
  O  O401  1  0.62105720  0.75481299  0.75472437  1
  O  O402  1  0.38043569  0.24256737  0.25034881  1
  O  O403  1  0.37619330  0.24081352  0.74451821  1
  O  O404  1  0.37940612  0.74459790  0.24402724  1
  O  O405  1  0.38237579  0.75535471  0.73672247  1
  O  O406  1  0.87757312  0.23722159  0.25062257  1
  O  O407  1  0.88517889  0.24677347  0.75137973  1
  O  O408  1  0.87933358  0.74349443  0.24385744  1
  O  O409  1  0.87984065  0.74135559  0.74071283  1
  O  O410  1  0.38260703  0.49224895  0.49939111  1
  O  O411  1  0.38823534  0.49871140  0.99322218  1
  O  O412  1  0.37835371  0.99452261  0.49567137  1
  O  O413  1  0.38805069  0.99776882  0.99898983  1
  O  O414  1  0.88025199  0.49397707  0.49134548  1
  O  O415  1  0.90620401  0.54063705  1.02105526  1
  O  O416  1  0.88992850  1.00636791  0.50205284  1
  O  O417  1  0.87600379  0.99306658  0.99247986  1
  O  O418  1  0.12206945  0.00361003  0.00901947  1
  O  O419  1  0.11613643  0.00641795  0.50469653  1
  O  O420  1  0.13418520  0.51038632  0.00942899  1
  O  O421  1  0.11584781  0.50258883  0.50312159  1
  O  O422  1  0.61429073  0.00115184  0.00631394  1
  O  O423  1  0.61753950  0.00140368  0.50756025  1
  O  O424  1  0.61401579  0.50726854  -0.00074451  1
  O  O425  1  0.62031896  0.50401723  0.50592480  1
  O  O426  1  0.36333303  0.37510356  0.12481207  1
  O  O427  1  0.37065031  0.36969696  0.62005302  1
  O  O428  1  0.36634738  0.86769365  0.12319374  1
  O  O429  1  0.36938076  0.86698291  0.62051245  1
  O  O430  1  0.85836155  0.37258360  0.13714562  1
  O  O431  1  0.87141253  0.37315655  0.60871157  1
  O  O432  1  0.86882323  0.87079009  0.11944386  1
  O  O433  1  0.87367091  0.85875713  0.63040017  1
  O  O434  1  0.13078635  0.13319324  0.37923961  1
  O  O435  1  0.13736299  0.12898974  0.87550955  1
  O  O436  1  0.13019144  0.62761508  0.37458746  1
  O  O437  1  0.13097364  0.62663379  0.88463778  1
  O  O438  1  0.63401013  0.13115515  0.37630912  1
  O  O439  1  0.63401070  0.13243821  0.87536841  1
  O  O440  1  0.63096713  0.62847356  0.37962273  1
  O  O441  1  0.63125758  0.63114244  0.88042558  1
