# generated using pymatgen
data_V93Zn93O256
_symmetry_space_group_name_H-M   'P 1'
_cell_length_a   17.04373699
_cell_length_b   17.04370059
_cell_length_c   17.04427656
_cell_angle_alpha   89.97960118
_cell_angle_beta   89.97913693
_cell_angle_gamma   89.97699828
_symmetry_Int_Tables_number   1
_chemical_formula_structural   V93Zn93O256
_chemical_formula_sum   'V93 Zn93 O256'
_cell_volume   4951.16273775
_cell_formula_units_Z   1
loop_
 _symmetry_equiv_pos_site_id
 _symmetry_equiv_pos_as_xyz
  1  'x, y, z'
loop_
 _atom_site_type_symbol
 _atom_site_label
 _atom_site_symmetry_multiplicity
 _atom_site_fract_x
 _atom_site_fract_y
 _atom_site_fract_z
 _atom_site_occupancy
  V  V0  1  0.62616958  0.12875701  -0.00057031  1
  V  V1  1  0.75035273  0.12472915  0.87478186  1
  V  V2  1  0.12485022  0.37422367  0.75065618  1
  V  V3  1  0.24859320  0.87490079  0.12437311  1
  V  V4  1  0.25115761  0.25019636  -0.00051646  1
  V  V5  1  0.12368149  0.49929631  0.62564285  1
  V  V6  1  0.74981293  0.25027513  0.50078489  1
  V  V7  1  0.37467250  0.62017437  0.75337653  1
  V  V8  1  0.37700983  -0.00048196  0.37391214  1
  V  V9  1  0.12557910  0.12395302  0.49954121  1
  V  V10  1  0.37921666  -0.00394077  0.87357295  1
  V  V11  1  0.62597997  -0.00175703  0.13019176  1
  V  V12  1  0.74838840  0.50141086  0.75065220  1
  V  V13  1  0.87020731  0.25580893  0.11920127  1
  V  V14  1  0.62450817  0.50116659  0.62407200  1
  V  V15  1  0.12149146  0.62395030  -0.00147389  1
  V  V16  1  0.25037060  0.74978428  0.50096586  1
  V  V17  1  0.37525044  0.75003854  0.12409246  1
  V  V18  1  0.62309024  0.37497175  0.74923032  1
  V  V19  1  0.00013452  0.24905341  0.25101350  1
  V  V20  1  0.50398710  0.75661004  0.24910116  1
  V  V21  1  0.62570601  0.12433479  0.50054404  1
  V  V22  1  0.12486134  0.37540051  0.24905763  1
  V  V23  1  0.24906489  0.37439992  0.62417564  1
  V  V24  1  0.50120111  0.25043441  0.75076884  1
  V  V25  1  0.37624403  0.25070740  0.12237859  1
  V  V26  1  0.24885044  0.50077725  0.24869312  1
  V  V27  1  0.87471030  0.37592381  0.50097328  1
  V  V28  1  -0.00046852  0.12296723  0.12517871  1
  V  V29  1  0.62471493  0.25131894  0.37375333  1
  V  V30  1  0.00520092  0.87208910  0.87629550  1
  V  V31  1  0.37420248  0.37930156  -0.00747441  1
  V  V32  1  -0.00461189  0.37483572  0.88247978  1
  V  V33  1  0.75146126  -0.00767591  0.74667183  1
  V  V34  1  0.12637866  -0.00126259  0.62585490  1
  V  V35  1  0.25161863  -0.00143796  0.24776290  1
  V  V36  1  0.49852879  0.62608990  0.62512940  1
  V  V37  1  0.00037929  -0.00156464  0.50126526  1
  V  V38  1  0.24697972  0.62082114  0.87436333  1
  V  V39  1  0.87526353  0.62666321  0.75007682  1
  V  V40  1  0.25074666  0.12366467  0.37317617  1
  V  V41  1  0.87544365  0.87472165  0.00173696  1
  V  V42  1  0.74959982  0.37507184  0.62606410  1
  V  V43  1  0.12447822  0.62399858  0.50189428  1
  V  V44  1  0.37790358  0.87435225  -0.00540297  1
  V  V45  1  0.87603103  -0.00117787  0.87552241  1
  V  V46  1  0.12517554  0.24871754  0.37382070  1
  V  V47  1  0.37613936  0.87484966  0.49873489  1
  V  V48  1  0.50226815  -0.00493554  -0.00610557  1
  V  V49  1  0.12547137  0.12344256  0.00078896  1
  V  V50  1  0.74968974  0.75336519  0.50827107  1
  V  V51  1  0.37517818  0.37572742  0.49769585  1
  V  V52  1  0.87208295  0.87400771  0.50837618  1
  V  V53  1  0.00092830  0.12473825  0.62604335  1
  V  V54  1  0.50052132  0.37643132  0.37252056  1
  V  V55  1  0.62884246  -0.00577996  0.62453711  1
  V  V56  1  0.37487248  0.62531202  0.24981384  1
  V  V57  1  0.87329841  0.12187482  0.25186611  1
  V  V58  1  0.74584129  0.62859689  0.87673237  1
  V  V59  1  0.12398787  0.24893327  0.87536447  1
  V  V60  1  0.87534491  0.24902343  0.62611351  1
  V  V61  1  0.24504559  0.74973341  -0.00738433  1
  V  V62  1  0.49483679  0.50231277  -0.00625585  1
  V  V63  1  0.62121227  0.87568723  0.75727522  1
  V  V64  1  0.25224839  -0.00158581  0.74976217  1
  V  V65  1  0.62538464  0.75690710  0.37261372  1
  V  V66  1  0.25106455  0.12412453  0.87456002  1
  V  V67  1  0.37647157  0.12440650  0.74879853  1
  V  V68  1  0.50134743  -0.00069926  0.49938811  1
  V  V69  1  0.00544422  0.74880849  0.75521825  1
  V  V70  1  0.25048046  0.24943890  0.49866647  1
  V  V71  1  0.62243011  0.50122866  0.12396128  1
  V  V72  1  0.00134397  -0.00158109  0.00084944  1
  V  V73  1  0.37598363  0.12657744  0.24723978  1
  V  V74  1  0.87783356  0.62646455  0.25062139  1
  V  V75  1  0.25237992  0.49853183  0.75240255  1
  V  V76  1  0.74724124  0.87538347  0.13445691  1
  V  V77  1  -0.00052298  0.24829349  0.75043189  1
  V  V78  1  0.74900348  0.75154608  0.00144014  1
  V  V79  1  0.12544948  0.74917530  0.37476686  1
  V  V80  1  0.87244989  0.49551574  0.88327734  1
  V  V81  1  0.49866425  0.75363517  0.75596570  1
  V  V82  1  0.87421888  0.49977198  0.37705094  1
  V  V83  1  0.62430568  0.62756225  0.49994557  1
  V  V84  1  0.49943696  0.50093585  0.49804583  1
  V  V85  1  0.50009509  0.25212919  0.24779621  1
  V  V86  1  0.37510033  0.24929180  0.62428296  1
  V  V87  1  0.74884586  0.49882271  0.25045049  1
  V  V88  1  0.12686309  0.87107562  0.75419000  1
  V  V89  1  0.75122953  0.12547366  0.37509634  1
  V  V90  1  0.25089008  0.87406873  0.62451777  1
  V  V91  1  -0.00115678  0.49964485  0.50297829  1
  V  V92  1  -0.00012516  0.87400605  0.37575127  1
  Zn  Zn93  1  0.49955100  0.62608213  0.12325666  1
  Zn  Zn94  1  0.00047246  0.62555600  0.12494572  1
  Zn  Zn95  1  0.50134686  0.12446849  0.62390617  1
  Zn  Zn96  1  0.50196401  0.12585752  0.12312796  1
  Zn  Zn97  1  0.87297816  -0.00147621  0.37724196  1
  Zn  Zn98  1  0.49701554  0.38115745  0.87110851  1
  Zn  Zn99  1  0.62642897  0.25428398  0.87531320  1
  Zn  Zn100  1  0.61874413  0.62809248  0.00021209  1
  Zn  Zn101  1  0.61809727  0.75754174  0.88021636  1
  Zn  Zn102  1  0.75443927  0.26136499  -0.00827291  1
  Zn  Zn103  1  0.24913549  0.37573155  0.12228765  1
  Zn  Zn104  1  0.11982554  0.50016578  0.12436145  1
  Zn  Zn105  1  0.12380863  0.87482429  0.24959951  1
  Zn  Zn106  1  -0.00086251  0.37414860  0.37661489  1
  Zn  Zn107  1  0.75532637  0.38406466  0.11065746  1
  Zn  Zn108  1  0.87761428  0.75055510  0.12811312  1
  Zn  Zn109  1  0.12478380  -0.00085311  0.12688252  1
  Zn  Zn110  1  0.74969030  0.62652952  0.37691315  1
  Zn  Zn111  1  0.87528309  0.12252422  0.74971418  1
  Zn  Zn112  1  -0.00357489  0.49697051  0.00445071  1
  Zn  Zn113  1  -0.00052215  0.62619129  0.62744897  1
  Zn  Zn114  1  0.37500307  0.50077667  0.37399364  1
  Zn  Zn115  1  0.37583876  0.75049319  0.62430419  1
  Zn  Zn116  1  0.74404540  -0.00435513  0.25527872  1
  Zn  Zn117  1  0.87200203  0.75422314  0.63017296  1
  Zn  Zn118  1  0.50408074  0.87839073  0.36989963  1
  Zn  Zn119  1  0.62715366  0.37412532  0.24675681  1
  Zn  Zn120  1  0.25037070  0.62404471  0.37670260  1
  Zn  Zn121  1  0.00101927  0.74954039  0.24795150  1
  Zn  Zn122  1  0.18894359  0.18802571  0.18520733  1
  Zn  Zn123  1  0.18796117  0.18692404  0.68756198  1
  Zn  Zn124  1  0.18703076  0.68710011  0.18514896  1
  Zn  Zn125  1  0.18708373  0.68689826  0.68659228  1
  Zn  Zn126  1  0.68843641  0.18664434  0.18722515  1
  Zn  Zn127  1  0.68706551  0.18396952  0.68734097  1
  Zn  Zn128  1  0.68766578  0.68508383  0.18837446  1
  Zn  Zn129  1  0.68390080  0.68978964  0.68858320  1
  Zn  Zn130  1  0.31302254  0.31352923  0.31136106  1
  Zn  Zn131  1  0.31266076  0.31128054  0.81270058  1
  Zn  Zn132  1  0.31388988  0.81244046  0.31300422  1
  Zn  Zn133  1  0.31439932  0.80990467  0.81251823  1
  Zn  Zn134  1  0.81288028  0.31362135  0.31097038  1
  Zn  Zn135  1  0.81272890  0.31249916  0.81153716  1
  Zn  Zn136  1  0.81287911  0.81000718  0.31907865  1
  Zn  Zn137  1  0.81412643  0.81370333  0.81490460  1
  Zn  Zn138  1  0.18698503  0.43816882  0.43488087  1
  Zn  Zn139  1  0.18617167  0.43913429  0.93686547  1
  Zn  Zn140  1  0.18875943  0.93665872  0.43678077  1
  Zn  Zn141  1  0.18837326  0.93769170  0.93660173  1
  Zn  Zn142  1  0.68679718  0.43779177  0.43620503  1
  Zn  Zn143  1  0.68214688  0.43763272  0.93817544  1
  Zn  Zn144  1  0.69006493  0.93674074  0.43753002  1
  Zn  Zn145  1  0.68879332  0.93869142  0.93931155  1
  Zn  Zn146  1  0.31485386  0.06224723  0.06171354  1
  Zn  Zn147  1  0.31419446  0.06180881  0.56206966  1
  Zn  Zn148  1  0.31026341  0.56169719  0.06425760  1
  Zn  Zn149  1  0.31229294  0.56295759  0.56477527  1
  Zn  Zn150  1  0.81216236  0.06244103  0.06348089  1
  Zn  Zn151  1  0.81377063  0.06194345  0.56281877  1
  Zn  Zn152  1  0.81083680  0.56670352  0.06562428  1
  Zn  Zn153  1  0.81043083  0.56486812  0.56310876  1
  Zn  Zn154  1  0.43659003  0.43665981  0.18233577  1
  Zn  Zn155  1  0.43640480  0.43780749  0.68449117  1
  Zn  Zn156  1  0.43804812  0.93879762  0.18174602  1
  Zn  Zn157  1  0.44007616  0.93661114  0.68434469  1
  Zn  Zn158  1  0.93971996  0.43969506  0.18830510  1
  Zn  Zn159  1  0.93685370  0.43755090  0.69192784  1
  Zn  Zn160  1  0.93575013  0.93611238  0.18774790  1
  Zn  Zn161  1  0.94010249  0.93664097  0.68967912  1
  Zn  Zn162  1  0.06324399  0.05956443  0.31135924  1
  Zn  Zn163  1  0.06379277  0.06007558  0.81300145  1
  Zn  Zn164  1  0.06037706  0.56129250  0.31616953  1
  Zn  Zn165  1  0.06310147  0.56057648  0.81656979  1
  Zn  Zn166  1  0.56110539  0.06679989  0.31315434  1
  Zn  Zn167  1  0.56382174  0.06385038  0.81197033  1
  Zn  Zn168  1  0.56280159  0.56757556  0.31299587  1
  Zn  Zn169  1  0.56163045  0.56470558  0.81228730  1
  Zn  Zn170  1  0.43907204  0.18704587  0.43574808  1
  Zn  Zn171  1  0.43872285  0.18640926  0.93628404  1
  Zn  Zn172  1  0.43807693  0.68924184  0.43455203  1
  Zn  Zn173  1  0.43233301  0.68517423  0.93632946  1
  Zn  Zn174  1  0.93829198  0.18810572  0.43819665  1
  Zn  Zn175  1  0.93800648  0.18485663  0.93756586  1
  Zn  Zn176  1  0.93682346  0.68661950  0.43862507  1
  Zn  Zn177  1  0.93524886  0.68815593  0.93687551  1
  Zn  Zn178  1  0.06157523  0.30934254  0.06483341  1
  Zn  Zn179  1  0.06193148  0.31219135  0.56209117  1
  Zn  Zn180  1  0.06234896  0.80825486  0.06352790  1
  Zn  Zn181  1  0.06057031  0.80950313  0.56704819  1
  Zn  Zn182  1  0.56244668  0.31736964  0.06170205  1
  Zn  Zn183  1  0.56175421  0.31305559  0.56187550  1
  Zn  Zn184  1  0.56369066  0.81440977  0.06531676  1
  Zn  Zn185  1  0.56202574  0.81404869  0.56533995  1
  O  O186  1  0.11782924  0.12452206  0.11844060  1
  O  O187  1  0.12133151  0.11913759  0.61922160  1
  O  O188  1  0.12493832  0.62337306  0.11231810  1
  O  O189  1  0.12345799  0.61637071  0.62010344  1
  O  O190  1  0.62812849  0.11741918  0.11316777  1
  O  O191  1  0.62436305  0.11399939  0.61849757  1
  O  O192  1  0.62284383  0.61381774  0.12260325  1
  O  O193  1  0.61870066  0.61983963  0.62064767  1
  O  O194  1  0.38176040  0.37630241  0.38067099  1
  O  O195  1  0.37574722  0.37103170  0.88778780  1
  O  O196  1  0.37668588  0.88266201  0.38123962  1
  O  O197  1  0.36835224  0.88347538  0.88259107  1
  O  O198  1  0.87513920  0.38074176  0.38340093  1
  O  O199  1  0.88345939  0.38455357  0.86765744  1
  O  O200  1  0.88523762  0.87536563  0.38603565  1
  O  O201  1  0.88234224  0.88065953  0.88224709  1
  O  O202  1  0.25661803  0.00476713  0.36889618  1
  O  O203  1  0.25712161  0.00566791  0.86872605  1
  O  O204  1  0.25209362  0.50189965  0.36213063  1
  O  O205  1  0.24684235  0.51011014  0.86672480  1
  O  O206  1  0.75219824  0.00805374  0.37238191  1
  O  O207  1  0.75568870  0.00638400  0.86796078  1
  O  O208  1  0.75436823  0.50250051  0.36708787  1
  O  O209  1  0.75416479  0.50927672  0.86995065  1
  O  O210  1  0.24472192  0.49746610  0.13819110  1
  O  O211  1  0.24364714  0.49261455  0.63111014  1
  O  O212  1  0.25164051  0.98961152  0.12772703  1
  O  O213  1  0.24577791  0.99466173  0.63034464  1
  O  O214  1  0.74230771  0.50188458  0.13266755  1
  O  O215  1  0.74401016  0.49527441  0.63099483  1
  O  O216  1  0.74292597  0.99212688  0.12593327  1
  O  O217  1  0.74159293  1.00727672  0.63642212  1
  O  O218  1  0.00950036  0.36876488  0.25335637  1
  O  O219  1  0.00550108  0.36810251  0.75916080  1
  O  O220  1  0.00020704  0.87444066  0.26369053  1
  O  O221  1  0.00583886  0.86753585  0.75563430  1
  O  O222  1  0.50062548  0.36969334  0.25491181  1
  O  O223  1  0.50309928  0.36745233  0.74838623  1
  O  O224  1  0.49275526  0.86079102  0.24871878  1
  O  O225  1  0.50784999  0.86482482  0.74485630  1
  O  O226  1  0.49279502  0.13397021  0.24737103  1
  O  O227  1  0.49516325  0.13343508  0.74745508  1
  O  O228  1  0.48952934  0.63429543  0.24757244  1
  O  O229  1  0.49236743  0.63004633  0.74533635  1
  O  O230  1  0.99293016  0.12868326  0.24625055  1
  O  O231  1  1.00012042  0.12980131  0.74442010  1
  O  O232  1  0.98872180  0.62503926  0.25181943  1
  O  O233  1  0.99133833  0.63131035  0.75565792  1
  O  O234  1  0.37096931  0.25624035  0.00243001  1
  O  O235  1  0.36975531  0.25464551  0.50366384  1
  O  O236  1  0.36640754  0.75433811  0.00406297  1
  O  O237  1  0.36874297  0.75585643  0.50038872  1
  O  O238  1  0.87557308  0.24229843  0.01637799  1
  O  O239  1  0.86957895  0.25527812  0.50650706  1
  O  O240  1  0.86341524  0.75526120  0.00129543  1
  O  O241  1  0.86736918  0.75574064  0.50301653  1
  O  O242  1  0.13071999  0.24386422  0.49485239  1
  O  O243  1  0.13017459  0.24350248  0.99437213  1
  O  O244  1  0.12907425  0.74494216  0.49435667  1
  O  O245  1  0.13849171  0.74099141  1.00379601  1
  O  O246  1  0.63078088  0.24517670  0.49523664  1
  O  O247  1  0.62501175  0.23850389  0.99801936  1
  O  O248  1  0.63069527  0.74789718  0.49540022  1
  O  O249  1  0.63441213  0.74989902  0.99789606  1
  O  O250  1  0.49469772  0.24923627  0.12970430  1
  O  O251  1  0.49378648  0.24932272  0.63372459  1
  O  O252  1  0.49456849  0.74885214  0.13192945  1
  O  O253  1  0.50016143  0.74295651  0.63609274  1
  O  O254  1  0.98992154  0.24300722  0.13100806  1
  O  O255  1  0.99577854  0.24432696  0.63027513  1
  O  O256  1  0.99567724  0.74608502  0.13070015  1
  O  O257  1  0.99495454  0.74615010  0.63987179  1
  O  O258  1  0.00743328  0.25066374  0.36922147  1
  O  O259  1  0.00344813  0.25508882  0.87052628  1
  O  O260  1  0.00920908  0.75864642  0.37761382  1
  O  O261  1  -0.00704047  0.75719626  0.86316078  1
  O  O262  1  0.50559546  0.25590673  0.36854028  1
  O  O263  1  0.50107573  0.25076709  0.85992785  1
  O  O264  1  0.50793742  0.75316967  0.36669060  1
  O  O265  1  0.50083460  0.74173459  0.86072337  1
  O  O266  1  0.24514722  0.12913995  0.49365385  1
  O  O267  1  0.24627246  0.12934357  0.99354737  1
  O  O268  1  0.24339876  0.63027438  0.49869132  1
  O  O269  1  0.24577110  0.62995530  0.99266255  1
  O  O270  1  0.74591893  0.13111088  0.49526625  1
  O  O271  1  0.74239920  0.12323232  0.98948715  1
  O  O272  1  0.74330745  0.63445487  0.49915829  1
  O  O273  1  0.74943124  0.63553433  0.99230914  1
  O  O274  1  0.25606382  0.36936870  -0.00046789  1
  O  O275  1  0.25414777  0.36895865  0.50378050  1
  O  O276  1  0.25450398  0.86780464  0.00516865  1
  O  O277  1  0.25552342  0.87058136  0.50547840  1
  O  O278  1  0.74877405  0.37299617  -0.00127259  1
  O  O279  1  0.75433955  0.37002128  0.50675999  1
  O  O280  1  0.75506037  0.86822892  0.00637646  1
  O  O281  1  0.76203099  0.86606042  0.49446327  1
  O  O282  1  0.13100676  0.49171096  0.25223086  1
  O  O283  1  0.13048871  0.49320626  0.74570310  1
  O  O284  1  0.13522017  0.99586130  0.24698377  1
  O  O285  1  0.13276396  0.99383731  0.74481583  1
  O  O286  1  0.63255724  0.50267771  0.24326016  1
  O  O287  1  0.62870016  0.49631403  0.74317495  1
  O  O288  1  0.62484969  1.01048657  0.23432660  1
  O  O289  1  0.63039121  0.99424393  0.74434483  1
  O  O290  1  0.37155128  0.00593843  0.25318609  1
  O  O291  1  0.37179618  0.00421364  0.75302110  1
  O  O292  1  0.36736333  0.50806718  0.24783884  1
  O  O293  1  0.36869571  0.51124458  0.74280620  1
  O  O294  1  0.87442967  0.01322823  0.25261285  1
  O  O295  1  0.86717401  -0.00113385  0.75541996  1
  O  O296  1  0.86789417  0.50609411  0.25614286  1
  O  O297  1  0.86834922  0.50808468  0.75997320  1
  O  O298  1  0.12488360  0.36733809  0.36467484  1
  O  O299  1  0.11723085  0.36848869  0.86928093  1
  O  O300  1  0.11674449  0.86618021  0.37734575  1
  O  O301  1  0.11823706  0.88022654  0.86698328  1
  O  O302  1  0.61883181  0.36838539  0.37249628  1
  O  O303  1  0.62009300  0.37296273  0.86343880  1
  O  O304  1  0.62401795  0.86186006  0.37866842  1
  O  O305  1  0.62700412  0.87718411  0.86221927  1
  O  O306  1  0.37738705  0.13213127  0.12945129  1
  O  O307  1  0.37628177  0.13144531  0.63072224  1
  O  O308  1  0.37293616  0.63204300  0.13524311  1
  O  O309  1  0.37960997  0.62798111  0.63531306  1
  O  O310  1  0.87890259  0.13185400  0.13396781  1
  O  O311  1  0.88281953  0.13078919  0.62643896  1
  O  O312  1  0.87508517  0.62762454  0.13816003  1
  O  O313  1  0.87465125  0.62355887  0.64153418  1
  O  O314  1  0.25716219  0.25107257  0.11619817  1
  O  O315  1  0.25434567  0.25459819  0.61847974  1
  O  O316  1  0.25583761  0.75754601  0.11639959  1
  O  O317  1  0.25041574  0.75692338  0.61844722  1
  O  O318  1  0.76391272  0.25018610  0.12490546  1
  O  O319  1  0.75480990  0.25435953  0.62074739  1
  O  O320  1  0.74823389  0.75799189  0.11722506  1
  O  O321  1  0.74977781  0.74727190  0.61267690  1
  O  O322  1  0.24542521  0.24314770  0.37920088  1
  O  O323  1  0.24386912  0.24297836  0.87904454  1
  O  O324  1  0.23973605  0.75088445  0.38177642  1
  O  O325  1  0.25477686  0.73954642  0.88551945  1
  O  O326  1  0.74525827  0.24607503  0.38098166  1
  O  O327  1  0.74955824  0.23698380  0.87270259  1
  O  O328  1  0.74121073  0.74798402  0.38575670  1
  O  O329  1  0.74957256  0.74421815  0.88429419  1
  O  O330  1  0.00573523  0.11811280  0.00480781  1
  O  O331  1  0.00645310  0.11943675  0.50564457  1
  O  O332  1  0.01202554  0.62660755  -0.00430941  1
  O  O333  1  0.00525423  0.61793087  0.50456126  1
  O  O334  1  0.51033746  0.11647005  -0.00039394  1
  O  O335  1  0.50772213  0.11838698  0.50002611  1
  O  O336  1  0.49743303  0.61779607  0.00266296  1
  O  O337  1  0.50388207  0.62121926  0.50534336  1
  O  O338  1  0.49479374  0.38055836  0.49380124  1
  O  O339  1  0.49137954  0.38364583  0.99651362  1
  O  O340  1  0.49397511  0.88206202  0.49881551  1
  O  O341  1  0.49440523  0.88654209  1.00509576  1
  O  O342  1  0.99235328  0.38053646  0.50014430  1
  O  O343  1  1.00549511  0.37344509  0.98545449  1
  O  O344  1  0.99416313  0.87797023  0.49412963  1
  O  O345  1  0.99607094  0.87836040  0.99622615  1
  O  O346  1  0.49942769  0.49519062  0.38074889  1
  O  O347  1  0.50416309  0.50127866  0.88861912  1
  O  O348  1  0.49584441  0.99845798  0.37992050  1
  O  O349  1  0.49539334  1.00570397  0.88565277  1
  O  O350  1  0.99262000  0.49623231  0.38495211  1
  O  O351  1  0.99019970  0.49077293  0.87600859  1
  O  O352  1  1.00118100  0.98993421  0.38316151  1
  O  O353  1  0.99515311  0.99368523  0.88085652  1
  O  O354  1  0.00152692  0.00454123  0.11910310  1
  O  O355  1  0.00760274  0.00462646  0.62129878  1
  O  O356  1  0.00140347  0.50511903  0.11981929  1
  O  O357  1  0.00614192  0.50031396  0.62184202  1
  O  O358  1  0.50873028  0.00289468  0.11384711  1
  O  O359  1  0.51080615  0.00301976  0.61845276  1
  O  O360  1  0.50720193  0.50249702  0.11651560  1
  O  O361  1  0.50557376  0.50560139  0.61806862  1
  O  O362  1  0.24175640  0.38199576  0.24873607  1
  O  O363  1  0.24513616  0.37759141  0.74462101  1
  O  O364  1  0.25285894  0.87899618  0.23870721  1
  O  O365  1  0.24703236  0.87904151  0.74505964  1
  O  O366  1  0.75047827  0.38944015  0.24643248  1
  O  O367  1  0.74407099  0.38121441  0.74448551  1
  O  O368  1  0.75812842  0.87598190  0.23845786  1
  O  O369  1  0.74267548  0.88635457  0.75504483  1
  O  O370  1  0.25614719  0.11974483  0.25394827  1
  O  O371  1  0.25580951  0.11887285  0.75462876  1
  O  O372  1  0.25714692  0.61821846  0.25104496  1
  O  O373  1  0.25499953  0.62071494  0.75557631  1
  O  O374  1  0.75955332  0.12500049  0.25666755  1
  O  O375  1  0.74955113  0.11345374  0.75967157  1
  O  O376  1  0.75824124  0.61478155  0.25282544  1
  O  O377  1  0.75566833  0.62328745  0.75792399  1
  O  O378  1  0.36954708  0.11982010  0.36831422  1
  O  O379  1  0.36986013  0.11824980  0.86824492  1
  O  O380  1  0.37237034  0.62417231  0.36201856  1
  O  O381  1  0.36262867  0.62771078  0.86190497  1
  O  O382  1  0.87053985  0.12553955  0.36750689  1
  O  O383  1  0.86647497  0.11755445  0.87435967  1
  O  O384  1  0.87284329  0.61785478  0.36851694  1
  O  O385  1  0.86502242  0.61908126  0.86733542  1
  O  O386  1  0.12583744  0.37402814  0.13803542  1
  O  O387  1  0.13031351  0.37840517  0.63084421  1
  O  O388  1  0.13853489  0.87429345  0.12568525  1
  O  O389  1  0.13080475  0.88039303  0.63185567  1
  O  O390  1  0.62759759  0.38957858  0.12715060  1
  O  O391  1  0.63054515  0.38145947  0.62884201  1
  O  O392  1  0.63628816  0.88692547  0.11919064  1
  O  O393  1  0.62356239  0.88805565  0.63534267  1
  O  O394  1  0.12144702  0.25600075  0.25408362  1
  O  O395  1  0.12010465  0.25406834  0.75570897  1
  O  O396  1  0.12529505  0.75160049  0.26309896  1
  O  O397  1  0.11449048  0.75516715  0.74600065  1
  O  O398  1  0.61967234  0.25100479  0.25519191  1
  O  O399  1  0.61607952  0.25506508  0.74683817  1
  O  O400  1  0.61524463  0.74151868  0.25944819  1
  O  O401  1  0.61779612  0.75931336  0.75210678  1
  O  O402  1  0.37928679  0.24608711  0.24302431  1
  O  O403  1  0.38138804  0.24519456  0.74407093  1
  O  O404  1  0.38047366  0.74280392  0.24508070  1
  O  O405  1  0.38224062  0.74120373  0.74704671  1
  O  O406  1  0.87945598  0.24007268  0.24350514  1
  O  O407  1  0.88141796  0.24693134  0.74310932  1
  O  O408  1  0.87464949  0.73748028  0.25369392  1
  O  O409  1  0.88059726  0.74220365  0.75061083  1
  O  O410  1  0.38087263  0.49405279  0.49910363  1
  O  O411  1  0.38257902  0.49088359  1.00821644  1
  O  O412  1  0.38083834  0.99625209  0.49342623  1
  O  O413  1  0.38424180  0.99594777  0.99445693  1
  O  O414  1  0.87782885  0.49548409  0.49779443  1
  O  O415  1  0.87427051  0.50931513  0.98565328  1
  O  O416  1  0.88138545  0.99176676  0.49952428  1
  O  O417  1  0.88140541  0.99485450  0.99548031  1
  O  O418  1  0.11980495  0.00620740  0.00209299  1
  O  O419  1  0.12129497  0.00460653  0.50606115  1
  O  O420  1  0.12313401  0.51045931  0.00125796  1
  O  O421  1  0.11995438  0.50337710  0.50544680  1
  O  O422  1  0.61955968  0.00730410  0.00557690  1
  O  O423  1  0.62309941  0.00327307  0.50722812  1
  O  O424  1  0.61439035  0.50408828  0.00799994  1
  O  O425  1  0.61980497  0.50642865  0.50474842  1
  O  O426  1  0.37213355  0.36782228  0.11253697  1
  O  O427  1  0.36795468  0.36903343  0.61780320  1
  O  O428  1  0.36589692  0.87052868  0.11574828  1
  O  O429  1  0.36817645  0.87434654  0.61725883  1
  O  O430  1  0.87654546  0.35797683  0.13256658  1
  O  O431  1  0.86875411  0.36985116  0.62196754  1
  O  O432  1  0.86488266  0.87434683  0.11860422  1
  O  O433  1  0.88176122  0.87391799  0.61248897  1
  O  O434  1  0.13101995  0.12868655  0.37984218  1
  O  O435  1  0.13066067  0.12942688  0.88020067  1
  O  O436  1  0.12492500  0.63483099  0.38218414  1
  O  O437  1  0.13672571  0.62273059  0.88305799  1
  O  O438  1  0.63134080  0.13166526  0.38089232  1
  O  O439  1  0.63475960  0.12455969  0.88256033  1
  O  O440  1  0.62520939  0.63717719  0.38350764  1
  O  O441  1  0.63804272  0.62819145  0.87492299  1
