# generated using pymatgen
data_V93Zn93O256
_symmetry_space_group_name_H-M   'P 1'
_cell_length_a   17.05101621
_cell_length_b   17.05121560
_cell_length_c   17.05140492
_cell_angle_alpha   89.96579873
_cell_angle_beta   89.98659946
_cell_angle_gamma   89.91572608
_symmetry_Int_Tables_number   1
_chemical_formula_structural   V93Zn93O256
_chemical_formula_sum   'V93 Zn93 O256'
_cell_volume   4957.52852775
_cell_formula_units_Z   1
loop_
 _symmetry_equiv_pos_site_id
 _symmetry_equiv_pos_as_xyz
  1  'x, y, z'
loop_
 _atom_site_type_symbol
 _atom_site_label
 _atom_site_symmetry_multiplicity
 _atom_site_fract_x
 _atom_site_fract_y
 _atom_site_fract_z
 _atom_site_occupancy
  V  V0  1  0.12644925  0.12539266  0.00046649  1
  V  V1  1  0.87673329  0.87280645  0.00406673  1
  V  V2  1  0.75543318  0.00263336  0.74942720  1
  V  V3  1  0.87498081  0.25025498  0.12454969  1
  V  V4  1  0.37652210  0.74938289  0.12463738  1
  V  V5  1  0.25321205  0.49783105  0.25390820  1
  V  V6  1  0.87342202  0.63286153  0.24748382  1
  V  V7  1  0.25085817  0.12462333  0.37455323  1
  V  V8  1  0.62231859  0.62989834  0.49350536  1
  V  V9  1  0.37545211  0.00047809  0.37304493  1
  V  V10  1  0.12550360  0.50003081  0.12510941  1
  V  V11  1  0.24994088  0.50077751  0.75107467  1
  V  V12  1  0.50017689  0.24694843  0.24963203  1
  V  V13  1  0.62579475  0.00015444  0.12345453  1
  V  V14  1  0.25090965  0.87531217  0.62449006  1
  V  V15  1  0.25092765  0.37453600  0.12472365  1
  V  V16  1  0.12560843  0.87250746  0.25114498  1
  V  V17  1  0.37312550  0.75026259  0.62590144  1
  V  V18  1  0.00009172  0.50043439  -0.00040104  1
  V  V19  1  0.75678712  0.12540532  0.87062779  1
  V  V20  1  0.49797896  0.62417983  0.62329785  1
  V  V21  1  0.00095891  0.12601797  0.12439336  1
  V  V22  1  0.12268865  0.12485162  0.50132568  1
  V  V23  1  0.74843624  0.50065255  0.74971982  1
  V  V24  1  0.25154796  0.25060875  0.00089242  1
  V  V25  1  0.12543171  0.00178127  0.62413171  1
  V  V26  1  0.12725095  -0.00058936  0.12495032  1
  V  V27  1  0.75377933  0.74937423  0.00369089  1
  V  V28  1  0.00039589  -0.00005908  -0.00110964  1
  V  V29  1  0.75146663  -0.00071617  0.24928599  1
  V  V30  1  0.75469741  0.87186219  0.12608920  1
  V  V31  1  0.63141092  0.87343974  0.74714794  1
  V  V32  1  0.62115496  0.25409541  0.87564470  1
  V  V33  1  0.50030116  0.75044639  0.75008217  1
  V  V34  1  0.87423570  0.62631455  0.74760784  1
  V  V35  1  0.24674533  0.74976598  0.49882802  1
  V  V36  1  0.87326425  0.37601890  0.50169676  1
  V  V37  1  0.38289418  0.37463755  -0.00350946  1
  V  V38  1  0.00002182  0.00026549  0.49890049  1
  V  V39  1  0.12569430  0.62575181  0.00013193  1
  V  V40  1  0.62532014  0.12556224  0.49995555  1
  V  V41  1  0.74760309  0.25096395  0.50002398  1
  V  V42  1  0.00028333  0.87581293  0.87560505  1
  V  V43  1  0.87679190  -0.00064118  0.37512281  1
  V  V44  1  -0.00187838  0.74996509  0.74495064  1
  V  V45  1  0.87541427  0.12453683  0.25009704  1
  V  V46  1  0.37369927  0.25051231  0.62502735  1
  V  V47  1  0.12591802  0.74864395  0.87574402  1
  V  V48  1  0.86831105  0.87097915  0.50516976  1
  V  V49  1  0.74829380  0.62630864  0.87586663  1
  V  V50  1  0.62242169  0.49982126  0.62428641  1
  V  V51  1  0.50481652  0.86939736  0.37576395  1
  V  V52  1  0.50308678  -0.00126728  0.00045582  1
  V  V53  1  0.50432448  0.74828289  0.25317926  1
  V  V54  1  0.24919217  0.37471670  0.62496052  1
  V  V55  1  0.49415209  0.37661221  0.37469004  1
  V  V56  1  0.12568444  0.25129824  0.87466283  1
  V  V57  1  0.12441727  0.37540256  0.75146382  1
  V  V58  1  0.37698688  0.87327704  0.00048652  1
  V  V59  1  0.25101416  0.00034964  0.74961217  1
  V  V60  1  0.74813405  0.37532631  0.62424177  1
  V  V61  1  -0.00113966  0.37740424  0.37600922  1
  V  V62  1  0.37750935  -0.00044082  0.87489966  1
  V  V63  1  0.75080743  0.24903963  0.00016242  1
  V  V64  1  0.74944108  0.12619074  0.37529121  1
  V  V65  1  0.49088873  0.49925272  0.49484999  1
  V  V66  1  0.74481124  0.63354810  0.37548415  1
  V  V67  1  0.50008196  0.25312154  0.75247784  1
  V  V68  1  0.00034071  0.25073505  0.25058274  1
  V  V69  1  0.25128039  0.12489620  0.87548061  1
  V  V70  1  0.62080894  0.37516873  0.75201690  1
  V  V71  1  0.49973735  0.12511585  0.62529049  1
  V  V72  1  -0.00497566  0.63114440  0.12657133  1
  V  V73  1  0.37565690  0.62021861  0.25307209  1
  V  V74  1  0.62664965  0.87045731  0.25288801  1
  V  V75  1  0.50033667  -0.00049396  0.50002293  1
  V  V76  1  0.25036238  0.62251463  0.37552379  1
  V  V77  1  0.37432258  0.62412975  0.75131902  1
  V  V78  1  0.24946297  0.25044775  0.50101352  1
  V  V79  1  0.12048008  0.50379115  0.62397428  1
  V  V80  1  0.37597323  0.12542801  0.75025360  1
  V  V81  1  0.12527049  0.87562773  0.75040611  1
  V  V82  1  0.62491361  0.50010372  0.12319872  1
  V  V83  1  0.63041382  -0.00353085  0.62576238  1
  V  V84  1  0.38168888  0.49604482  0.87458675  1
  V  V85  1  0.50079248  0.62278485  0.12497001  1
  V  V86  1  0.25200927  0.87418007  0.12463532  1
  V  V87  1  0.87540855  0.49853823  0.87586591  1
  V  V88  1  0.75167966  0.37433702  0.12592834  1
  V  V89  1  -0.00707979  0.24516455  0.74865091  1
  V  V90  1  0.12434515  0.25002405  0.37593566  1
  V  V91  1  0.50155217  0.87431940  0.87363769  1
  V  V92  1  0.75072275  0.50003950  0.25228000  1
  Zn  Zn93  1  0.87777216  0.00308906  0.87027866  1
  Zn  Zn94  1  0.00084532  0.37475712  0.87599215  1
  Zn  Zn95  1  0.37698836  0.24738810  0.12389745  1
  Zn  Zn96  1  0.12579095  0.37518746  0.25065888  1
  Zn  Zn97  1  0.62487906  0.37289481  0.25256518  1
  Zn  Zn98  1  0.37550701  0.87388384  0.49903903  1
  Zn  Zn99  1  0.49895912  0.12503977  0.12414880  1
  Zn  Zn100  1  0.50371865  0.49807584  -0.00445131  1
  Zn  Zn101  1  -0.00044109  0.87087431  0.37422944  1
  Zn  Zn102  1  -0.00372970  0.75262391  0.24940623  1
  Zn  Zn103  1  0.73684633  0.75915188  0.50281625  1
  Zn  Zn104  1  -0.00568236  0.62791365  0.61827250  1
  Zn  Zn105  1  0.62544348  0.74961836  0.87566868  1
  Zn  Zn106  1  0.86818329  0.24277464  0.63148554  1
  Zn  Zn107  1  0.87755400  0.37461582  0.00126057  1
  Zn  Zn108  1  0.62393032  0.25107565  0.37492588  1
  Zn  Zn109  1  0.25118269  0.62495182  0.87789127  1
  Zn  Zn110  1  -0.00869823  0.12047950  0.62986595  1
  Zn  Zn111  1  0.85792691  0.75431903  0.62996534  1
  Zn  Zn112  1  -0.00238413  0.50367888  0.49984251  1
  Zn  Zn113  1  0.37415839  0.12458881  0.24547383  1
  Zn  Zn114  1  0.37100147  0.37820930  0.49707808  1
  Zn  Zn115  1  0.25172779  0.74812009  -0.00113524  1
  Zn  Zn116  1  0.11858949  0.62564252  0.49684915  1
  Zn  Zn117  1  0.87442947  0.50303451  0.37719686  1
  Zn  Zn118  1  0.62545529  0.12517152  -0.00144731  1
  Zn  Zn119  1  0.25144887  0.00096453  0.24923005  1
  Zn  Zn120  1  0.12197110  0.74945745  0.37305291  1
  Zn  Zn121  1  0.62332113  0.62783578  -0.00125539  1
  Zn  Zn122  1  0.18881079  0.18820668  0.18908793  1
  Zn  Zn123  1  0.18423195  0.18761781  0.68790273  1
  Zn  Zn124  1  0.18799265  0.68764681  0.18482692  1
  Zn  Zn125  1  0.18658254  0.68636510  0.68818837  1
  Zn  Zn126  1  0.68622589  0.18734853  0.18880512  1
  Zn  Zn127  1  0.68718091  0.18629180  0.68780125  1
  Zn  Zn128  1  0.68725306  0.68808957  0.18576929  1
  Zn  Zn129  1  0.68652062  0.68690821  0.68313308  1
  Zn  Zn130  1  0.31557535  0.31066466  0.31271673  1
  Zn  Zn131  1  0.31210529  0.31390560  0.81307265  1
  Zn  Zn132  1  0.31409662  0.81165253  0.31147557  1
  Zn  Zn133  1  0.31226169  0.81160975  0.81374491  1
  Zn  Zn134  1  0.81322591  0.31243669  0.31389038  1
  Zn  Zn135  1  0.80839647  0.31473240  0.81376689  1
  Zn  Zn136  1  0.81211599  0.81311742  0.31795621  1
  Zn  Zn137  1  0.81341528  0.81417754  0.81728279  1
  Zn  Zn138  1  0.18579738  0.43791340  0.43850463  1
  Zn  Zn139  1  0.19124185  0.43815941  0.93760411  1
  Zn  Zn140  1  0.18782018  0.93730160  0.43665084  1
  Zn  Zn141  1  0.18938648  0.93594085  0.93817854  1
  Zn  Zn142  1  0.68098083  0.43992705  0.43619104  1
  Zn  Zn143  1  0.68989302  0.43530022  0.93916727  1
  Zn  Zn144  1  0.68737732  0.94146178  0.43575450  1
  Zn  Zn145  1  0.68942637  0.93588501  0.93456734  1
  Zn  Zn146  1  0.31520792  0.06170104  0.06346871  1
  Zn  Zn147  1  0.31291511  0.06324083  0.56005909  1
  Zn  Zn148  1  0.31290232  0.56074094  0.06241421  1
  Zn  Zn149  1  0.30893407  0.56344196  0.56434286  1
  Zn  Zn150  1  0.81311596  0.06218505  0.05916348  1
  Zn  Zn151  1  0.81454258  0.06325514  0.56265271  1
  Zn  Zn152  1  0.81303567  0.56357042  0.06274159  1
  Zn  Zn153  1  0.80987393  0.56537820  0.56291060  1
  Zn  Zn154  1  0.43758446  0.43330764  0.18584525  1
  Zn  Zn155  1  0.43713915  0.43617110  0.68638217  1
  Zn  Zn156  1  0.43961352  0.93581190  0.18899769  1
  Zn  Zn157  1  0.43926021  0.93674231  0.68702236  1
  Zn  Zn158  1  0.93689829  0.44044659  0.18806910  1
  Zn  Zn159  1  0.93731522  0.43404827  0.68895278  1
  Zn  Zn160  1  0.94051486  0.93833961  0.18626356  1
  Zn  Zn161  1  0.93835538  0.93659464  0.68411062  1
  Zn  Zn162  1  0.06368130  0.06076256  0.31290781  1
  Zn  Zn163  1  0.06410095  0.06356190  0.81383056  1
  Zn  Zn164  1  0.06413640  0.56273270  0.31095843  1
  Zn  Zn165  1  0.06144303  0.56476694  0.81178923  1
  Zn  Zn166  1  0.56306375  0.06125143  0.31198407  1
  Zn  Zn167  1  0.56661671  0.06506858  0.81320162  1
  Zn  Zn168  1  0.56254074  0.55894441  0.31286982  1
  Zn  Zn169  1  0.56261358  0.56437779  0.81212053  1
  Zn  Zn170  1  0.43737979  0.18869362  0.43650507  1
  Zn  Zn171  1  0.43993747  0.18571557  0.94004064  1
  Zn  Zn172  1  0.43381570  0.68710950  0.43756434  1
  Zn  Zn173  1  0.43912562  0.68482558  0.93746600  1
  Zn  Zn174  1  0.93585677  0.18836527  0.44074429  1
  Zn  Zn175  1  0.93790338  0.18839950  0.93644125  1
  Zn  Zn176  1  0.93736809  0.68822466  0.43209963  1
  Zn  Zn177  1  0.93787433  0.68748609  0.93620192  1
  Zn  Zn178  1  0.06329021  0.31515773  0.06158375  1
  Zn  Zn179  1  0.06193819  0.31399397  0.56452490  1
  Zn  Zn180  1  0.06399620  0.81155013  0.06385062  1
  Zn  Zn181  1  0.06115293  0.81739478  0.56031293  1
  Zn  Zn182  1  0.56497376  0.31251935  0.06487713  1
  Zn  Zn183  1  0.56094721  0.31320550  0.56248121  1
  Zn  Zn184  1  0.56553844  0.81133847  0.06419816  1
  Zn  Zn185  1  0.56067361  0.81276295  0.56440883  1
  O  O186  1  0.12070972  0.12032890  0.11950749  1
  O  O187  1  0.12296849  0.11823586  0.61852219  1
  O  O188  1  0.11674437  0.61876315  0.12099585  1
  O  O189  1  0.12201369  0.61414688  0.62458705  1
  O  O190  1  0.62686172  0.10916653  0.12387042  1
  O  O191  1  0.61843199  0.11623311  0.62080877  1
  O  O192  1  0.62033549  0.61484496  0.12430538  1
  O  O193  1  0.61611082  0.61752200  0.61630674  1
  O  O194  1  0.38863499  0.37058130  0.37918705  1
  O  O195  1  0.36888782  0.38434534  0.88430022  1
  O  O196  1  0.38445076  0.88366420  0.37555714  1
  O  O197  1  0.38152185  0.88068508  0.87900908  1
  O  O198  1  0.88274821  0.37710685  0.38300583  1
  O  O199  1  0.87344112  0.38981147  0.87589221  1
  O  O200  1  0.87782544  0.88290499  0.38234267  1
  O  O201  1  0.88245735  0.87922192  0.88635329  1
  O  O202  1  0.26078265  0.00488923  0.37608879  1
  O  O203  1  0.25667498  0.00478726  0.86945347  1
  O  O204  1  0.24547148  0.50806125  0.36478965  1
  O  O205  1  0.26051630  0.50241129  0.86791456  1
  O  O206  1  0.75641854  0.00676795  0.36769337  1
  O  O207  1  0.74917474  0.00896485  0.86652617  1
  O  O208  1  0.74761995  0.50730338  0.36381370  1
  O  O209  1  0.75685600  0.50543924  0.87042288  1
  O  O210  1  0.24520124  0.49518263  0.13409162  1
  O  O211  1  0.24137215  0.49516601  0.63096342  1
  O  O212  1  0.24458031  0.99263384  0.12538260  1
  O  O213  1  0.24620464  0.99559836  0.63008414  1
  O  O214  1  0.74413231  0.49664770  0.13246627  1
  O  O215  1  0.74220615  0.49542911  0.63071433  1
  O  O216  1  0.74464507  0.99332741  0.12970262  1
  O  O217  1  0.73637074  1.00706586  0.63297619  1
  O  O218  1  -0.00093158  0.37007914  0.26013643  1
  O  O219  1  0.00714994  0.36530593  0.75422158  1
  O  O220  1  0.01149736  0.87339309  0.24783954  1
  O  O221  1  0.00537504  0.86928524  0.75509679  1
  O  O222  1  0.50036973  0.36724433  0.25766766  1
  O  O223  1  0.50830803  0.36604669  0.74349636  1
  O  O224  1  0.50605202  0.86872741  0.25802063  1
  O  O225  1  0.50844426  0.87059097  0.75434819  1
  O  O226  1  0.49960193  0.13433460  0.24986564  1
  O  O227  1  0.49495658  0.13076217  0.74494434  1
  O  O228  1  0.49269736  0.62703513  0.24737731  1
  O  O229  1  0.49435617  0.63039231  0.74282659  1
  O  O230  1  0.99532848  0.13031437  0.24433761  1
  O  O231  1  1.00594216  0.14106704  0.75141216  1
  O  O232  1  0.99005528  0.62211218  0.24305878  1
  O  O233  1  0.99296083  0.63642276  0.74954359  1
  O  O234  1  0.36970345  0.25834605  -0.00228079  1
  O  O235  1  0.36713647  0.24927929  0.50830199  1
  O  O236  1  0.37686073  0.75617886  0.00670991  1
  O  O237  1  0.36310154  0.74992309  0.50702284  1
  O  O238  1  0.86961492  0.25114811  0.00698370  1
  O  O239  1  0.86687959  0.26330938  0.49936878  1
  O  O240  1  0.86690131  0.76106988  -0.00599933  1
  O  O241  1  0.87695715  0.76661639  0.49812598  1
  O  O242  1  0.12941522  0.24547153  0.49560923  1
  O  O243  1  0.13061940  0.24453037  0.99475515  1
  O  O244  1  0.13726267  0.74892239  0.50083762  1
  O  O245  1  0.12492605  0.74365147  0.99308960  1
  O  O246  1  0.62990017  0.24252758  0.50013267  1
  O  O247  1  0.63157762  0.25058652  0.99155127  1
  O  O248  1  0.61790611  0.73370078  0.50239718  1
  O  O249  1  0.63843248  0.75070514  0.99700178  1
  O  O250  1  0.50128973  0.24824450  0.13594326  1
  O  O251  1  0.49410994  0.24363026  0.63081918  1
  O  O252  1  0.49599262  0.74337664  0.13232416  1
  O  O253  1  0.49252051  0.74402297  0.63009520  1
  O  O254  1  0.99605522  0.24507207  0.12990290  1
  O  O255  1  1.00083503  0.25139501  0.64125444  1
  O  O256  1  1.00414058  0.73451201  0.12778927  1
  O  O257  1  1.00034077  0.75327095  0.63873340  1
  O  O258  1  0.00358780  0.25812527  0.37064307  1
  O  O259  1  0.00634590  0.25158469  0.86599238  1
  O  O260  1  0.00545285  0.75267831  0.36708811  1
  O  O261  1  0.00513581  0.75597431  0.86517387  1
  O  O262  1  0.50224343  0.25651044  0.36793822  1
  O  O263  1  0.51349285  0.24165838  0.86890942  1
  O  O264  1  0.49138615  0.76216625  0.36987864  1
  O  O265  1  0.50124554  0.75581643  0.86738517  1
  O  O266  1  0.24299533  0.13082487  0.49474989  1
  O  O267  1  0.24583527  0.12960105  0.99434087  1
  O  O268  1  0.24973866  0.63202793  0.49105144  1
  O  O269  1  0.24128001  0.62699881  1.00032040  1
  O  O270  1  0.74437959  0.13039914  0.49426594  1
  O  O271  1  0.74728006  0.13070097  0.99096553  1
  O  O272  1  0.73777503  0.61943615  0.48947149  1
  O  O273  1  0.75135741  0.63477720  0.99568362  1
  O  O274  1  0.25806839  0.36948277  0.00566797  1
  O  O275  1  0.25045993  0.36873933  0.50602985  1
  O  O276  1  0.25927709  0.87321747  0.00604888  1
  O  O277  1  0.25143470  0.86579896  0.50544623  1
  O  O278  1  0.75451502  0.36730631  0.00809664  1
  O  O279  1  0.75395084  0.37239453  0.50356270  1
  O  O280  1  0.75881903  0.86930076  0.00364796  1
  O  O281  1  0.76378160  0.87648595  0.49124582  1
  O  O282  1  0.13693336  0.49845916  0.24402295  1
  O  O283  1  0.12918450  0.49590453  0.74405370  1
  O  O284  1  0.12662494  0.99086094  0.24276216  1
  O  O285  1  0.13162518  0.99534875  0.74565544  1
  O  O286  1  0.63549353  0.50037033  0.24017011  1
  O  O287  1  0.62868650  0.49549835  0.74483055  1
  O  O288  1  0.63153453  0.99241759  0.24225273  1
  O  O289  1  0.63089372  0.99300911  0.74307541  1
  O  O290  1  0.37582533  0.00072696  0.26227496  1
  O  O291  1  0.37089490  0.00547784  0.75494872  1
  O  O292  1  0.36519921  0.51010783  0.24279868  1
  O  O293  1  0.37089532  0.50332082  0.75594910  1
  O  O294  1  0.87096216  0.00552247  0.25366712  1
  O  O295  1  0.85930786  -0.01150872  0.74999581  1
  O  O296  1  0.86285273  0.50901491  0.25085707  1
  O  O297  1  0.86907317  0.50468224  0.75716877  1
  O  O298  1  0.11455595  0.36880481  0.37543336  1
  O  O299  1  0.12618394  0.36919506  0.86941700  1
  O  O300  1  0.12506807  0.87509991  0.36278759  1
  O  O301  1  0.12000302  0.87023694  0.86976022  1
  O  O302  1  0.61157745  0.37256379  0.37307616  1
  O  O303  1  0.63329255  0.36242857  0.86835195  1
  O  O304  1  0.61286984  0.88304010  0.36891597  1
  O  O305  1  0.61855936  0.87439810  0.86405668  1
  O  O306  1  0.38029212  0.12788427  0.12734349  1
  O  O307  1  0.37951837  0.12961285  0.63123912  1
  O  O308  1  0.38025370  0.62854974  0.13425083  1
  O  O309  1  0.37888884  0.63029890  0.63124359  1
  O  O310  1  0.88114224  0.12963911  0.12995565  1
  O  O311  1  0.87956199  0.13146421  0.61982385  1
  O  O312  1  0.88426028  0.61819510  0.13481454  1
  O  O313  1  0.87558975  0.62884211  0.63324326  1
  O  O314  1  0.25046512  0.25654327  0.11819361  1
  O  O315  1  0.25312948  0.25472149  0.62089952  1
  O  O316  1  0.25930524  0.75602087  0.12298899  1
  O  O317  1  0.25339257  0.75464318  0.61854868  1
  O  O318  1  0.75523388  0.25357029  0.12110484  1
  O  O319  1  0.74784521  0.25779464  0.61926686  1
  O  O320  1  0.74708532  0.75681453  0.11341121  1
  O  O321  1  0.74695855  0.74871883  0.61502309  1
  O  O322  1  0.24449706  0.24576967  0.38092387  1
  O  O323  1  0.24552633  0.24356956  0.88010368  1
  O  O324  1  0.24994305  0.74243606  0.38325892  1
  O  O325  1  0.24174606  0.74731420  0.87696688  1
  O  O326  1  0.74740334  0.24376721  0.38090257  1
  O  O327  1  0.74358707  0.24333874  0.87842543  1
  O  O328  1  0.75056297  0.73702464  0.38145457  1
  O  O329  1  0.74929735  0.74409031  0.88474713  1
  O  O330  1  0.00669866  0.12068461  0.00458516  1
  O  O331  1  0.00722333  0.11869957  0.49985587  1
  O  O332  1  0.00356605  0.62027182  0.00784509  1
  O  O333  1  0.00093037  0.62162588  0.50116935  1
  O  O334  1  0.50602169  0.11424650  0.00230239  1
  O  O335  1  0.50536520  0.11923209  0.50548345  1
  O  O336  1  0.50270446  0.62018695  0.00966612  1
  O  O337  1  0.50276072  0.61808292  0.50163580  1
  O  O338  1  0.49814100  0.38318067  0.49414752  1
  O  O339  1  0.48667910  0.37685597  1.00590681  1
  O  O340  1  0.49945267  0.88014931  0.49166066  1
  O  O341  1  0.49647262  0.87885662  0.99420325  1
  O  O342  1  0.99046728  0.37388458  0.49220068  1
  O  O343  1  0.99726319  0.38379874  0.99621410  1
  O  O344  1  0.99053013  0.88289104  0.49644960  1
  O  O345  1  0.99473894  0.87908959  0.99695519  1
  O  O346  1  0.50347062  0.49094156  0.38435386  1
  O  O347  1  0.48653410  0.50327616  0.87496948  1
  O  O348  1  0.49328745  0.99192898  0.37966610  1
  O  O349  1  0.49677393  0.99495791  0.87899319  1
  O  O350  1  0.99940698  0.48814224  0.37549316  1
  O  O351  1  0.98974493  0.50139338  0.87937548  1
  O  O352  1  0.99337748  0.99943401  0.38132507  1
  O  O353  1  1.00028828  0.99442617  0.88060375  1
  O  O354  1  0.00704993  0.00748783  0.11815629  1
  O  O355  1  0.00870061  0.00042514  0.61886399  1
  O  O356  1  0.00554898  0.50770864  0.12016749  1
  O  O357  1  0.01017303  0.49954226  0.62594359  1
  O  O358  1  0.51197985  -0.00407882  0.12011916  1
  O  O359  1  0.50786117  0.00574491  0.62069101  1
  O  O360  1  0.51117904  0.50379394  0.12748994  1
  O  O361  1  0.50331200  0.50519015  0.61709338  1
  O  O362  1  0.25190283  0.38370166  0.24621371  1
  O  O363  1  0.24403124  0.38043289  0.74407393  1
  O  O364  1  0.24356439  0.87713774  0.24324697  1
  O  O365  1  0.24514050  0.88101695  0.74498087  1
  O  O366  1  0.75025646  0.38478105  0.24595050  1
  O  O367  1  0.74225240  0.38146367  0.74377783  1
  O  O368  1  0.74738086  0.87943831  0.24659181  1
  O  O369  1  0.73708065  0.88325543  0.75797978  1
  O  O370  1  0.25181960  0.12181620  0.25952038  1
  O  O371  1  0.25559823  0.12003657  0.75560174  1
  O  O372  1  0.25679829  0.61826190  0.25514432  1
  O  O373  1  0.25742317  0.61836343  0.75058031  1
  O  O374  1  0.75652869  0.11920443  0.25452177  1
  O  O375  1  0.74370720  0.11451580  0.75858735  1
  O  O376  1  0.75399510  0.61992652  0.25521971  1
  O  O377  1  0.75393748  0.61923002  0.75581114  1
  O  O378  1  0.37007303  0.11459464  0.37566142  1
  O  O379  1  0.37075432  0.11894473  0.86983863  1
  O  O380  1  0.36412818  0.62938197  0.36264647  1
  O  O381  1  0.37343507  0.61589788  0.86884134  1
  O  O382  1  0.86956927  0.12046014  0.36969253  1
  O  O383  1  0.86166878  0.12309484  0.87828015  1
  O  O384  1  0.86333639  0.62056093  0.36671502  1
  O  O385  1  0.86928060  0.61633870  0.86891634  1
  O  O386  1  0.13232388  0.38199453  0.12728322  1
  O  O387  1  0.13018645  0.38366424  0.63086164  1
  O  O388  1  0.13134489  0.88000837  0.13042611  1
  O  O389  1  0.13158995  0.88192312  0.63095837  1
  O  O390  1  0.63290721  0.38494132  0.12820475  1
  O  O391  1  0.62929420  0.38121036  0.63005458  1
  O  O392  1  0.63323004  0.88315476  0.13183056  1
  O  O393  1  0.61747721  0.88652263  0.63438799  1
  O  O394  1  0.11800519  0.25238407  0.25755652  1
  O  O395  1  0.11826297  0.25598703  0.75607354  1
  O  O396  1  0.12663374  0.76249240  0.24824814  1
  O  O397  1  0.11762398  0.75586036  0.75466127  1
  O  O398  1  0.61552020  0.25187981  0.25268629  1
  O  O399  1  0.62043457  0.25492067  0.75697588  1
  O  O400  1  0.61742999  0.75802457  0.24448630  1
  O  O401  1  0.61869272  0.75892439  0.74897325  1
  O  O402  1  0.38710058  0.24745823  0.24781001  1
  O  O403  1  0.37931359  0.24444028  0.74596982  1
  O  O404  1  0.38184328  0.73995485  0.24422545  1
  O  O405  1  0.38007176  0.74494671  0.74511180  1
  O  O406  1  0.88038002  0.24353853  0.24473479  1
  O  O407  1  0.88980559  0.25798431  0.75299042  1
  O  O408  1  0.87242978  0.73596985  0.25327662  1
  O  O409  1  0.88301156  0.74766802  0.75099652  1
  O  O410  1  0.38704549  0.50023547  0.50606422  1
  O  O411  1  0.37527578  0.49185515  0.99177742  1
  O  O412  1  0.38173245  0.99813471  0.49091144  1
  O  O413  1  0.38256367  0.99298875  0.99356363  1
  O  O414  1  0.87382661  0.48701758  0.49939916  1
  O  O415  1  0.87988616  0.50133055  0.99023972  1
  O  O416  1  0.87918101  0.99095518  0.49458615  1
  O  O417  1  0.88264722  0.99098196  0.99738333  1
  O  O418  1  0.12063350  0.00533813  0.00452984  1
  O  O419  1  0.12058101  0.00444747  0.50472486  1
  O  O420  1  0.12006258  0.50581339  0.00471289  1
  O  O421  1  0.12315408  0.50154025  0.51218198  1
  O  O422  1  0.62240640  -0.00420741  0.00944392  1
  O  O423  1  0.62095555  0.00438393  0.50879625  1
  O  O424  1  0.62565159  0.50055272  0.01143957  1
  O  O425  1  0.61293706  0.50889600  0.50544174  1
  O  O426  1  0.36767358  0.37350692  0.11437751  1
  O  O427  1  0.36647835  0.36766576  0.62407610  1
  O  O428  1  0.37255116  0.86959876  0.12056141  1
  O  O429  1  0.36887945  0.86894047  0.62384120  1
  O  O430  1  0.86965397  0.36823246  0.12556644  1
  O  O431  1  0.86708805  0.37224610  0.61717689  1
  O  O432  1  0.87093315  0.88085923  0.11256191  1
  O  O433  1  0.87649387  0.87557400  0.60849975  1
  O  O434  1  0.13025056  0.13028837  0.38121003  1
  O  O435  1  0.13258439  0.13003168  0.88159971  1
  O  O436  1  0.13868681  0.62776936  0.37410510  1
  O  O437  1  0.12507643  0.63090099  0.88205068  1
  O  O438  1  0.63222367  0.12247589  0.38295122  1
  O  O439  1  0.63626339  0.13598737  0.87564345  1
  O  O440  1  0.63179753  0.61886963  0.38259326  1
  O  O441  1  0.63318056  0.62691717  0.87770048  1
