# generated using pymatgen
data_V93Zn93O256
_symmetry_space_group_name_H-M   'P 1'
_cell_length_a   17.05476881
_cell_length_b   17.05378897
_cell_length_c   17.05635789
_cell_angle_alpha   89.99446348
_cell_angle_beta   89.99333172
_cell_angle_gamma   90.08403218
_symmetry_Int_Tables_number   1
_chemical_formula_structural   V93Zn93O256
_chemical_formula_sum   'V93 Zn93 O256'
_cell_volume   4960.80949239
_cell_formula_units_Z   1
loop_
 _symmetry_equiv_pos_site_id
 _symmetry_equiv_pos_as_xyz
  1  'x, y, z'
loop_
 _atom_site_type_symbol
 _atom_site_label
 _atom_site_symmetry_multiplicity
 _atom_site_fract_x
 _atom_site_fract_y
 _atom_site_fract_z
 _atom_site_occupancy
  V  V0  1  0.50051109  0.50129208  -0.00146939  1
  V  V1  1  0.37372816  0.62507820  0.24939506  1
  V  V2  1  0.49997998  0.75209441  0.75077745  1
  V  V3  1  0.75583567  0.62645421  0.87100233  1
  V  V4  1  0.24955820  0.74928512  0.50131702  1
  V  V5  1  0.62546940  0.62650423  0.00018820  1
  V  V6  1  0.37429816  0.12521368  0.25039001  1
  V  V7  1  0.00079783  0.74888968  0.25142614  1
  V  V8  1  0.12649664  0.87528248  0.74797075  1
  V  V9  1  0.12412787  0.75098649  0.87524812  1
  V  V10  1  0.00159325  0.37509270  0.87576344  1
  V  V11  1  0.50169545  0.87344834  0.37487489  1
  V  V12  1  0.50167710  0.12480365  0.12334516  1
  V  V13  1  0.50203460  0.62579552  0.62231846  1
  V  V14  1  0.12690122  0.37449227  0.75021405  1
  V  V15  1  0.25029149  0.37440767  0.62473925  1
  V  V16  1  0.87505464  0.87297111  0.50057708  1
  V  V17  1  0.25015663  -0.00099600  0.25003936  1
  V  V18  1  0.12862301  0.23730199  0.87769732  1
  V  V19  1  0.37489211  0.49926408  0.37488891  1
  V  V20  1  0.74978224  0.87469629  0.62624668  1
  V  V21  1  0.37311671  0.25138321  0.12362856  1
  V  V22  1  0.00009586  0.50047793  -0.00091489  1
  V  V23  1  0.25141754  0.62499293  0.87512927  1
  V  V24  1  -0.00009531  0.49827611  0.49965801  1
  V  V25  1  -0.00290831  0.74407635  0.75058932  1
  V  V26  1  0.12516299  0.87469810  0.25144801  1
  V  V27  1  0.87491791  0.49855401  0.37495850  1
  V  V28  1  0.87522324  0.62405703  0.25040126  1
  V  V29  1  0.37477493  0.75034152  0.62524183  1
  V  V30  1  0.37358858  0.87430126  0.50187122  1
  V  V31  1  0.75234716  0.50352304  0.74855222  1
  V  V32  1  0.62458980  0.87687509  0.75094478  1
  V  V33  1  0.74279278  0.74452729  0.50190783  1
  V  V34  1  0.87708482  0.50243299  0.86917248  1
  V  V35  1  0.62368153  0.37604265  0.74916737  1
  V  V36  1  0.50164035  0.75024707  0.25112362  1
  V  V37  1  0.75048278  -0.00079581  0.75010331  1
  V  V38  1  0.87398786  0.25046517  0.62310709  1
  V  V39  1  0.24935600  0.12437317  0.37612819  1
  V  V40  1  0.87334875  0.11984628  0.24734816  1
  V  V41  1  0.49892253  0.25159210  0.24872054  1
  V  V42  1  0.12404558  0.62400625  0.50173824  1
  V  V43  1  0.24926022  0.49866061  0.24944126  1
  V  V44  1  0.87441489  0.12246764  0.74869996  1
  V  V45  1  -0.00063871  0.87301370  0.37569446  1
  V  V46  1  0.87790192  0.87839113  -0.00085577  1
  V  V47  1  0.12469712  0.37387613  0.24910420  1
  V  V48  1  0.00094674  0.12111837  0.62320024  1
  V  V49  1  0.87465152  0.74998566  0.12500311  1
  V  V50  1  0.74873217  0.12848735  0.87467044  1
  V  V51  1  0.24630148  0.23834165  -0.00397218  1
  V  V52  1  0.75020527  0.75515590  0.00301698  1
  V  V53  1  0.49912570  0.00373093  -0.00207153  1
  V  V54  1  0.50009239  0.37702041  0.87371704  1
  V  V55  1  0.00409783  0.12340368  0.11783558  1
  V  V56  1  0.50201296  0.50384957  0.49979738  1
  V  V57  1  0.37448445  0.37732978  -0.00128451  1
  V  V58  1  -0.00074055  0.37387754  0.37364961  1
  V  V59  1  0.49905120  0.12533748  0.62453720  1
  V  V60  1  0.00278453  0.24890975  0.75055913  1
  V  V61  1  0.12531141  0.49837846  0.62509044  1
  V  V62  1  0.12558443  0.00249998  0.11910358  1
  V  V63  1  0.37443374  0.37446578  0.50048821  1
  V  V64  1  0.87436996  0.74167030  0.63086378  1
  V  V65  1  0.24905855  0.62458439  0.37633117  1
  V  V66  1  0.37517292  0.87918907  -0.00195393  1
  V  V67  1  0.49939624  0.00011070  0.50124150  1
  V  V68  1  0.62565682  0.50626671  0.61896437  1
  V  V69  1  0.75054668  0.37506586  0.62449554  1
  V  V70  1  0.25079735  0.75104121  0.00127344  1
  V  V71  1  0.12480860  0.62598267  0.00087002  1
  V  V72  1  0.37187077  0.12238280  0.76269993  1
  V  V73  1  0.37438219  0.24993307  0.62482345  1
  V  V74  1  0.49725517  0.88094349  0.87473375  1
  V  V75  1  0.24893861  0.37511079  0.12389045  1
  V  V76  1  0.74258532  0.62382146  0.37974508  1
  V  V77  1  0.74944087  0.50028713  0.24898134  1
  V  V78  1  0.37498114  0.62602243  0.75158885  1
  V  V79  1  0.74939868  0.12071291  0.37120206  1
  V  V80  1  0.00056065  0.62420066  0.12492179  1
  V  V81  1  0.37513722  0.75194373  0.12562789  1
  V  V82  1  0.87187161  -0.00289354  0.37209931  1
  V  V83  1  0.49927016  0.25076789  0.75015956  1
  V  V84  1  0.49966021  0.37570195  0.37468116  1
  V  V85  1  0.37464520  0.00000984  0.37617469  1
  V  V86  1  0.25354496  0.00405649  0.75997714  1
  V  V87  1  0.62514140  0.24985424  0.37447527  1
  V  V88  1  0.62413356  0.12505545  0.49933896  1
  V  V89  1  -0.00017463  0.24739569  0.24915544  1
  V  V90  1  0.62539697  0.37641299  0.24864995  1
  V  V91  1  0.12546713  0.12382782  0.49911675  1
  V  V92  1  0.62634824  0.50017553  0.12438684  1
  Zn  Zn93  1  0.12618796  0.24885779  0.37494356  1
  Zn  Zn94  1  0.37412152  0.50130125  0.87409741  1
  Zn  Zn95  1  0.25057929  0.87676090  0.12581177  1
  Zn  Zn96  1  0.25143748  0.49998131  0.75137875  1
  Zn  Zn97  1  0.63261675  0.00053370  0.13076722  1
  Zn  Zn98  1  0.62563914  0.75226411  0.87597662  1
  Zn  Zn99  1  0.49972664  0.62707942  0.12365968  1
  Zn  Zn100  1  0.74891124  0.25378529  0.00208301  1
  Zn  Zn101  1  0.12466361  0.49966756  0.12398611  1
  Zn  Zn102  1  0.74959822  0.25009749  0.49864983  1
  Zn  Zn103  1  0.00547943  0.00316500  -0.00497643  1
  Zn  Zn104  1  0.12423241  0.74971949  0.37721063  1
  Zn  Zn105  1  0.00069006  -0.00359265  0.50028118  1
  Zn  Zn106  1  0.87311984  0.25096487  0.12008624  1
  Zn  Zn107  1  0.62717824  0.12754183  -0.00165431  1
  Zn  Zn108  1  0.62254636  0.74632888  0.37869836  1
  Zn  Zn109  1  0.75255090  0.37197703  0.12240131  1
  Zn  Zn110  1  0.62628692  0.25228581  0.87611575  1
  Zn  Zn111  1  0.87762635  0.00034798  0.87558383  1
  Zn  Zn112  1  0.24990154  0.24947041  0.49863096  1
  Zn  Zn113  1  0.12858429  -0.00072917  0.62549153  1
  Zn  Zn114  1  0.63357484  0.88142454  0.24964203  1
  Zn  Zn115  1  0.87291847  0.37360624  0.00149841  1
  Zn  Zn116  1  0.25061049  0.87731884  0.62568159  1
  Zn  Zn117  1  0.87438145  0.37331286  0.49812375  1
  Zn  Zn118  1  -0.00369162  0.61996142  0.62870304  1
  Zn  Zn119  1  0.62562699  0.00121461  0.62414946  1
  Zn  Zn120  1  0.75653072  0.89489564  0.14229109  1
  Zn  Zn121  1  -0.00046042  0.87766845  0.87432822  1
  Zn  Zn122  1  0.18705765  0.18700358  0.18591717  1
  Zn  Zn123  1  0.19015000  0.18741726  0.68879526  1
  Zn  Zn124  1  0.18763501  0.68877913  0.18752200  1
  Zn  Zn125  1  0.18708690  0.68683303  0.68699665  1
  Zn  Zn126  1  0.68839552  0.18820525  0.18714637  1
  Zn  Zn127  1  0.68586620  0.18753767  0.68878758  1
  Zn  Zn128  1  0.68840865  0.69137607  0.18952142  1
  Zn  Zn129  1  0.68534878  0.68943926  0.68942617  1
  Zn  Zn130  1  0.31098233  0.31101114  0.31308503  1
  Zn  Zn131  1  0.31213446  0.31116900  0.81351202  1
  Zn  Zn132  1  0.31240588  0.81230822  0.31414797  1
  Zn  Zn133  1  0.31151890  0.81385475  0.81320789  1
  Zn  Zn134  1  0.81197649  0.31032751  0.30925793  1
  Zn  Zn135  1  0.81420088  0.31471523  0.81074798  1
  Zn  Zn136  1  0.81373851  0.80758759  0.31564732  1
  Zn  Zn137  1  0.81307800  0.81347973  0.81491267  1
  Zn  Zn138  1  0.18602546  0.43609374  0.43718190  1
  Zn  Zn139  1  0.18754360  0.43566007  0.93700395  1
  Zn  Zn140  1  0.18661525  0.93766526  0.43845685  1
  Zn  Zn141  1  0.18873754  0.93694550  0.93558125  1
  Zn  Zn142  1  0.68910459  0.43493012  0.43829883  1
  Zn  Zn143  1  0.68881762  0.43756354  0.93686217  1
  Zn  Zn144  1  0.68755007  0.93604145  0.43852146  1
  Zn  Zn145  1  0.68518816  0.94253336  0.93905333  1
  Zn  Zn146  1  0.31486031  0.05993099  0.06281567  1
  Zn  Zn147  1  0.31070925  0.06118756  0.56913918  1
  Zn  Zn148  1  0.31296096  0.56312263  0.06303033  1
  Zn  Zn149  1  0.31336585  0.56209317  0.56413714  1
  Zn  Zn150  1  0.81296847  0.06408388  0.06049527  1
  Zn  Zn151  1  0.81139150  0.06081806  0.55924464  1
  Zn  Zn152  1  0.81365194  0.56104755  0.06000290  1
  Zn  Zn153  1  0.81344197  0.56124832  0.56018297  1
  Zn  Zn154  1  0.43862488  0.43935883  0.18432817  1
  Zn  Zn155  1  0.43649297  0.43971010  0.68786773  1
  Zn  Zn156  1  0.44298439  0.93915220  0.18812104  1
  Zn  Zn157  1  0.43480456  0.94095021  0.68800107  1
  Zn  Zn158  1  0.93649673  0.43682070  0.18548604  1
  Zn  Zn159  1  0.93902819  0.43599555  0.68903673  1
  Zn  Zn160  1  0.93888144  0.93629853  0.18557891  1
  Zn  Zn161  1  0.93641776  0.93314133  0.68869860  1
  Zn  Zn162  1  0.06144006  0.05885715  0.31153011  1
  Zn  Zn163  1  0.06210305  0.05780015  0.81070331  1
  Zn  Zn164  1  0.06373805  0.56127012  0.31335653  1
  Zn  Zn165  1  0.06621193  0.56267114  0.81262346  1
  Zn  Zn166  1  0.56264051  0.06228067  0.31186983  1
  Zn  Zn167  1  0.56280653  0.06319309  0.81056247  1
  Zn  Zn168  1  0.56125328  0.56275031  0.31093394  1
  Zn  Zn169  1  0.56457788  0.56303847  0.81126223  1
  Zn  Zn170  1  0.43728677  0.18813651  0.43792130  1
  Zn  Zn171  1  0.43719236  0.19361119  0.93833994  1
  Zn  Zn172  1  0.43568233  0.68585978  0.43897869  1
  Zn  Zn173  1  0.43815859  0.69196632  0.93622203  1
  Zn  Zn174  1  0.93814056  0.18600863  0.43668521  1
  Zn  Zn175  1  0.93421691  0.19054006  0.93600899  1
  Zn  Zn176  1  0.93472948  0.68575307  0.44008728  1
  Zn  Zn177  1  0.93794783  0.68931857  0.93715368  1
  Zn  Zn178  1  0.06337783  0.31148675  0.06027698  1
  Zn  Zn179  1  0.06279184  0.31114451  0.56077542  1
  Zn  Zn180  1  0.06241175  0.81424105  0.06504608  1
  Zn  Zn181  1  0.06103543  0.80936331  0.56433334  1
  Zn  Zn182  1  0.56641329  0.31246600  0.05931109  1
  Zn  Zn183  1  0.56246212  0.31382460  0.56236740  1
  Zn  Zn184  1  0.56565758  0.81687289  0.06702175  1
  Zn  Zn185  1  0.56231281  0.81422485  0.56478645  1
  O  O186  1  0.11545041  0.11335405  0.13348162  1
  O  O187  1  0.11522885  0.12668001  0.61777039  1
  O  O188  1  0.11845768  0.62482614  0.11860215  1
  O  O189  1  0.12370608  0.61664339  0.61841087  1
  O  O190  1  0.60762141  0.12807070  0.12517715  1
  O  O191  1  0.61749818  0.12478631  0.61779540  1
  O  O192  1  0.62530305  0.62141209  0.11349799  1
  O  O193  1  0.61971968  0.61319814  0.63087014  1
  O  O194  1  0.38034487  0.38010941  0.37917335  1
  O  O195  1  0.38174983  0.37780246  0.88091349  1
  O  O196  1  0.38307951  0.87967519  0.38210038  1
  O  O197  1  0.38617599  0.86824551  0.88641173  1
  O  O198  1  0.88106824  0.38027537  0.37375479  1
  O  O199  1  0.88359755  0.38603227  0.87299955  1
  O  O200  1  0.87911541  0.88060374  0.37988433  1
  O  O201  1  0.87734981  0.87614547  0.88603793  1
  O  O202  1  0.25613609  0.00492627  0.36995871  1
  O  O203  1  0.24544669  -0.00177388  0.85970630  1
  O  O204  1  0.25604002  0.50397223  0.36943478  1
  O  O205  1  0.25190119  0.50995008  0.87366885  1
  O  O206  1  0.76023944  0.00829096  0.37932538  1
  O  O207  1  0.75184264  0.00954016  0.86762746  1
  O  O208  1  0.75419764  0.50613717  0.37075948  1
  O  O209  1  0.75848696  0.50781531  0.86915181  1
  O  O210  1  0.24892746  0.49346150  0.13188079  1
  O  O211  1  0.24327679  0.49216516  0.62608221  1
  O  O212  1  0.24291870  0.99997307  0.13201804  1
  O  O213  1  0.24663723  0.99513247  0.63705305  1
  O  O214  1  0.74344175  0.50272467  0.13284968  1
  O  O215  1  0.74424188  0.49702182  0.62812689  1
  O  O216  1  0.74632188  1.00640620  0.12591589  1
  O  O217  1  0.74985683  0.99247988  0.63056102  1
  O  O218  1  0.00427859  0.36565647  0.25345013  1
  O  O219  1  0.00706914  0.36752008  0.75509450  1
  O  O220  1  0.00427837  0.86817539  0.25574247  1
  O  O221  1  0.00980539  0.86518246  0.75016583  1
  O  O222  1  0.50421971  0.37107900  0.25534975  1
  O  O223  1  0.50350095  0.37100550  0.75353061  1
  O  O224  1  0.49099477  0.86256988  0.26213884  1
  O  O225  1  0.50256726  0.87329565  0.75759602  1
  O  O226  1  0.49241891  0.13277279  0.24287170  1
  O  O227  1  0.49276688  0.12979455  0.74373448  1
  O  O228  1  0.49186456  0.63403958  0.25055273  1
  O  O229  1  0.49600258  0.63234819  0.74465171  1
  O  O230  1  0.99311702  0.13037013  0.24512187  1
  O  O231  1  0.99554940  0.12941025  0.73978399  1
  O  O232  1  0.99522611  0.62856873  0.24584632  1
  O  O233  1  1.00727575  0.63973792  0.74833034  1
  O  O234  1  0.36709088  0.25854853  0.00468261  1
  O  O235  1  0.37525814  0.25725593  0.50650387  1
  O  O236  1  0.37158669  0.75887790  0.00621097  1
  O  O237  1  0.36938510  0.75449867  0.50602545  1
  O  O238  1  0.87028305  0.25460324  0.00160880  1
  O  O239  1  0.87511652  0.24933098  0.51239154  1
  O  O240  1  0.86842179  0.75652183  0.00464802  1
  O  O241  1  0.86557276  0.75409703  0.50951188  1
  O  O242  1  0.12571113  0.23601794  0.49683669  1
  O  O243  1  0.13442813  0.25409929  0.99009389  1
  O  O244  1  0.13126059  0.74259541  0.49983360  1
  O  O245  1  0.13032067  0.74659694  0.99598741  1
  O  O246  1  0.62433726  0.24344043  0.49196652  1
  O  O247  1  0.62855597  0.24487388  0.99333955  1
  O  O248  1  0.63915170  0.75335372  0.50155228  1
  O  O249  1  0.63337130  0.74251721  0.99969549  1
  O  O250  1  0.49267727  0.24430841  0.12849980  1
  O  O251  1  0.49416673  0.24606523  0.63060375  1
  O  O252  1  0.49373582  0.75021924  0.13513143  1
  O  O253  1  0.49500678  0.74554974  0.63041798  1
  O  O254  1  1.00242584  0.24055973  0.13524824  1
  O  O255  1  0.99307721  0.24149047  0.62934646  1
  O  O256  1  0.99412998  0.74362127  0.13141172  1
  O  O257  1  0.99003288  0.74720865  0.63285124  1
  O  O258  1  0.00039689  0.25310455  0.36411409  1
  O  O259  1  0.00802881  0.25505008  0.86922109  1
  O  O260  1  -0.00126806  0.75507703  0.36923259  1
  O  O261  1  0.00572503  0.75155510  0.86654299  1
  O  O262  1  0.50431018  0.25568986  0.36836464  1
  O  O263  1  0.50149360  0.25968853  0.86692405  1
  O  O264  1  0.49838215  0.75632911  0.37030820  1
  O  O265  1  0.50353798  0.76224857  0.86946299  1
  O  O266  1  0.24106282  0.12386832  0.49566217  1
  O  O267  1  0.25809956  0.14008405  1.00488860  1
  O  O268  1  0.24537788  0.62884148  0.49548411  1
  O  O269  1  0.24516808  0.63193120  0.99574708  1
  O  O270  1  0.74417202  0.12674279  0.48856178  1
  O  O271  1  0.75037768  0.12563150  0.98382326  1
  O  O272  1  0.75560328  0.63274662  0.49080270  1
  O  O273  1  0.74381442  0.63210511  0.99125020  1
  O  O274  1  0.25590155  0.37016640  0.00648279  1
  O  O275  1  0.25660857  0.37331412  0.50544113  1
  O  O276  1  0.26081396  0.86989140  -0.00032831  1
  O  O277  1  0.25627739  0.86835916  0.50056756  1
  O  O278  1  0.75300083  0.37482712  0.00258302  1
  O  O279  1  0.75392960  0.37016197  0.50816020  1
  O  O280  1  0.75751355  0.86414935  -0.00508808  1
  O  O281  1  0.75539148  0.86546514  0.50507181  1
  O  O282  1  0.13195806  0.49259752  0.24847059  1
  O  O283  1  0.12653556  0.49237224  0.74314182  1
  O  O284  1  0.13071634  0.99364431  0.24324512  1
  O  O285  1  0.13150358  0.99030527  0.74751718  1
  O  O286  1  0.62920059  0.49628538  0.24451905  1
  O  O287  1  0.63087006  0.49535224  0.73915574  1
  O  O288  1  0.59756108  0.98897010  0.24015180  1
  O  O289  1  0.63192395  0.99346583  0.74662250  1
  O  O290  1  0.37096911  0.00553509  0.25597862  1
  O  O291  1  0.36684736  0.01046194  0.74636118  1
  O  O292  1  0.36981347  0.50453628  0.25503300  1
  O  O293  1  0.37316471  0.51078489  0.75207422  1
  O  O294  1  0.88213616  0.00892675  0.26096992  1
  O  O295  1  0.86809152  0.00483137  0.74955718  1
  O  O296  1  0.86956160  0.50585312  0.25593583  1
  O  O297  1  0.87043368  0.49814439  0.76078383  1
  O  O298  1  0.11765548  0.37221906  0.36740354  1
  O  O299  1  0.11873955  0.36943203  0.86770149  1
  O  O300  1  0.11716253  0.87442483  0.36939836  1
  O  O301  1  0.12419135  0.86782966  0.86462682  1
  O  O302  1  0.61861572  0.37040898  0.36930323  1
  O  O303  1  0.61819607  0.37809828  0.86503774  1
  O  O304  1  0.60972600  0.87177818  0.37720632  1
  O  O305  1  0.61463674  0.87512313  0.87021450  1
  O  O306  1  0.38237784  0.13159979  0.13079225  1
  O  O307  1  0.38228073  0.13241250  0.62921079  1
  O  O308  1  0.37658715  0.63315949  0.13149827  1
  O  O309  1  0.38140948  0.63113302  0.63154069  1
  O  O310  1  0.88585675  0.12304478  0.13650213  1
  O  O311  1  0.88161531  0.13157666  0.62712458  1
  O  O312  1  0.88126242  0.62908384  0.13015106  1
  O  O313  1  0.87445852  0.63789018  0.62321131  1
  O  O314  1  0.25379930  0.25552014  0.11783985  1
  O  O315  1  0.25675033  0.25700011  0.62195983  1
  O  O316  1  0.25687368  0.75378129  0.11911219  1
  O  O317  1  0.25757708  0.75127037  0.61871832  1
  O  O318  1  0.75405297  0.25176158  0.12371831  1
  O  O319  1  0.76010714  0.25422237  0.62597594  1
  O  O320  1  0.75818338  0.74228577  0.11117834  1
  O  O321  1  0.75586764  0.75308412  0.62115661  1
  O  O322  1  0.24740643  0.24021600  0.37737068  1
  O  O323  1  0.24025988  0.25650907  0.88445305  1
  O  O324  1  0.24958084  0.74203803  0.38284070  1
  O  O325  1  0.24442937  0.74491003  0.88189868  1
  O  O326  1  0.74421837  0.23935305  0.37552995  1
  O  O327  1  0.74920757  0.23861277  0.86743535  1
  O  O328  1  0.74961607  0.73967503  0.38656319  1
  O  O329  1  0.74996687  0.74198981  0.88405983  1
  O  O330  1  -0.00693861  0.12426773  0.01549299  1
  O  O331  1  0.00694399  0.12344395  0.50748403  1
  O  O332  1  0.00540709  0.62147269  0.00486709  1
  O  O333  1  0.00564962  0.61667797  0.50175512  1
  O  O334  1  0.49416976  0.11927129  0.00704600  1
  O  O335  1  0.50459100  0.11956517  0.50360611  1
  O  O336  1  0.51114223  0.62313224  -0.00149559  1
  O  O337  1  0.49374725  0.61651666  0.50877099  1
  O  O338  1  0.49437344  0.38213731  0.49363401  1
  O  O339  1  0.49492708  0.38129509  0.99418308  1
  O  O340  1  0.49389765  0.87830148  0.49312239  1
  O  O341  1  0.49440900  0.88266410  0.99411650  1
  O  O342  1  0.99869936  0.37980362  0.49197041  1
  O  O343  1  1.00139618  0.38353307  0.99194425  1
  O  O344  1  0.99297383  0.87373022  0.49477529  1
  O  O345  1  0.98867129  0.87343773  0.99931421  1
  O  O346  1  0.49462738  0.49528020  0.37905063  1
  O  O347  1  0.49937482  0.49519033  0.88104680  1
  O  O348  1  0.49271472  0.99189021  0.38207311  1
  O  O349  1  0.50269186  0.99049098  0.88308099  1
  O  O350  1  0.99407144  0.49367049  0.37892187  1
  O  O351  1  0.99403320  0.49761825  0.87749043  1
  O  O352  1  0.98875073  0.99266914  0.37701239  1
  O  O353  1  0.99678604  0.99657328  0.87930144  1
  O  O354  1  0.00940028  0.00710105  0.12521798  1
  O  O355  1  -0.00098553  0.01224088  0.62446835  1
  O  O356  1  0.00147311  0.50762314  0.11802883  1
  O  O357  1  0.00568329  0.49951656  0.61924000  1
  O  O358  1  0.49315547  0.01248664  0.11336659  1
  O  O359  1  0.50103833  0.00672286  0.61755746  1
  O  O360  1  0.50759499  0.50477238  0.11740918  1
  O  O361  1  0.50819751  0.50484365  0.62017121  1
  O  O362  1  0.24524688  0.37865651  0.24437675  1
  O  O363  1  0.24462493  0.37580423  0.74261635  1
  O  O364  1  0.24501054  0.88176528  0.25054926  1
  O  O365  1  0.24212966  0.88083932  0.74943282  1
  O  O366  1  0.74163131  0.38321901  0.25160793  1
  O  O367  1  0.74495300  0.38376540  0.74338642  1
  O  O368  1  0.74397558  0.85687401  0.24865130  1
  O  O369  1  0.74484322  0.87912998  0.74639025  1
  O  O370  1  0.25567605  0.11933247  0.25521705  1
  O  O371  1  0.26058926  0.11701520  0.74354591  1
  O  O372  1  0.25447584  0.61945527  0.25579728  1
  O  O373  1  0.25670992  0.62641358  0.75757446  1
  O  O374  1  0.76069524  0.12938697  0.26192866  1
  O  O375  1  0.75506650  0.11864042  0.75339630  1
  O  O376  1  0.75582246  0.62136908  0.25903475  1
  O  O377  1  0.74186889  0.62067767  0.76391245  1
  O  O378  1  0.37070114  0.11932956  0.37002732  1
  O  O379  1  0.38025575  0.13125356  0.86092831  1
  O  O380  1  0.36869380  0.61782470  0.36985671  1
  O  O381  1  0.36915524  0.62735588  0.86943933  1
  O  O382  1  0.86925900  0.11667979  0.36921954  1
  O  O383  1  0.86733555  0.12410358  0.86488782  1
  O  O384  1  0.86622068  0.61842851  0.36971685  1
  O  O385  1  0.86508346  0.61685462  0.88023530  1
  O  O386  1  0.13100465  0.37618454  0.13186155  1
  O  O387  1  0.12974527  0.37793210  0.62980470  1
  O  O388  1  0.12641468  0.88371688  0.13395772  1
  O  O389  1  0.12571417  0.87411572  0.63699159  1
  O  O390  1  0.62413206  0.38325726  0.13272102  1
  O  O391  1  0.63017024  0.38437220  0.62982365  1
  O  O392  1  0.63456840  0.87875372  0.12730616  1
  O  O393  1  0.63204459  0.87700800  0.63256817  1
  O  O394  1  0.11483525  0.25333497  0.25145176  1
  O  O395  1  0.12167807  0.25527187  0.75648936  1
  O  O396  1  0.11864537  0.75608517  0.25285880  1
  O  O397  1  0.11915884  0.75734826  0.75434515  1
  O  O398  1  0.61764592  0.25580489  0.25587990  1
  O  O399  1  0.61652809  0.25915799  0.74848017  1
  O  O400  1  0.60890136  0.74797852  0.25379057  1
  O  O401  1  0.61744017  0.75887103  0.75241714  1
  O  O402  1  0.37934200  0.24567744  0.24367389  1
  O  O403  1  0.37948404  0.24320947  0.74360865  1
  O  O404  1  0.38107137  0.74454380  0.24643956  1
  O  O405  1  0.38118090  0.74631107  0.74507805  1
  O  O406  1  0.88561871  0.23750680  0.25101323  1
  O  O407  1  0.88220481  0.24404264  0.73971956  1
  O  O408  1  0.88223168  0.74203039  0.24478610  1
  O  O409  1  0.88444391  0.75770088  0.74151429  1
  O  O410  1  0.38101195  0.49381470  0.49421810  1
  O  O411  1  0.38249249  0.49509347  0.99932389  1
  O  O412  1  0.37934029  0.99487485  0.49554954  1
  O  O413  1  0.38342830  0.98873548  1.00282541  1
  O  O414  1  0.88188397  0.49675656  0.49302263  1
  O  O415  1  0.88242915  0.50054734  0.98653479  1
  O  O416  1  0.87639636  0.99246902  0.48964907  1
  O  O417  1  0.87791373  0.98717199  1.00001272  1
  O  O418  1  0.12600395  -0.00842658  0.01529345  1
  O  O419  1  0.12173750  0.01051003  0.50390114  1
  O  O420  1  0.11819371  0.50835238  0.00004819  1
  O  O421  1  0.11900407  0.50361367  0.50542762  1
  O  O422  1  0.60913962  0.00619798  0.00309326  1
  O  O423  1  0.61774194  0.00684262  0.50024081  1
  O  O424  1  0.62108467  0.50967122  0.00423208  1
  O  O425  1  0.61938346  0.49344542  0.51189787  1
  O  O426  1  0.36978112  0.36967173  0.11970926  1
  O  O427  1  0.37074888  0.37038819  0.61980611  1
  O  O428  1  0.37595416  0.87050050  0.11481396  1
  O  O429  1  0.37615991  0.86737959  0.61859092  1
  O  O430  1  0.87228486  0.37132044  0.12251291  1
  O  O431  1  0.87043526  0.36437758  0.62632972  1
  O  O432  1  0.87300172  0.86786927  0.11684499  1
  O  O433  1  0.86860468  0.86487998  0.62003250  1
  O  O434  1  0.12954183  0.12218382  0.38349999  1
  O  O435  1  0.12002863  0.13916508  0.86796440  1
  O  O436  1  0.13199811  0.62493702  0.38308017  1
  O  O437  1  0.13115144  0.63219978  0.88150413  1
  O  O438  1  0.63158895  0.12908921  0.37760404  1
  O  O439  1  0.63608892  0.12750549  0.87183754  1
  O  O440  1  0.63880628  0.62484355  0.37106860  1
  O  O441  1  0.63479211  0.62537291  0.88583071  1
