# generated using pymatgen
data_V93Zn93O256
_symmetry_space_group_name_H-M   'P 1'
_cell_length_a   17.05278158
_cell_length_b   17.05176768
_cell_length_c   17.05451326
_cell_angle_alpha   89.95469186
_cell_angle_beta   89.97257506
_cell_angle_gamma   90.04043830
_symmetry_Int_Tables_number   1
_chemical_formula_structural   V93Zn93O256
_chemical_formula_sum   'V93 Zn93 O256'
_cell_volume   4959.10920021
_cell_formula_units_Z   1
loop_
 _symmetry_equiv_pos_site_id
 _symmetry_equiv_pos_as_xyz
  1  'x, y, z'
loop_
 _atom_site_type_symbol
 _atom_site_label
 _atom_site_symmetry_multiplicity
 _atom_site_fract_x
 _atom_site_fract_y
 _atom_site_fract_z
 _atom_site_occupancy
  V  V0  1  0.00759179  0.37647158  0.87044991  1
  V  V1  1  0.62741958  0.87613286  0.74780544  1
  V  V2  1  0.12525246  0.12331464  0.50061497  1
  V  V3  1  0.62498214  0.37540234  0.74998527  1
  V  V4  1  0.49943746  0.50052697  0.00093500  1
  V  V5  1  0.24923673  0.74836292  0.50082488  1
  V  V6  1  0.74946308  0.25048584  -0.00166303  1
  V  V7  1  0.87418355  0.61943177  0.25296896  1
  V  V8  1  0.37351076  0.49885022  0.87603631  1
  V  V9  1  0.24495221  0.12802686  0.88060539  1
  V  V10  1  0.25251727  -0.00038530  0.75041304  1
  V  V11  1  0.62528839  0.24962178  0.87390422  1
  V  V12  1  0.75103080  0.75120915  -0.00106086  1
  V  V13  1  0.37504488  0.74869909  0.62541861  1
  V  V14  1  0.62534202  0.12486816  0.49911757  1
  V  V15  1  0.37403958  0.62348601  0.25164854  1
  V  V16  1  0.00132763  0.12449701  0.62631163  1
  V  V17  1  0.87422586  0.37784776  -0.00281045  1
  V  V18  1  0.49971182  0.74948334  0.25001264  1
  V  V19  1  0.12345299  0.25056715  0.37522329  1
  V  V20  1  0.49838496  0.37512911  0.37575807  1
  V  V21  1  0.25019326  0.62401982  0.87587085  1
  V  V22  1  0.25040491  0.87348199  0.12519778  1
  V  V23  1  0.37851482  0.87604668  -0.00202551  1
  V  V24  1  0.87883495  0.74526922  0.62478532  1
  V  V25  1  0.87634875  0.88108874  -0.00432624  1
  V  V26  1  0.12030557  0.62545071  0.50571096  1
  V  V27  1  -0.00223583  0.37804780  0.37370603  1
  V  V28  1  0.37684910  0.12438854  0.25039538  1
  V  V29  1  0.62397956  0.49993760  0.62601062  1
  V  V30  1  0.62594651  0.00201807  0.12316089  1
  V  V31  1  0.75043701  0.25069753  0.49940923  1
  V  V32  1  0.50195660  0.75001482  0.75004244  1
  V  V33  1  0.62619426  0.87548462  0.24867030  1
  V  V34  1  0.62423156  0.62495071  0.00098505  1
  V  V35  1  -0.00140462  0.88085641  0.87447521  1
  V  V36  1  0.12645916  0.87416304  0.74975184  1
  V  V37  1  0.87502648  0.24866448  0.62696488  1
  V  V38  1  0.75243149  0.75379262  0.50079039  1
  V  V39  1  0.24726876  0.49748064  0.25239998  1
  V  V40  1  0.62497439  0.62546578  0.49969206  1
  V  V41  1  0.75065641  0.50155103  0.75019940  1
  V  V42  1  0.87649143  0.75129210  0.12533005  1
  V  V43  1  0.37470205  0.62405866  0.75080379  1
  V  V44  1  0.37504102  0.74881774  0.12599845  1
  V  V45  1  -0.00004125  0.74481553  0.74620324  1
  V  V46  1  0.25127724  -0.00172010  0.25062239  1
  V  V47  1  0.12475925  -0.00031930  0.62453134  1
  V  V48  1  0.87343608  0.37991654  0.49648920  1
  V  V49  1  0.12323645  0.49970023  0.12729556  1
  V  V50  1  0.87732675  0.24449608  0.13086918  1
  V  V51  1  0.50105019  0.87553392  0.37500378  1
  V  V52  1  0.50183862  -0.00016166  0.49917350  1
  V  V53  1  0.74654654  0.37932921  0.12535679  1
  V  V54  1  0.25083967  0.87400039  0.62565366  1
  V  V55  1  0.75403239  0.61925461  0.37469244  1
  V  V56  1  0.75662216  0.12207514  0.87301052  1
  V  V57  1  0.24494859  0.37320035  0.63008926  1
  V  V58  1  0.49980185  0.25061495  0.24819399  1
  V  V59  1  0.12408603  0.62559025  0.00103836  1
  V  V60  1  0.75652904  0.00471394  0.24835926  1
  V  V61  1  0.12542091  0.87319278  0.25022674  1
  V  V62  1  0.49829382  0.49961893  0.49957744  1
  V  V63  1  0.62609230  0.75066310  0.87410613  1
  V  V64  1  0.36834129  0.36728008  0.00139624  1
  V  V65  1  -0.00312790  0.50297939  0.50142252  1
  V  V66  1  0.50107368  0.12468845  0.62326548  1
  V  V67  1  0.62485491  0.25078908  0.37417419  1
  V  V68  1  0.12435694  0.74997618  0.37610966  1
  V  V69  1  0.37389233  0.37532331  0.50126059  1
  V  V70  1  0.12723356  0.00712221  0.12087447  1
  V  V71  1  0.75152110  0.87637334  0.12376441  1
  V  V72  1  0.24923924  0.12400500  0.37635234  1
  V  V73  1  0.12529869  0.75020002  0.87535392  1
  V  V74  1  0.75673237  0.12693629  0.37001844  1
  V  V75  1  0.50094244  0.24920374  0.74872232  1
  V  V76  1  0.12119872  0.49748429  0.62873033  1
  V  V77  1  0.75173554  0.62566426  0.87399037  1
  V  V78  1  0.25018094  0.74954087  0.00014940  1
  V  V79  1  0.49865637  0.37434347  0.87516210  1
  V  V80  1  0.75789416  0.00052076  0.75151882  1
  V  V81  1  0.37698310  0.87394628  0.49988450  1
  V  V82  1  0.49912843  0.62411290  0.62474498  1
  V  V83  1  0.87847920  0.00065603  0.37455634  1
  V  V84  1  0.62424362  0.12435467  -0.00055984  1
  V  V85  1  0.24634870  0.49716611  0.75056057  1
  V  V86  1  0.00532636  0.00553138  0.00003728  1
  V  V87  1  0.00773983  0.25439364  0.75081243  1
  V  V88  1  0.37630730  0.12325151  0.74952946  1
  V  V89  1  0.00020800  0.75041997  0.25049268  1
  V  V90  1  -0.00089797  0.50243074  -0.00105578  1
  V  V91  1  0.37411048  0.24984173  0.62448649  1
  V  V92  1  0.62647184  0.75049267  0.37437470  1
  Zn  Zn93  1  0.37110682  0.24927947  0.12412933  1
  Zn  Zn94  1  0.37896383  0.00142146  0.87515762  1
  Zn  Zn95  1  0.00524801  0.12842798  0.12289865  1
  Zn  Zn96  1  0.74948271  0.37541875  0.62486173  1
  Zn  Zn97  1  0.50037496  0.87758141  0.87401590  1
  Zn  Zn98  1  0.24977045  0.25022221  0.50076600  1
  Zn  Zn99  1  0.50192792  0.00090604  -0.00174902  1
  Zn  Zn100  1  0.75380191  0.87917177  0.62405310  1
  Zn  Zn101  1  0.37236421  0.49875726  0.37610879  1
  Zn  Zn102  1  0.87905383  0.12059576  0.75472940  1
  Zn  Zn103  1  -0.00039552  0.87574859  0.37623430  1
  Zn  Zn104  1  0.24730910  0.37021243  0.12575554  1
  Zn  Zn105  1  -0.01168610  0.23479221  0.26120488  1
  Zn  Zn106  1  0.62410032  0.37913450  0.25045828  1
  Zn  Zn107  1  0.12026944  0.37351431  0.24961539  1
  Zn  Zn108  1  0.74753617  0.50022412  0.25220717  1
  Zn  Zn109  1  0.62226037  0.50201992  0.12764145  1
  Zn  Zn110  1  0.88004478  0.62256606  0.74758049  1
  Zn  Zn111  1  -0.00071193  -0.00154846  0.50030732  1
  Zn  Zn112  1  0.22231161  0.22821277  0.02275258  1
  Zn  Zn113  1  0.24846434  0.62283800  0.37798107  1
  Zn  Zn114  1  -0.00268632  0.62569461  0.12538440  1
  Zn  Zn115  1  0.12418279  0.24994253  0.88096518  1
  Zn  Zn116  1  0.37552225  -0.00128751  0.37549186  1
  Zn  Zn117  1  0.87617988  0.50281013  0.87190280  1
  Zn  Zn118  1  0.62803048  0.00066885  0.62409031  1
  Zn  Zn119  1  0.49997633  0.12477275  0.12198637  1
  Zn  Zn120  1  0.87961554  0.87601875  0.50065073  1
  Zn  Zn121  1  0.50197252  0.62338544  0.12594075  1
  Zn  Zn122  1  0.18609860  0.18768116  0.19594960  1
  Zn  Zn123  1  0.18815020  0.18572102  0.69052777  1
  Zn  Zn124  1  0.18751827  0.68523629  0.18814907  1
  Zn  Zn125  1  0.18636198  0.68482276  0.68751850  1
  Zn  Zn126  1  0.68763583  0.18997730  0.18580588  1
  Zn  Zn127  1  0.68821147  0.18602900  0.68684324  1
  Zn  Zn128  1  0.68880093  0.68782587  0.18620707  1
  Zn  Zn129  1  0.68950080  0.68770742  0.68554335  1
  Zn  Zn130  1  0.31146946  0.31249444  0.31342741  1
  Zn  Zn131  1  0.31254295  0.30969074  0.81237574  1
  Zn  Zn132  1  0.31164286  0.81113259  0.31512080  1
  Zn  Zn133  1  0.31379901  0.81158607  0.81345936  1
  Zn  Zn134  1  0.81107280  0.31677065  0.31192875  1
  Zn  Zn135  1  0.81405322  0.31300901  0.81176847  1
  Zn  Zn136  1  0.81431939  0.81322853  0.31237606  1
  Zn  Zn137  1  0.81471808  0.81331178  0.81126590  1
  Zn  Zn138  1  0.18602850  0.43674362  0.44065352  1
  Zn  Zn139  1  0.18726766  0.43669882  0.94084237  1
  Zn  Zn140  1  0.18771134  0.93662155  0.43758647  1
  Zn  Zn141  1  0.18980013  0.93959710  0.93610567  1
  Zn  Zn142  1  0.68463893  0.43700625  0.43804479  1
  Zn  Zn143  1  0.68595755  0.43939736  0.93718199  1
  Zn  Zn144  1  0.68831879  0.93932628  0.43490639  1
  Zn  Zn145  1  0.68797528  0.93898736  0.93419423  1
  Zn  Zn146  1  0.31521190  0.05987378  0.06480770  1
  Zn  Zn147  1  0.31304776  0.06111192  0.56163893  1
  Zn  Zn148  1  0.31235361  0.55944628  0.06474530  1
  Zn  Zn149  1  0.30960496  0.56094425  0.56346979  1
  Zn  Zn150  1  0.81245377  0.06254509  0.05843512  1
  Zn  Zn151  1  0.81206773  0.06246819  0.56155411  1
  Zn  Zn152  1  0.81211830  0.56446541  0.06356712  1
  Zn  Zn153  1  0.81215507  0.56505586  0.56448776  1
  Zn  Zn154  1  0.43557815  0.43671304  0.18505103  1
  Zn  Zn155  1  0.43486756  0.43683989  0.68759586  1
  Zn  Zn156  1  0.43957471  0.93848307  0.18519785  1
  Zn  Zn157  1  0.43998389  0.93806215  0.68618610  1
  Zn  Zn158  1  0.93545561  0.43673116  0.18640669  1
  Zn  Zn159  1  0.93637032  0.43554836  0.68503650  1
  Zn  Zn160  1  0.94090179  0.93836785  0.18643544  1
  Zn  Zn161  1  0.93715845  0.93280745  0.68491585  1
  Zn  Zn162  1  0.06169331  0.06441919  0.30592646  1
  Zn  Zn163  1  0.06339129  0.06325840  0.80955053  1
  Zn  Zn164  1  0.05971020  0.56457273  0.31698637  1
  Zn  Zn165  1  0.06369166  0.56151461  0.81403050  1
  Zn  Zn166  1  0.56560876  0.06258428  0.31243729  1
  Zn  Zn167  1  0.56451374  0.05992987  0.81388522  1
  Zn  Zn168  1  0.56365201  0.56122416  0.31245082  1
  Zn  Zn169  1  0.56313678  0.56286275  0.81506926  1
  Zn  Zn170  1  0.43627289  0.18848141  0.43685416  1
  Zn  Zn171  1  0.43631394  0.18553861  0.93554635  1
  Zn  Zn172  1  0.43731555  0.68706870  0.43590867  1
  Zn  Zn173  1  0.43929110  0.68844747  0.93681690  1
  Zn  Zn174  1  0.93809402  0.18703933  0.44240623  1
  Zn  Zn175  1  0.93925261  0.19148511  0.93962247  1
  Zn  Zn176  1  0.93780412  0.68743971  0.43610660  1
  Zn  Zn177  1  0.93713481  0.68979750  0.93461916  1
  Zn  Zn178  1  0.06021669  0.31604284  0.05991982  1
  Zn  Zn179  1  0.06133445  0.31288751  0.56073097  1
  Zn  Zn180  1  0.06255843  0.81484580  0.06402975  1
  Zn  Zn181  1  0.06050841  0.81496085  0.56161524  1
  Zn  Zn182  1  0.56002755  0.31219422  0.06124788  1
  Zn  Zn183  1  0.56276205  0.31266812  0.56221220  1
  Zn  Zn184  1  0.56268724  0.81126329  0.06386535  1
  Zn  Zn185  1  0.56422545  0.81232998  0.56345651  1
  O  O186  1  0.13243646  0.10959775  0.12549622  1
  O  O187  1  0.12104076  0.11955125  0.62131934  1
  O  O188  1  0.12260476  0.61579680  0.11944146  1
  O  O189  1  0.12954309  0.61421559  0.61395834  1
  O  O190  1  0.62754776  0.12002427  0.11680145  1
  O  O191  1  0.61843346  0.12631315  0.61645088  1
  O  O192  1  0.62367138  0.62515331  0.11575636  1
  O  O193  1  0.61861831  0.62026110  0.61945638  1
  O  O194  1  0.38023996  0.37565903  0.38328395  1
  O  O195  1  0.37885925  0.37904136  0.88096491  1
  O  O196  1  0.38286970  0.87424056  0.38217995  1
  O  O197  1  0.37562249  0.87471545  0.88637016  1
  O  O198  1  0.88230120  0.36861167  0.38819467  1
  O  O199  1  0.88049817  0.37638836  0.88562425  1
  O  O200  1  0.87508602  0.88742690  0.37636600  1
  O  O201  1  0.88688615  0.87003283  0.88459189  1
  O  O202  1  0.25180636  0.00540689  0.36822394  1
  O  O203  1  0.25420824  0.00955096  0.86869454  1
  O  O204  1  0.24907615  0.50121096  0.36565599  1
  O  O205  1  0.25313139  0.50462046  0.87043870  1
  O  O206  1  0.75679043  0.00814739  0.36692600  1
  O  O207  1  0.74507161  0.01171339  0.86476300  1
  O  O208  1  0.74446343  0.51592930  0.37707292  1
  O  O209  1  0.75023721  0.50546744  0.86481137  1
  O  O210  1  0.23889198  0.49960644  0.13438087  1
  O  O211  1  0.24208728  0.49175134  0.63027135  1
  O  O212  1  0.24476697  0.99281098  0.12986596  1
  O  O213  1  0.24543695  0.99308923  0.63026663  1
  O  O214  1  0.74805851  0.48866817  0.12322541  1
  O  O215  1  0.74252787  0.50043359  0.63383758  1
  O  O216  1  0.74753215  0.99653122  0.13146112  1
  O  O217  1  0.74682483  0.99954371  0.63398024  1
  O  O218  1  -0.00305658  0.37641635  0.26516002  1
  O  O219  1  -0.00921424  0.36668295  0.76017507  1
  O  O220  1  0.00754637  0.86851791  0.25161788  1
  O  O221  1  0.00599715  0.86856916  0.75830184  1
  O  O222  1  0.49753600  0.36503331  0.25610932  1
  O  O223  1  0.50421229  0.36983033  0.75525340  1
  O  O224  1  0.50623280  0.86971592  0.25461392  1
  O  O225  1  0.51050758  0.86833125  0.74866752  1
  O  O226  1  0.49308831  0.13318382  0.25255245  1
  O  O227  1  0.49725656  0.12998688  0.74385126  1
  O  O228  1  0.48993802  0.63064228  0.25077049  1
  O  O229  1  0.49486838  0.62910105  0.74471619  1
  O  O230  1  1.00308595  0.12712841  0.23602755  1
  O  O231  1  0.99625905  0.13413883  0.74605753  1
  O  O232  1  0.99032299  0.63105387  0.25068756  1
  O  O233  1  1.00020916  0.64149382  0.75935489  1
  O  O234  1  0.37768381  0.26074289  0.00091819  1
  O  O235  1  0.37305696  0.25615863  0.50737519  1
  O  O236  1  0.36954890  0.75553873  0.00511641  1
  O  O237  1  0.37067590  0.75349094  0.50638973  1
  O  O238  1  0.86971033  0.26154331  0.00726534  1
  O  O239  1  0.87100930  0.25843514  0.50854509  1
  O  O240  1  0.87125555  0.76058485  0.00447484  1
  O  O241  1  0.86774714  0.74951532  0.50587979  1
  O  O242  1  0.12504423  0.24346169  0.49046761  1
  O  O243  1  0.11808507  0.24867278  0.99433757  1
  O  O244  1  0.12840682  0.74220043  0.49876235  1
  O  O245  1  0.13044482  0.74616223  0.99550844  1
  O  O246  1  0.63060475  0.24564516  0.49380084  1
  O  O247  1  0.63042265  0.24538036  0.99350000  1
  O  O248  1  0.63300498  0.74478035  0.49562207  1
  O  O249  1  0.63202219  0.74696832  0.99425795  1
  O  O250  1  0.49828322  0.24768095  0.13795572  1
  O  O251  1  0.49468275  0.24481388  0.62966565  1
  O  O252  1  0.49305785  0.74788801  0.13328811  1
  O  O253  1  0.49476306  0.74315893  0.62970660  1
  O  O254  1  0.98310475  0.25350594  0.12251006  1
  O  O255  1  0.99432234  0.24710625  0.63143670  1
  O  O256  1  0.99478573  0.74884640  0.13148149  1
  O  O257  1  0.99307875  0.75729551  0.63672039  1
  O  O258  1  0.00526553  0.25821194  0.37781383  1
  O  O259  1  -0.00216780  0.25860044  0.86636989  1
  O  O260  1  0.00720670  0.75126140  0.36823646  1
  O  O261  1  0.00644646  0.76159110  0.86875881  1
  O  O262  1  0.50479569  0.25471074  0.36750653  1
  O  O263  1  0.50565288  0.25463709  0.86755306  1
  O  O264  1  0.50681486  0.75541199  0.36996101  1
  O  O265  1  0.50794351  0.75127789  0.86672695  1
  O  O266  1  0.24416288  0.12674036  0.49447297  1
  O  O267  1  0.25955077  0.12344272  0.98468246  1
  O  O268  1  0.24036342  0.62994632  0.50012087  1
  O  O269  1  0.24528104  0.62943326  0.99528155  1
  O  O270  1  0.74507247  0.13132299  0.48997141  1
  O  O271  1  0.74492768  0.12991099  0.99091577  1
  O  O272  1  0.74596748  0.63379389  0.49358232  1
  O  O273  1  0.74559075  0.63206619  0.99416227  1
  O  O274  1  0.26037290  0.37350923  0.00098871  1
  O  O275  1  0.25548819  0.37417825  0.51192075  1
  O  O276  1  0.25834251  0.86875590  0.00452160  1
  O  O277  1  0.25615531  0.86847408  0.50672123  1
  O  O278  1  0.75625956  0.37117609  0.00402743  1
  O  O279  1  0.75783516  0.37055842  0.49993682  1
  O  O280  1  0.75885626  0.87233031  0.00219629  1
  O  O281  1  0.74940241  0.86221279  0.49851368  1
  O  O282  1  0.13007802  0.50246876  0.24399174  1
  O  O283  1  0.13010819  0.50813882  0.73702477  1
  O  O284  1  0.13251383  0.99289220  0.24102919  1
  O  O285  1  0.13187708  0.99290844  0.74378168  1
  O  O286  1  0.62823575  0.49684511  0.24534846  1
  O  O287  1  0.63131685  0.49539924  0.74618918  1
  O  O288  1  0.63617860  0.99508207  0.24500116  1
  O  O289  1  0.63425235  0.99066329  0.74801338  1
  O  O290  1  0.37093799  0.00775993  0.25125620  1
  O  O291  1  0.36966988  0.00503070  0.74889257  1
  O  O292  1  0.36552474  0.50749683  0.25000408  1
  O  O293  1  0.36829280  0.50513532  0.75615961  1
  O  O294  1  0.86252840  -0.00483109  0.25528152  1
  O  O295  1  0.86279634  0.00029267  0.74502854  1
  O  O296  1  0.87132192  0.51610407  0.24268933  1
  O  O297  1  0.86386096  0.50180392  0.74768005  1
  O  O298  1  0.11498320  0.36652771  0.37879866  1
  O  O299  1  0.11019495  0.37671630  0.87839218  1
  O  O300  1  0.12535860  0.86823948  0.36739858  1
  O  O301  1  0.12004182  0.86896953  0.86958036  1
  O  O302  1  0.61739847  0.36762568  0.37480321  1
  O  O303  1  0.61868695  0.36947863  0.86977887  1
  O  O304  1  0.62134954  0.86968177  0.36813964  1
  O  O305  1  0.62589291  0.86851293  0.86384864  1
  O  O306  1  0.37698434  0.12606761  0.13867500  1
  O  O307  1  0.38082871  0.13035492  0.62903224  1
  O  O308  1  0.37435786  0.63014615  0.13639646  1
  O  O309  1  0.37922350  0.62892483  0.63103586  1
  O  O310  1  0.86998768  0.14381772  0.11706570  1
  O  O311  1  0.88130309  0.13671131  0.62298362  1
  O  O312  1  0.87430892  0.63420987  0.13325938  1
  O  O313  1  0.87227036  0.64030946  0.62805540  1
  O  O314  1  0.25217863  0.25230269  0.12911785  1
  O  O315  1  0.25407033  0.25798963  0.62613998  1
  O  O316  1  0.25482551  0.75399842  0.11963590  1
  O  O317  1  0.25557011  0.75423504  0.62130227  1
  O  O318  1  0.75836796  0.25943225  0.11925587  1
  O  O319  1  0.75911484  0.25103153  0.61896008  1
  O  O320  1  0.75569072  0.75808392  0.11827608  1
  O  O321  1  0.75730101  0.75064524  0.61475672  1
  O  O322  1  0.23938144  0.24463573  0.37682580  1
  O  O323  1  0.24743435  0.23454905  0.86965967  1
  O  O324  1  0.24258760  0.74793216  0.38379630  1
  O  O325  1  0.24465467  0.74360116  0.87994551  1
  O  O326  1  0.74666606  0.24395619  0.37819933  1
  O  O327  1  0.74400530  0.24468284  0.87821717  1
  O  O328  1  0.74578120  0.74327525  0.38276525  1
  O  O329  1  0.74591356  0.74614238  0.87989971  1
  O  O330  1  -0.00810031  0.10920303  0.00218309  1
  O  O331  1  0.00761893  0.12198771  0.50854639  1
  O  O332  1  0.00591474  0.62056164  -0.00046631  1
  O  O333  1  0.00790627  0.61479816  0.49567583  1
  O  O334  1  0.50877581  0.12438479  0.00140805  1
  O  O335  1  0.50523424  0.12040954  0.50289240  1
  O  O336  1  0.50547234  0.61894028  0.00014629  1
  O  O337  1  0.50488667  0.62067241  0.50502871  1
  O  O338  1  0.49390917  0.38004147  0.49637269  1
  O  O339  1  0.49178779  0.37979686  0.99333817  1
  O  O340  1  0.49708868  0.87864159  0.49523539  1
  O  O341  1  0.48904717  0.87272629  0.99928729  1
  O  O342  1  0.99198115  0.38149371  0.49329960  1
  O  O343  1  0.99042185  0.38273110  0.99104578  1
  O  O344  1  0.99839221  0.88100294  0.49403715  1
  O  O345  1  0.99471921  0.88101968  0.99267529  1
  O  O346  1  0.49805659  0.49345246  0.38259698  1
  O  O347  1  0.49296607  0.49398724  0.87939936  1
  O  O348  1  0.50051168  0.99277812  0.38045887  1
  O  O349  1  0.49702409  0.99534125  0.87945335  1
  O  O350  1  1.00622580  0.48980007  0.39003764  1
  O  O351  1  0.99684503  0.49321713  0.87883055  1
  O  O352  1  0.98714515  1.00301242  0.37239012  1
  O  O353  1  1.01056370  0.98768845  0.88256082  1
  O  O354  1  0.01120915  -0.00203961  0.11589248  1
  O  O355  1  0.00719856  0.00646002  0.62770641  1
  O  O356  1  0.00753334  0.50204323  0.11905231  1
  O  O357  1  0.01059560  0.48998032  0.61420886  1
  O  O358  1  0.51111810  0.00309852  0.12264950  1
  O  O359  1  0.50384485  0.00716282  0.61728452  1
  O  O360  1  0.50083016  0.50238025  0.11589076  1
  O  O361  1  0.50400035  0.50522209  0.62060049  1
  O  O362  1  0.24625143  0.38676302  0.24951520  1
  O  O363  1  0.25570091  0.38069573  0.73822661  1
  O  O364  1  0.24688732  0.87843886  0.24441435  1
  O  O365  1  0.24624117  0.87804484  0.74506257  1
  O  O366  1  0.74871017  0.37935883  0.23992887  1
  O  O367  1  0.74422661  0.38488538  0.74973604  1
  O  O368  1  0.74522044  0.88308925  0.24412734  1
  O  O369  1  0.74342876  0.88278357  0.75121473  1
  O  O370  1  0.25887090  0.11862373  0.25702127  1
  O  O371  1  0.25705100  0.11847972  0.75619326  1
  O  O372  1  0.25719819  0.61622478  0.25221865  1
  O  O373  1  0.25553616  0.61903318  0.75620740  1
  O  O374  1  0.74377320  0.11653067  0.25948067  1
  O  O375  1  0.75115442  0.11796702  0.75657573  1
  O  O376  1  0.75704780  0.62783649  0.25877838  1
  O  O377  1  0.74810725  0.61537061  0.75519386  1
  O  O378  1  0.36955436  0.12333509  0.36574613  1
  O  O379  1  0.36591885  0.12393103  0.86614893  1
  O  O380  1  0.37185147  0.62332731  0.36353836  1
  O  O381  1  0.36928088  0.61943006  0.87039151  1
  O  O382  1  0.86337119  0.11976721  0.37993919  1
  O  O383  1  0.85998877  0.13456215  0.87458921  1
  O  O384  1  0.86468859  0.63246657  0.36516877  1
  O  O385  1  0.86699080  0.62364965  0.87078574  1
  O  O386  1  0.12302603  0.38860818  0.12835433  1
  O  O387  1  0.13478725  0.38413571  0.61738665  1
  O  O388  1  0.13264311  0.88083246  0.13094041  1
  O  O389  1  0.13210380  0.87897358  0.63083067  1
  O  O390  1  0.63695305  0.37317484  0.12411337  1
  O  O391  1  0.62644089  0.38155607  0.63144708  1
  O  O392  1  0.63278814  0.88051712  0.12901715  1
  O  O393  1  0.62961473  0.87416830  0.63708958  1
  O  O394  1  0.11998259  0.25318358  0.26538535  1
  O  O395  1  0.11057666  0.24722193  0.75287281  1
  O  O396  1  0.12093008  0.75306345  0.25504987  1
  O  O397  1  0.11937326  0.75453152  0.75403278  1
  O  O398  1  0.61527917  0.25120841  0.25574179  1
  O  O399  1  0.62036586  0.25564603  0.75364009  1
  O  O400  1  0.62073351  0.75584730  0.25435229  1
  O  O401  1  0.62260876  0.75660429  0.75358048  1
  O  O402  1  0.38334155  0.24105961  0.25233613  1
  O  O403  1  0.38236264  0.24422133  0.74337986  1
  O  O404  1  0.37839881  0.74246931  0.24634111  1
  O  O405  1  0.38041361  0.74367912  0.74493620  1
  O  O406  1  0.87276327  0.25716941  0.23400347  1
  O  O407  1  0.88135787  0.24979467  0.73845770  1
  O  O408  1  0.87990160  0.74430588  0.24438485  1
  O  O409  1  0.88337952  0.75070271  0.74262006  1
  O  O410  1  0.38063546  0.49455343  0.50007427  1
  O  O411  1  0.37848254  0.49216239  0.99402050  1
  O  O412  1  0.38275085  0.99180023  0.49870864  1
  O  O413  1  0.37714322  0.98608166  1.00137161  1
  O  O414  1  0.88349526  0.49046381  0.51112276  1
  O  O415  1  0.87935824  0.49164131  0.99973700  1
  O  O416  1  0.87463171  0.99879075  0.48809747  1
  O  O417  1  0.88526267  0.98692339  1.00703506  1
  O  O418  1  0.11693527  -0.00985482  0.00990207  1
  O  O419  1  0.12518082  0.00583102  0.50744577  1
  O  O420  1  0.12006620  0.50574424  0.00855296  1
  O  O421  1  0.11805400  0.50679674  0.50848448  1
  O  O422  1  0.62798213  0.00605486  0.00632802  1
  O  O423  1  0.62048767  0.00653939  0.49984672  1
  O  O424  1  0.61695554  0.50683205  -0.00062010  1
  O  O425  1  0.61857764  0.50586546  0.50636330  1
  O  O426  1  0.37113431  0.37277787  0.11422048  1
  O  O427  1  0.36645093  0.36974040  0.62092345  1
  O  O428  1  0.36996767  0.86873227  0.11838432  1
  O  O429  1  0.37090851  0.86773807  0.62010967  1
  O  O430  1  0.86706994  0.36961140  0.11492468  1
  O  O431  1  0.87371486  0.36445996  0.61446576  1
  O  O432  1  0.87072081  0.87069435  0.11660518  1
  O  O433  1  0.87136504  0.86186953  0.62121067  1
  O  O434  1  0.12880766  0.13191914  0.37976027  1
  O  O435  1  0.14242100  0.12213417  0.86991101  1
  O  O436  1  0.12618996  0.63078201  0.38839469  1
  O  O437  1  0.13148785  0.63024560  0.88145476  1
  O  O438  1  0.63553831  0.13074418  0.37979424  1
  O  O439  1  0.63423796  0.13179329  0.87895157  1
  O  O440  1  0.63234552  0.63234495  0.38049480  1
  O  O441  1  0.63152473  0.63143816  0.88051056  1
