# generated using pymatgen
data_V93Zn93O256
_symmetry_space_group_name_H-M   'P 1'
_cell_length_a   17.04858649
_cell_length_b   17.04921058
_cell_length_c   17.04931904
_cell_angle_alpha   90.00579241
_cell_angle_beta   90.06663230
_cell_angle_gamma   89.93901230
_symmetry_Int_Tables_number   1
_chemical_formula_structural   V93Zn93O256
_chemical_formula_sum   'V93 Zn93 O256'
_cell_volume   4955.63313165
_cell_formula_units_Z   1
loop_
 _symmetry_equiv_pos_site_id
 _symmetry_equiv_pos_as_xyz
  1  'x, y, z'
loop_
 _atom_site_type_symbol
 _atom_site_label
 _atom_site_symmetry_multiplicity
 _atom_site_fract_x
 _atom_site_fract_y
 _atom_site_fract_z
 _atom_site_occupancy
  V  V0  1  0.25059775  0.50057467  0.25060531  1
  V  V1  1  0.87524518  0.49987001  0.37536649  1
  V  V2  1  0.62656350  0.87798202  0.25033341  1
  V  V3  1  0.12431640  0.50006702  0.12605473  1
  V  V4  1  0.37450357  -0.00128173  0.87533097  1
  V  V5  1  -0.00061638  0.24969390  0.25042135  1
  V  V6  1  0.25476420  0.61843616  0.87523456  1
  V  V7  1  0.25064355  0.37496393  0.12491195  1
  V  V8  1  0.25006400  0.24842394  0.00027867  1
  V  V9  1  0.37637191  0.61956329  0.75283218  1
  V  V10  1  0.62780047  0.00084390  0.12858692  1
  V  V11  1  0.75019029  0.87856050  0.13013134  1
  V  V12  1  0.37756273  0.38333510  -0.00706634  1
  V  V13  1  0.00089227  0.74944816  0.75165285  1
  V  V14  1  0.37455528  0.63070381  0.24664151  1
  V  V15  1  0.00096544  0.37325324  0.37484760  1
  V  V16  1  0.12578990  0.49803813  0.62540192  1
  V  V17  1  0.12620274  0.62428415  0.50076170  1
  V  V18  1  0.37543831  0.50132444  0.37394182  1
  V  V19  1  0.62539118  0.24977343  0.37457052  1
  V  V20  1  0.25452891  0.87227325  0.12617000  1
  V  V21  1  0.12505407  0.37255869  0.75004360  1
  V  V22  1  0.87494058  0.75011347  0.62524032  1
  V  V23  1  0.87505021  0.37344231  0.50028218  1
  V  V24  1  0.74947710  0.49909050  0.75000200  1
  V  V25  1  0.12432861  0.87499753  0.74700636  1
  V  V26  1  0.37600834  0.87266717  0.00263910  1
  V  V27  1  0.25242504  0.75005255  0.00210193  1
  V  V28  1  0.74853717  0.25023308  -0.00038054  1
  V  V29  1  0.74941395  0.62582619  0.37529634  1
  V  V30  1  0.12450368  0.37413642  0.25074289  1
  V  V31  1  0.74951931  -0.00126410  0.74874646  1
  V  V32  1  0.24878019  0.24801427  0.49328139  1
  V  V33  1  0.87558103  0.12650669  0.74837509  1
  V  V34  1  0.49761260  0.75202058  0.24884489  1
  V  V35  1  0.62380487  0.12551796  -0.00026813  1
  V  V36  1  0.50018765  0.37587313  0.37423225  1
  V  V37  1  0.50065092  0.62948662  0.63004369  1
  V  V38  1  0.62540238  0.75088325  0.37518652  1
  V  V39  1  0.12612728  0.87523484  0.25030215  1
  V  V40  1  0.87518531  0.62378219  0.75113130  1
  V  V41  1  0.75163940  0.24911484  0.50053630  1
  V  V42  1  0.00626443  0.11861125  0.62500736  1
  V  V43  1  0.24915664  0.87601587  0.62628174  1
  V  V44  1  0.24926245  0.12480874  0.87555831  1
  V  V45  1  0.00214240  -0.00058716  0.00046647  1
  V  V46  1  0.62623386  0.49982315  0.62458023  1
  V  V47  1  0.62496633  0.62653003  0.49895405  1
  V  V48  1  0.25011421  0.37429409  0.62409286  1
  V  V49  1  0.87576852  0.62523129  0.24993276  1
  V  V50  1  0.75047986  0.11803485  0.37111032  1
  V  V51  1  0.62494683  0.62655896  0.00045267  1
  V  V52  1  0.87525279  0.87626509  0.50108254  1
  V  V53  1  0.12589350  0.74882591  0.37631459  1
  V  V54  1  0.49892824  0.25082261  0.24952396  1
  V  V55  1  0.87491943  0.87498945  0.00050670  1
  V  V56  1  0.50021863  0.12502177  0.12538823  1
  V  V57  1  0.87348515  0.24974452  0.12466952  1
  V  V58  1  -0.00046360  0.62561685  0.12472658  1
  V  V59  1  0.24407350  -0.00006281  0.74509847  1
  V  V60  1  0.50074171  0.87617545  0.37490400  1
  V  V61  1  0.49774633  0.63145000  0.12427170  1
  V  V62  1  0.37183420  0.12619769  0.25315250  1
  V  V63  1  0.87529957  -0.00077625  0.87515293  1
  V  V64  1  0.87440555  0.37398566  0.00063500  1
  V  V65  1  0.62283543  0.87345919  0.74899641  1
  V  V66  1  0.74901974  0.49954883  0.25003554  1
  V  V67  1  0.00091794  0.74922992  0.24928771  1
  V  V68  1  0.12997411  0.11650612  0.49726936  1
  V  V69  1  0.00102654  0.62369331  0.62629336  1
  V  V70  1  0.12587414  0.62510683  -0.00066049  1
  V  V71  1  0.62416618  0.75050456  0.87227484  1
  V  V72  1  0.00034394  0.49814381  0.50053030  1
  V  V73  1  -0.00105614  0.49951211  0.00032023  1
  V  V74  1  0.61902493  0.25329815  0.87363805  1
  V  V75  1  0.37546642  0.12677545  0.74881943  1
  V  V76  1  -0.00049373  0.87532950  0.37575155  1
  V  V77  1  0.37373187  0.00153046  0.37441239  1
  V  V78  1  0.37459710  0.37462600  0.50010247  1
  V  V79  1  0.50121128  0.12505810  0.62408498  1
  V  V80  1  0.62421818  0.37639006  0.24834494  1
  V  V81  1  0.37846544  0.75028946  0.63165912  1
  V  V82  1  -0.00035094  0.37367417  0.87459155  1
  V  V83  1  0.25004628  0.74925026  0.50110325  1
  V  V84  1  0.87181494  0.11738796  0.25089734  1
  V  V85  1  0.49993084  0.50076353  0.49958186  1
  V  V86  1  0.24942134  0.00393002  0.25342168  1
  V  V87  1  0.62418104  0.50182418  0.12397595  1
  V  V88  1  -0.00040347  0.12389982  0.12483762  1
  V  V89  1  0.49932970  0.87277612  0.87099965  1
  V  V90  1  0.37516428  0.87484522  0.50065431  1
  V  V91  1  0.74963951  0.75164442  0.00069700  1
  V  V92  1  0.49986406  0.00120907  0.50003409  1
  Zn  Zn93  1  0.12423343  0.24713840  0.87480881  1
  Zn  Zn94  1  0.87651253  0.25027916  0.62543989  1
  Zn  Zn95  1  0.50000441  0.25378918  0.74839571  1
  Zn  Zn96  1  0.74854372  0.37584391  0.12403355  1
  Zn  Zn97  1  0.62541062  -0.00141373  0.62334737  1
  Zn  Zn98  1  0.25116521  0.62540973  0.37533682  1
  Zn  Zn99  1  0.49436210  0.38892402  0.86456395  1
  Zn  Zn100  1  0.37605408  0.25125213  0.62321253  1
  Zn  Zn101  1  0.12740724  0.24474242  0.37241959  1
  Zn  Zn102  1  0.00489182  -0.00271875  0.50226461  1
  Zn  Zn103  1  0.87395666  -0.00254794  0.37439150  1
  Zn  Zn104  1  -0.00071374  0.24818627  0.74902435  1
  Zn  Zn105  1  0.00190979  0.87256451  0.87617250  1
  Zn  Zn106  1  0.62209544  0.37452284  0.74795183  1
  Zn  Zn107  1  0.37572436  0.25140079  0.12505163  1
  Zn  Zn108  1  0.74764325  0.12625678  0.87368518  1
  Zn  Zn109  1  0.12529472  0.12421817  0.00003909  1
  Zn  Zn110  1  0.25399714  0.49626586  0.75455843  1
  Zn  Zn111  1  0.87457769  0.75022198  0.12488679  1
  Zn  Zn112  1  0.62669876  0.12286683  0.49952396  1
  Zn  Zn113  1  0.75002415  0.75062189  0.50122057  1
  Zn  Zn114  1  0.49639142  0.50730478  -0.00674480  1
  Zn  Zn115  1  0.87189753  0.50051206  0.87634494  1
  Zn  Zn116  1  0.50024429  0.00055722  0.00008376  1
  Zn  Zn117  1  0.74984413  0.37286714  0.62576820  1
  Zn  Zn118  1  0.12400272  0.74861268  0.87474011  1
  Zn  Zn119  1  0.12626428  0.00123167  0.12492205  1
  Zn  Zn120  1  0.74862833  0.87310026  0.62356853  1
  Zn  Zn121  1  0.75111839  0.62459366  0.87660925  1
  Zn  Zn122  1  0.18540618  0.18730525  0.18434064  1
  Zn  Zn123  1  0.18758018  0.18844470  0.68145857  1
  Zn  Zn124  1  0.18796008  0.68854277  0.18626998  1
  Zn  Zn125  1  0.18936941  0.68788354  0.68888514  1
  Zn  Zn126  1  0.68805660  0.18848612  0.18753690  1
  Zn  Zn127  1  0.68661877  0.18667253  0.68772332  1
  Zn  Zn128  1  0.68653446  0.69008720  0.18810279  1
  Zn  Zn129  1  0.68992986  0.68744895  0.68772820  1
  Zn  Zn130  1  0.31259241  0.31314430  0.31313658  1
  Zn  Zn131  1  0.31064166  0.31085527  0.81358044  1
  Zn  Zn132  1  0.31250763  0.81320537  0.31463823  1
  Zn  Zn133  1  0.31062707  0.80864603  0.81460934  1
  Zn  Zn134  1  0.81251094  0.31023751  0.31263361  1
  Zn  Zn135  1  0.80866837  0.31291431  0.81495944  1
  Zn  Zn136  1  0.81313493  0.81109074  0.31281336  1
  Zn  Zn137  1  0.81250147  0.81264103  0.81338041  1
  Zn  Zn138  1  0.18817029  0.43630126  0.43634071  1
  Zn  Zn139  1  0.18722415  0.43682589  0.93829281  1
  Zn  Zn140  1  0.18883493  0.93564741  0.43622704  1
  Zn  Zn141  1  0.18664770  0.93715909  0.93337583  1
  Zn  Zn142  1  0.68736650  0.43728285  0.43734115  1
  Zn  Zn143  1  0.68460890  0.43760693  0.93668257  1
  Zn  Zn144  1  0.68761302  0.93775648  0.44006633  1
  Zn  Zn145  1  0.68848150  0.93943748  0.93890765  1
  Zn  Zn146  1  0.31364315  0.06078158  0.06537821  1
  Zn  Zn147  1  0.31259788  0.06259927  0.56292068  1
  Zn  Zn148  1  0.31199698  0.56286831  0.06526563  1
  Zn  Zn149  1  0.31209838  0.56141503  0.56441216  1
  Zn  Zn150  1  0.81165925  0.06339090  0.06170140  1
  Zn  Zn151  1  0.81415252  0.06203718  0.56327035  1
  Zn  Zn152  1  0.81144763  0.56247506  0.06283916  1
  Zn  Zn153  1  0.81244300  0.56293679  0.56326295  1
  Zn  Zn154  1  0.43699016  0.44092583  0.18231541  1
  Zn  Zn155  1  0.43876359  0.43894412  0.68535092  1
  Zn  Zn156  1  0.43890154  0.94039818  0.18677060  1
  Zn  Zn157  1  0.43633182  0.94026468  0.68783580  1
  Zn  Zn158  1  0.93647380  0.43698493  0.18705963  1
  Zn  Zn159  1  0.93549620  0.43611949  0.68679900  1
  Zn  Zn160  1  0.93829216  0.93657440  0.18651687  1
  Zn  Zn161  1  0.93899029  0.93786024  0.68599063  1
  Zn  Zn162  1  0.06067858  0.06127861  0.31541622  1
  Zn  Zn163  1  0.06260224  0.06168600  0.81483336  1
  Zn  Zn164  1  0.06290268  0.56212994  0.31379611  1
  Zn  Zn165  1  0.06487537  0.56069336  0.81414037  1
  Zn  Zn166  1  0.56222105  0.06364801  0.31201069  1
  Zn  Zn167  1  0.56144582  0.06177262  0.81406411  1
  Zn  Zn168  1  0.56174646  0.56359082  0.31136794  1
  Zn  Zn169  1  0.56323307  0.56196044  0.81314852  1
  Zn  Zn170  1  0.43655466  0.18809061  0.43670027  1
  Zn  Zn171  1  0.43691839  0.19038211  0.93821822  1
  Zn  Zn172  1  0.43753726  0.68838270  0.43757715  1
  Zn  Zn173  1  0.43820272  0.69034195  0.93558221  1
  Zn  Zn174  1  0.93978715  0.18537606  0.43747925  1
  Zn  Zn175  1  0.93623764  0.18673783  0.93613538  1
  Zn  Zn176  1  0.93853010  0.68851533  0.43820688  1
  Zn  Zn177  1  0.93602344  0.68812062  0.93618218  1
  Zn  Zn178  1  0.06267833  0.31106321  0.06348460  1
  Zn  Zn179  1  0.06206520  0.30487812  0.56326099  1
  Zn  Zn180  1  0.06567515  0.81279342  0.06412916  1
  Zn  Zn181  1  0.06203053  0.81179359  0.56488258  1
  Zn  Zn182  1  0.56100612  0.31252657  0.06251747  1
  Zn  Zn183  1  0.56414517  0.31182387  0.56303872  1
  Zn  Zn184  1  0.56273185  0.81293060  0.06144003  1
  Zn  Zn185  1  0.56212362  0.81265885  0.56198550  1
  O  O186  1  0.11555585  0.12109954  0.12097614  1
  O  O187  1  0.11688996  0.12919178  0.61248474  1
  O  O188  1  0.12018216  0.61946932  0.11949959  1
  O  O189  1  0.12070785  0.61896479  0.62082571  1
  O  O190  1  0.62122367  0.11800548  0.12182101  1
  O  O191  1  0.61256946  0.12145228  0.62436580  1
  O  O192  1  0.61683819  0.62217831  0.12145424  1
  O  O193  1  0.61705751  0.62311050  0.62009826  1
  O  O194  1  0.38147385  0.38186233  0.37944975  1
  O  O195  1  0.37353634  0.37104344  0.88976796  1
  O  O196  1  0.38171979  0.88033999  0.38113639  1
  O  O197  1  0.38152142  0.87728946  0.87995994  1
  O  O198  1  0.88089117  0.38106177  0.37938136  1
  O  O199  1  0.88475659  0.37579816  0.88067075  1
  O  O200  1  0.88016721  0.87404192  0.38342221  1
  O  O201  1  0.87683997  0.88179400  0.88237030  1
  O  O202  1  0.25777203  -0.00895058  0.36057866  1
  O  O203  1  0.25567593  0.00445227  0.86550850  1
  O  O204  1  0.25706473  0.50185510  0.36823019  1
  O  O205  1  0.24837528  0.51470000  0.87668314  1
  O  O206  1  0.75109760  0.01460396  0.37974131  1
  O  O207  1  0.75536078  0.00170548  0.86489683  1
  O  O208  1  0.75528699  0.50600057  0.36976591  1
  O  O209  1  0.74950210  0.50247055  0.86356106  1
  O  O210  1  0.24308412  0.49547780  0.13133640  1
  O  O211  1  0.24233384  0.49193647  0.62556996  1
  O  O212  1  0.24909557  0.99011817  0.13533091  1
  O  O213  1  0.25886230  0.99233584  0.63829221  1
  O  O214  1  0.74266474  0.49932634  0.13302471  1
  O  O215  1  0.74422566  0.50036950  0.63285836  1
  O  O216  1  0.73986811  0.98981291  0.11938384  1
  O  O217  1  0.74808834  0.99738216  0.63725002  1
  O  O218  1  0.00477959  0.37002003  0.25434196  1
  O  O219  1  0.00676690  0.37380595  0.75768833  1
  O  O220  1  0.00595116  0.86937652  0.25417061  1
  O  O221  1  0.00936358  0.87017371  0.74935237  1
  O  O222  1  0.50334948  0.37154385  0.25439971  1
  O  O223  1  0.50205758  0.37108030  0.74940310  1
  O  O224  1  0.50457826  0.87157504  0.25511458  1
  O  O225  1  0.50926818  0.88280827  0.76060182  1
  O  O226  1  0.49206037  0.13075374  0.24507917  1
  O  O227  1  0.48988899  0.12208338  0.74219790  1
  O  O228  1  0.49345242  0.63092667  0.24346210  1
  O  O229  1  0.49345928  0.62226189  0.73625363  1
  O  O230  1  0.99218457  0.12992960  0.24574163  1
  O  O231  1  0.99290233  0.12382286  0.74479484  1
  O  O232  1  0.99600377  0.62908695  0.24482637  1
  O  O233  1  0.99646179  0.62788085  0.74518066  1
  O  O234  1  0.36396095  0.25841825  0.00286998  1
  O  O235  1  0.36676830  0.25585269  0.49933520  1
  O  O236  1  0.36493747  0.76265711  -0.00535525  1
  O  O237  1  0.37024526  0.75521872  0.50865706  1
  O  O238  1  0.86925283  0.25379067  0.00477602  1
  O  O239  1  0.86569427  0.25435833  0.49775000  1
  O  O240  1  0.86825266  0.75675166  0.00244489  1
  O  O241  1  0.87602792  0.75934602  0.50588507  1
  O  O242  1  0.13374861  0.24162834  0.49737537  1
  O  O243  1  0.13879526  0.25017351  0.99907077  1
  O  O244  1  0.13018899  0.74427123  0.49667643  1
  O  O245  1  0.13585992  0.74422279  0.99949026  1
  O  O246  1  0.63447075  0.24826917  0.49252872  1
  O  O247  1  0.62813528  0.24532408  0.99398258  1
  O  O248  1  0.62551958  0.74462940  0.49274004  1
  O  O249  1  0.63010668  0.74764516  0.99158993  1
  O  O250  1  0.49853822  0.24310627  0.13288650  1
  O  O251  1  0.49714930  0.23789647  0.62534154  1
  O  O252  1  0.50656061  0.73950032  0.13221080  1
  O  O253  1  0.48962258  0.74031650  0.61775196  1
  O  O254  1  0.99353215  0.24385149  0.12977808  1
  O  O255  1  0.99584285  0.23633055  0.62893378  1
  O  O256  1  1.00022100  0.74343633  0.13145618  1
  O  O257  1  0.99489786  0.74227067  0.63185762  1
  O  O258  1  0.00034609  0.25698406  0.36773163  1
  O  O259  1  0.00281924  0.26172141  0.87420565  1
  O  O260  1  0.00674928  0.75470626  0.36902968  1
  O  O261  1  0.00291277  0.75253534  0.86744246  1
  O  O262  1  0.50515394  0.25625917  0.36951081  1
  O  O263  1  0.50904969  0.25200732  0.87271461  1
  O  O264  1  0.50544098  0.75723556  0.37014680  1
  O  O265  1  0.51132461  0.76281369  0.87944711  1
  O  O266  1  0.23801496  0.13212922  0.50772816  1
  O  O267  1  0.25240757  0.13223812  0.99606023  1
  O  O268  1  0.24412934  0.63092108  0.49975963  1
  O  O269  1  0.24875118  0.63226154  0.99630002  1
  O  O270  1  0.75095089  0.13310937  0.49153597  1
  O  O271  1  0.74262285  0.13189680  0.99797400  1
  O  O272  1  0.74333738  0.62595636  0.49279203  1
  O  O273  1  0.74290460  0.63327625  0.99995020  1
  O  O274  1  0.25776009  0.36881827  0.00373474  1
  O  O275  1  0.25444969  0.36808668  0.50424990  1
  O  O276  1  0.25554864  0.86974700  0.00532240  1
  O  O277  1  0.25595127  0.87002736  0.50618094  1
  O  O278  1  0.75671043  0.36878362  0.00087835  1
  O  O279  1  0.75613830  0.36489023  0.49696948  1
  O  O280  1  0.75425307  0.87130696  0.00916082  1
  O  O281  1  0.76057061  0.87210070  0.50205962  1
  O  O282  1  0.13009634  0.49498254  0.24519335  1
  O  O283  1  0.12647715  0.48775017  0.74435388  1
  O  O284  1  0.13407377  0.99444020  0.25116682  1
  O  O285  1  0.13647999  0.99124480  0.75514004  1
  O  O286  1  0.62921353  0.49606941  0.24507498  1
  O  O287  1  0.63497841  0.50240994  0.74223761  1
  O  O288  1  0.61947592  0.99457691  0.23702815  1
  O  O289  1  0.63322678  0.99109884  0.75168380  1
  O  O290  1  0.36877235  0.00674232  0.25387752  1
  O  O291  1  0.36629909  0.00784322  0.75580914  1
  O  O292  1  0.37086162  0.50934594  0.25425479  1
  O  O293  1  0.37152711  0.51582682  0.74192106  1
  O  O294  1  0.87902912  0.01395784  0.25041912  1
  O  O295  1  0.86794254  0.00537633  0.75426300  1
  O  O296  1  0.87006916  0.50523010  0.25594920  1
  O  O297  1  0.86601819  0.50524224  0.74984713  1
  O  O298  1  0.11807635  0.37413273  0.36753995  1
  O  O299  1  0.11753453  0.37507867  0.86690898  1
  O  O300  1  0.12001187  0.86795508  0.37016033  1
  O  O301  1  0.12498500  0.87086605  0.86082966  1
  O  O302  1  0.61855402  0.37081318  0.36876178  1
  O  O303  1  0.62081076  0.36318916  0.87496934  1
  O  O304  1  0.62014837  0.87183731  0.36997903  1
  O  O305  1  0.61841530  0.87060104  0.87011104  1
  O  O306  1  0.38146266  0.12451321  0.13666957  1
  O  O307  1  0.38285856  0.12472338  0.63342156  1
  O  O308  1  0.38477998  0.62043819  0.13611671  1
  O  O309  1  0.38133557  0.63225792  0.63041082  1
  O  O310  1  0.87851597  0.12971304  0.13234872  1
  O  O311  1  0.88256989  0.12494016  0.63503504  1
  O  O312  1  0.88171519  0.62628693  0.13205524  1
  O  O313  1  0.88255173  0.62951138  0.63017670  1
  O  O314  1  0.25137377  0.25613027  0.11672536  1
  O  O315  1  0.25310521  0.25702749  0.61311564  1
  O  O316  1  0.24734999  0.76065336  0.11467448  1
  O  O317  1  0.25953183  0.75503570  0.62000657  1
  O  O318  1  0.75535308  0.25237603  0.11795823  1
  O  O319  1  0.75052852  0.24870704  0.61148937  1
  O  O320  1  0.74851041  0.76153669  0.11885996  1
  O  O321  1  0.75940560  0.75179575  0.62250624  1
  O  O322  1  0.24853614  0.25422696  0.38820080  1
  O  O323  1  0.24878644  0.24303031  0.88472414  1
  O  O324  1  0.24381868  0.74940770  0.38300008  1
  O  O325  1  0.24764778  0.74085042  0.88642685  1
  O  O326  1  0.74546077  0.24186496  0.38256161  1
  O  O327  1  0.73872636  0.24786865  0.88183703  1
  O  O328  1  0.74263282  0.74290746  0.37546425  1
  O  O329  1  0.73942456  0.75184510  0.88228586  1
  O  O330  1  -0.00180616  0.11486877  0.00507697  1
  O  O331  1  0.01081726  0.12339354  0.50711780  1
  O  O332  1  0.00549250  0.61979071  0.00462008  1
  O  O333  1  0.00597361  0.61850679  0.50608378  1
  O  O334  1  0.50447005  0.12400239  0.00756148  1
  O  O335  1  0.49859078  0.11986550  0.50801538  1
  O  O336  1  0.50429087  0.63047171  0.00957548  1
  O  O337  1  0.50428623  0.62035539  0.50775934  1
  O  O338  1  0.49508492  0.38055797  0.49423881  1
  O  O339  1  0.48245979  0.37458467  1.00287976  1
  O  O340  1  0.49404787  0.88072362  0.49477090  1
  O  O341  1  0.49071783  0.87526082  0.99262090  1
  O  O342  1  0.99563505  0.37871948  0.49541126  1
  O  O343  1  0.99618540  0.37902021  0.99331580  1
  O  O344  1  0.99327071  0.87452245  0.49550750  1
  O  O345  1  0.99490260  0.88344593  1.00199618  1
  O  O346  1  0.49557806  0.49541391  0.37998260  1
  O  O347  1  0.50311854  0.50042317  0.88159700  1
  O  O348  1  0.49431333  0.99490727  0.37948073  1
  O  O349  1  0.49407627  0.98928259  0.87890404  1
  O  O350  1  0.99463340  0.49425065  0.38087709  1
  O  O351  1  0.99966769  0.48856367  0.88133603  1
  O  O352  1  0.99675435  0.98953519  0.37932357  1
  O  O353  1  0.99430535  0.99719331  0.88522379  1
  O  O354  1  0.00031441  0.00462198  0.11524138  1
  O  O355  1  -0.00233328  0.01317901  0.62241809  1
  O  O356  1  0.00535166  0.50540543  0.12027316  1
  O  O357  1  0.00573169  0.50404133  0.61956048  1
  O  O358  1  0.50998396  0.00555312  0.12185380  1
  O  O359  1  0.49846857  0.00897663  0.61875284  1
  O  O360  1  0.50602064  0.51436280  0.12173699  1
  O  O361  1  0.50553235  0.51075411  0.61784690  1
  O  O362  1  0.24525395  0.38055772  0.24501757  1
  O  O363  1  0.24253832  0.37598771  0.74524591  1
  O  O364  1  0.24825109  0.88048120  0.24257822  1
  O  O365  1  0.24510346  0.88087539  0.74718317  1
  O  O366  1  0.74268833  0.38136550  0.25004202  1
  O  O367  1  0.74831085  0.38660391  0.74743779  1
  O  O368  1  0.74372908  0.86907761  0.23825301  1
  O  O369  1  0.74166405  0.88360446  0.74992838  1
  O  O370  1  0.25861157  0.11451808  0.24188858  1
  O  O371  1  0.25576518  0.11810157  0.75183244  1
  O  O372  1  0.25894778  0.62063956  0.24910980  1
  O  O373  1  0.25716092  0.62372896  0.75874502  1
  O  O374  1  0.76042771  0.13363771  0.25973480  1
  O  O375  1  0.75799180  0.11510101  0.74956080  1
  O  O376  1  0.75481676  0.62014648  0.25546641  1
  O  O377  1  0.75629184  0.61579216  0.75102767  1
  O  O378  1  0.38094426  0.11842761  0.36077636  1
  O  O379  1  0.37033660  0.11946079  0.86707898  1
  O  O380  1  0.37561228  0.61948862  0.36492676  1
  O  O381  1  0.36787844  0.63599923  0.86309503  1
  O  O382  1  0.86827457  0.12387880  0.36699529  1
  O  O383  1  0.87394662  0.11803944  0.86418878  1
  O  O384  1  0.87097205  0.61941251  0.37019191  1
  O  O385  1  0.87204723  0.62130055  0.86713485  1
  O  O386  1  0.12957889  0.38105608  0.13095302  1
  O  O387  1  0.12825932  0.37795810  0.63219562  1
  O  O388  1  0.13709027  0.87762872  0.13184606  1
  O  O389  1  0.13322331  0.86869686  0.63795103  1
  O  O390  1  0.62415146  0.38296609  0.13095041  1
  O  O391  1  0.62829377  0.38474139  0.62500359  1
  O  O392  1  0.63076136  0.88219259  0.12882759  1
  O  O393  1  0.62413731  0.87529424  0.63700504  1
  O  O394  1  0.11873358  0.25558577  0.25103902  1
  O  O395  1  0.12518388  0.26261100  0.75067078  1
  O  O396  1  0.12122331  0.75516786  0.25556333  1
  O  O397  1  0.11980007  0.75721489  0.75086669  1
  O  O398  1  0.61879400  0.25633833  0.25476689  1
  O  O399  1  0.62458210  0.25046536  0.76047223  1
  O  O400  1  0.61780343  0.75744656  0.25652548  1
  O  O401  1  0.63280879  0.76191226  0.76085549  1
  O  O402  1  0.37904213  0.24181400  0.24968339  1
  O  O403  1  0.37344996  0.23566886  0.74864756  1
  O  O404  1  0.38081407  0.73901061  0.25691099  1
  O  O405  1  0.36986460  0.74197225  0.73716530  1
  O  O406  1  0.88059303  0.24207327  0.24436805  1
  O  O407  1  0.87256269  0.23670478  0.75081072  1
  O  O408  1  0.88294670  0.74281711  0.24851402  1
  O  O409  1  0.88052123  0.74482361  0.74539041  1
  O  O410  1  0.38048102  0.49551613  0.49454006  1
  O  O411  1  0.37248034  0.48614318  1.00428620  1
  O  O412  1  0.37827151  0.99441303  0.49419774  1
  O  O413  1  0.37311104  0.98804845  0.99340925  1
  O  O414  1  0.88084966  0.49497893  0.49455588  1
  O  O415  1  0.88131584  0.49313136  0.99971282  1
  O  O416  1  0.87724009  0.98652761  0.49960307  1
  O  O417  1  0.88243009  0.99555533  0.99578608  1
  O  O418  1  0.11382762  -0.00084782  0.00025439  1
  O  O419  1  0.12897329  0.01274706  0.49789289  1
  O  O420  1  0.11966297  0.50478142  0.00693156  1
  O  O421  1  0.11950237  0.50369982  0.50511154  1
  O  O422  1  0.62331376  0.00569900  0.01011119  1
  O  O423  1  0.61605341  0.00230386  0.50327928  1
  O  O424  1  0.62574942  0.50956628  0.00758293  1
  O  O425  1  0.61955470  0.50689636  0.50370184  1
  O  O426  1  0.36766155  0.37351129  0.11620744  1
  O  O427  1  0.36881653  0.37458220  0.61693272  1
  O  O428  1  0.36586290  0.88146820  0.11537038  1
  O  O429  1  0.37206247  0.86730977  0.62150775  1
  O  O430  1  0.87399455  0.36748435  0.11874849  1
  O  O431  1  0.87200791  0.37085401  0.61602139  1
  O  O432  1  0.86510395  0.87491072  0.12054468  1
  O  O433  1  0.87611179  0.86836177  0.61676947  1
  O  O434  1  0.11839331  0.12765451  0.39203241  1
  O  O435  1  0.13327829  0.12720107  0.87851842  1
  O  O436  1  0.12674713  0.63077420  0.38234952  1
  O  O437  1  0.13521798  0.62597380  0.88186479  1
  O  O438  1  0.63324214  0.13157920  0.37367415  1
  O  O439  1  0.62421663  0.13315333  0.88130208  1
  O  O440  1  0.62873688  0.63059408  0.37923327  1
  O  O441  1  0.62487085  0.63853875  0.87965732  1
