# generated using pymatgen
data_V93Zn93O256
_symmetry_space_group_name_H-M   'P 1'
_cell_length_a   17.04997436
_cell_length_b   17.05044654
_cell_length_c   17.04886455
_cell_angle_alpha   90.00731389
_cell_angle_beta   90.03812618
_cell_angle_gamma   89.95680667
_symmetry_Int_Tables_number   1
_chemical_formula_structural   V93Zn93O256
_chemical_formula_sum   'V93 Zn93 O256'
_cell_volume   4956.26734927
_cell_formula_units_Z   1
loop_
 _symmetry_equiv_pos_site_id
 _symmetry_equiv_pos_as_xyz
  1  'x, y, z'
loop_
 _atom_site_type_symbol
 _atom_site_label
 _atom_site_symmetry_multiplicity
 _atom_site_fract_x
 _atom_site_fract_y
 _atom_site_fract_z
 _atom_site_occupancy
  V  V0  1  0.87522151  0.87437289  0.49979184  1
  V  V1  1  0.49927720  0.24775180  0.24483812  1
  V  V2  1  0.12657313  0.62704845  -0.00298406  1
  V  V3  1  0.50013556  0.87084975  0.87191429  1
  V  V4  1  0.74775962  0.12587318  0.87598192  1
  V  V5  1  0.62511878  0.24977977  0.37579877  1
  V  V6  1  0.12559532  0.24928812  0.37513602  1
  V  V7  1  0.37529589  0.12417488  0.75020304  1
  V  V8  1  0.12610586  0.75002861  0.37615833  1
  V  V9  1  -0.00009935  0.37493696  0.37569199  1
  V  V10  1  0.37743937  0.12426486  0.24549129  1
  V  V11  1  0.24925864  0.24956650  -0.00019300  1
  V  V12  1  0.49498009  0.50039550  -0.00134811  1
  V  V13  1  0.50051014  0.12509736  0.62590686  1
  V  V14  1  0.24999062  0.49961249  0.25106266  1
  V  V15  1  0.38886294  0.74399666  0.63157584  1
  V  V16  1  0.87525118  -0.00031019  0.87607000  1
  V  V17  1  0.49881567  0.62545580  0.12573930  1
  V  V18  1  -0.00210653  0.37544082  0.87463630  1
  V  V19  1  0.00137053  0.50072757  0.50180416  1
  V  V20  1  0.12488524  0.12408562  0.50053497  1
  V  V21  1  0.62141624  0.87052904  0.74952094  1
  V  V22  1  0.62523197  0.38064998  0.74686814  1
  V  V23  1  0.87561468  0.75000813  0.62509843  1
  V  V24  1  0.74923822  0.62374703  0.87496414  1
  V  V25  1  0.25038811  0.12392367  0.87508686  1
  V  V26  1  -0.00084678  0.62496797  0.12520629  1
  V  V27  1  0.25055911  -0.00112347  0.75044717  1
  V  V28  1  0.62285253  0.62229380  0.51091878  1
  V  V29  1  0.12735516  0.37628055  0.75019351  1
  V  V30  1  0.50057592  0.24942718  0.75012208  1
  V  V31  1  0.74795413  -0.00028642  0.24969829  1
  V  V32  1  0.50075981  -0.00105636  0.49797084  1
  V  V33  1  0.87404425  0.37303934  0.50174027  1
  V  V34  1  0.25151968  0.87383277  0.62650453  1
  V  V35  1  0.37443018  0.75116654  0.12523080  1
  V  V36  1  0.62034623  0.12633146  0.00207837  1
  V  V37  1  -0.00024188  0.87433535  0.87478526  1
  V  V38  1  0.37929894  0.87302050  0.49659335  1
  V  V39  1  0.49542277  0.37946064  0.87470410  1
  V  V40  1  0.62346793  0.50053021  0.12597972  1
  V  V41  1  0.00143665  0.75042380  0.75073688  1
  V  V42  1  0.61957478  0.87601011  0.25396005  1
  V  V43  1  -0.00182080  0.49922121  -0.00019703  1
  V  V44  1  0.62549726  0.00065552  0.62477667  1
  V  V45  1  0.00163851  0.00046045  0.50045463  1
  V  V46  1  0.87504535  0.12497039  0.74915674  1
  V  V47  1  0.12419961  -0.00102039  0.12612130  1
  V  V48  1  0.87344573  0.62485793  0.25144632  1
  V  V49  1  0.24906945  0.37430002  0.12431304  1
  V  V50  1  0.87443368  0.12459162  0.24952676  1
  V  V51  1  -0.00092522  0.12456685  0.12471203  1
  V  V52  1  0.25013325  0.62513416  0.37628495  1
  V  V53  1  0.25224733  0.74868431  0.50055897  1
  V  V54  1  0.37535594  0.62494775  0.25041594  1
  V  V55  1  -0.00015489  0.25008405  0.24955324  1
  V  V56  1  0.37858568  -0.00352151  0.37405666  1
  V  V57  1  0.12383346  0.50043738  0.12582612  1
  V  V58  1  0.87441294  -0.00070671  0.37466303  1
  V  V59  1  0.13025355  0.50054665  0.62673657  1
  V  V60  1  0.61965713  0.00385870  0.12590403  1
  V  V61  1  0.37306256  0.37849939  -0.00304467  1
  V  V62  1  0.37622564  0.37495358  0.50058258  1
  V  V63  1  0.50023616  0.37570223  0.37422898  1
  V  V64  1  0.87324796  0.25067781  0.12430162  1
  V  V65  1  0.74871950  0.50012566  0.25114076  1
  V  V66  1  0.12638505  0.87309622  0.74984868  1
  V  V67  1  0.87345850  0.37534525  -0.00073822  1
  V  V68  1  0.74917493  0.37591455  0.12341080  1
  V  V69  1  0.25016626  0.87400889  0.12288519  1
  V  V70  1  0.62081054  0.75139995  0.37562610  1
  V  V71  1  -0.00202691  -0.00078736  0.00023569  1
  V  V72  1  0.74559942  0.38016395  0.62479268  1
  V  V73  1  0.12497407  0.12526139  0.00000612  1
  V  V74  1  0.25225722  0.25120727  0.50028487  1
  V  V75  1  0.00079786  0.87382860  0.37524966  1
  V  V76  1  0.12458227  0.37473846  0.25011434  1
  V  V77  1  0.74743062  0.75188448  -0.00009989  1
  V  V78  1  0.37560124  0.24806738  0.12442888  1
  V  V79  1  0.37685263  0.50038925  0.37589687  1
  V  V80  1  0.49772757  0.00158880  0.00026311  1
  V  V81  1  0.49983524  0.75202536  0.25250361  1
  V  V82  1  0.39111314  0.62074808  0.75369914  1
  V  V83  1  0.74956695  0.74858854  0.49897868  1
  V  V84  1  0.74954133  0.12628936  0.37528110  1
  V  V85  1  0.25114775  0.12467612  0.37528509  1
  V  V86  1  0.12463948  0.87444596  0.25060445  1
  V  V87  1  0.87579369  0.62347546  0.75006079  1
  V  V88  1  0.00002804  0.24952706  0.74886055  1
  V  V89  1  0.75000755  0.87649363  0.62530600  1
  V  V90  1  0.50542923  0.50335344  0.51093081  1
  V  V91  1  0.62300666  0.62615325  0.00052269  1
  V  V92  1  0.87337989  0.75155047  0.12502310  1
  Zn  Zn93  1  0.74949870  0.62383940  0.37711110  1
  Zn  Zn94  1  0.87270783  0.24881872  0.62472106  1
  Zn  Zn95  1  0.74922272  0.24971116  0.50177346  1
  Zn  Zn96  1  0.37459308  -0.00282421  0.87545543  1
  Zn  Zn97  1  0.87486600  0.50064678  0.37627889  1
  Zn  Zn98  1  0.25162501  0.74864272  -0.00337539  1
  Zn  Zn99  1  0.87349308  0.87557272  -0.00030606  1
  Zn  Zn100  1  0.74704595  0.25145645  0.00094809  1
  Zn  Zn101  1  0.00304956  0.62596351  0.62601692  1
  Zn  Zn102  1  0.26190584  0.49986530  0.75973920  1
  Zn  Zn103  1  0.25443912  0.37377497  0.62732949  1
  Zn  Zn104  1  0.12561292  0.25020679  0.87511389  1
  Zn  Zn105  1  0.87271971  0.49798134  0.87352350  1
  Zn  Zn106  1  0.74861065  0.87677699  0.12392497  1
  Zn  Zn107  1  0.12528286  0.00025921  0.62493801  1
  Zn  Zn108  1  0.12931147  0.74887818  0.87407091  1
  Zn  Zn109  1  0.62389019  0.37486227  0.24855367  1
  Zn  Zn110  1  0.25791579  0.62185572  0.87251215  1
  Zn  Zn111  1  0.12620933  0.62577027  0.50260307  1
  Zn  Zn112  1  0.00115875  0.12328525  0.62506298  1
  Zn  Zn113  1  0.62435526  0.25141705  0.87653959  1
  Zn  Zn114  1  0.62737935  0.12493121  0.50128302  1
  Zn  Zn115  1  0.37543085  0.25022684  0.62398810  1
  Zn  Zn116  1  0.25061820  -0.00001705  0.25003902  1
  Zn  Zn117  1  -0.00038862  0.74923873  0.25156382  1
  Zn  Zn118  1  0.61980159  0.74751372  0.86835258  1
  Zn  Zn119  1  0.74976780  0.00051476  0.74918909  1
  Zn  Zn120  1  0.74570004  0.50351902  0.74478518  1
  Zn  Zn121  1  0.37534488  0.87320239  -0.00293217  1
  Zn  Zn122  1  0.18907708  0.18597043  0.18792393  1
  Zn  Zn123  1  0.18882034  0.18711050  0.68493013  1
  Zn  Zn124  1  0.18730742  0.68863603  0.18770414  1
  Zn  Zn125  1  0.19594071  0.68509716  0.68962777  1
  Zn  Zn126  1  0.68702487  0.18720493  0.18717549  1
  Zn  Zn127  1  0.68648672  0.19304859  0.68641563  1
  Zn  Zn128  1  0.68659334  0.68765900  0.18749871  1
  Zn  Zn129  1  0.68847657  0.69010657  0.68732452  1
  Zn  Zn130  1  0.31319129  0.31272489  0.31400777  1
  Zn  Zn131  1  0.31316786  0.31026434  0.81310500  1
  Zn  Zn132  1  0.31134035  0.81285302  0.31143995  1
  Zn  Zn133  1  0.31357270  0.80723356  0.81447557  1
  Zn  Zn134  1  0.81264400  0.31408262  0.31265106  1
  Zn  Zn135  1  0.81037130  0.31115499  0.81232499  1
  Zn  Zn136  1  0.80757917  0.81348789  0.31268178  1
  Zn  Zn137  1  0.81128923  0.81296350  0.81162254  1
  Zn  Zn138  1  0.18855659  0.43656768  0.43859609  1
  Zn  Zn139  1  0.18775493  0.44128685  0.93446446  1
  Zn  Zn140  1  0.19064823  0.93729304  0.43823333  1
  Zn  Zn141  1  0.18548119  0.93746210  0.93639815  1
  Zn  Zn142  1  0.68620883  0.43766043  0.43707180  1
  Zn  Zn143  1  0.68296187  0.43843100  0.93663175  1
  Zn  Zn144  1  0.68785046  0.93622179  0.43679348  1
  Zn  Zn145  1  0.68568062  0.93873863  0.93554952  1
  Zn  Zn146  1  0.31143340  0.06106625  0.06265150  1
  Zn  Zn147  1  0.31248470  0.06282777  0.56430130  1
  Zn  Zn148  1  0.31106403  0.56153160  0.06235927  1
  Zn  Zn149  1  0.31590313  0.56259862  0.56556546  1
  Zn  Zn150  1  0.80891079  0.06270168  0.06244573  1
  Zn  Zn151  1  0.81227505  0.06303259  0.56138423  1
  Zn  Zn152  1  0.81164474  0.56259553  0.06255908  1
  Zn  Zn153  1  0.81072269  0.56253153  0.56275539  1
  Zn  Zn154  1  0.43640605  0.43563061  0.18620288  1
  Zn  Zn155  1  0.43972943  0.43656926  0.68654932  1
  Zn  Zn156  1  0.43813080  0.93742785  0.18572949  1
  Zn  Zn157  1  0.43687021  0.93700888  0.68670171  1
  Zn  Zn158  1  0.93620095  0.43768224  0.18600136  1
  Zn  Zn159  1  0.93693000  0.43828747  0.68580738  1
  Zn  Zn160  1  0.93742039  0.93603233  0.18836756  1
  Zn  Zn161  1  0.93907224  0.93834183  0.68708035  1
  Zn  Zn162  1  0.06262466  0.06111887  0.31292676  1
  Zn  Zn163  1  0.06464866  0.06040256  0.81355885  1
  Zn  Zn164  1  0.06224825  0.56363494  0.31453646  1
  Zn  Zn165  1  0.06201186  0.56053177  0.81415185  1
  Zn  Zn166  1  0.56084343  0.06486599  0.31334005  1
  Zn  Zn167  1  0.56238191  0.05824331  0.81259457  1
  Zn  Zn168  1  0.56332088  0.56548925  0.31795146  1
  Zn  Zn169  1  0.56221796  0.56157886  0.81239289  1
  Zn  Zn170  1  0.43814145  0.18585745  0.43573102  1
  Zn  Zn171  1  0.43656967  0.18962119  0.93433395  1
  Zn  Zn172  1  0.44052733  0.68549588  0.43905649  1
  Zn  Zn173  1  0.43643376  0.68987704  0.93798670  1
  Zn  Zn174  1  0.93821740  0.18681316  0.43674468  1
  Zn  Zn175  1  0.93706700  0.18924017  0.93684728  1
  Zn  Zn176  1  0.93829688  0.68701159  0.43745328  1
  Zn  Zn177  1  0.93826695  0.68781199  0.93675501  1
  Zn  Zn178  1  0.06155628  0.31217035  0.06184369  1
  Zn  Zn179  1  0.06352630  0.31167877  0.56472874  1
  Zn  Zn180  1  0.06098844  0.81184799  0.06207675  1
  Zn  Zn181  1  0.06391509  0.81229161  0.56386305  1
  Zn  Zn182  1  0.56137988  0.31388808  0.06230481  1
  Zn  Zn183  1  0.56123134  0.31395866  0.56276408  1
  Zn  Zn184  1  0.56202639  0.81584018  0.06401750  1
  Zn  Zn185  1  0.56488082  0.81394889  0.56086857  1
  O  O186  1  0.11895600  0.11947634  0.12106569  1
  O  O187  1  0.12276583  0.12188996  0.61594339  1
  O  O188  1  0.11848352  0.61973876  0.12044119  1
  O  O189  1  0.12379390  0.61369313  0.62412850  1
  O  O190  1  0.62947045  0.11452143  0.11547763  1
  O  O191  1  0.61971753  0.11892549  0.62336671  1
  O  O192  1  0.61788263  0.62055508  0.12060472  1
  O  O193  1  0.62985929  0.63189573  0.60986593  1
  O  O194  1  0.38038997  0.38114357  0.38022659  1
  O  O195  1  0.38701411  0.37006098  0.88075093  1
  O  O196  1  0.36965521  0.88399087  0.38471912  1
  O  O197  1  0.38495901  0.87693251  0.87659885  1
  O  O198  1  0.88123746  0.37703857  0.38392637  1
  O  O199  1  0.87899461  0.37603335  0.88067937  1
  O  O200  1  0.87912822  0.87942304  0.37972610  1
  O  O201  1  0.88049553  0.88174844  0.87539579  1
  O  O202  1  0.26304468  0.00517884  0.37388585  1
  O  O203  1  0.25163584  0.00585444  0.86953230  1
  O  O204  1  0.25589789  0.50454772  0.37007998  1
  O  O205  1  0.24889323  0.50724364  0.87244654  1
  O  O206  1  0.75486597  0.00531472  0.36952225  1
  O  O207  1  0.75542543  0.01122592  0.87424599  1
  O  O208  1  0.75272148  0.50075669  0.36225074  1
  O  O209  1  0.75022334  0.51458567  0.87511889  1
  O  O210  1  0.24356894  0.49357990  0.13221565  1
  O  O211  1  0.23890933  0.49592907  0.62528174  1
  O  O212  1  0.24329712  0.99084872  0.12698292  1
  O  O213  1  0.25058628  0.99148528  0.63147957  1
  O  O214  1  0.74401517  0.49684065  0.13249532  1
  O  O215  1  0.75390483  0.48521687  0.62634795  1
  O  O216  1  0.73891460  0.99909848  0.13131442  1
  O  O217  1  0.74373574  0.99358061  0.62412939  1
  O  O218  1  0.00453542  0.37015706  0.25442921  1
  O  O219  1  0.00506714  0.36770167  0.75362969  1
  O  O220  1  0.00564600  0.87261136  0.25756318  1
  O  O221  1  0.00530123  0.87005574  0.75484542  1
  O  O222  1  0.49906408  0.36468645  0.25592523  1
  O  O223  1  0.50585793  0.37124223  0.75646646  1
  O  O224  1  0.51205759  0.86934840  0.24502430  1
  O  O225  1  0.50980813  0.88410558  0.75969159  1
  O  O226  1  0.48831491  0.13607689  0.25586545  1
  O  O227  1  0.49616497  0.12875529  0.74636777  1
  O  O228  1  0.49452878  0.63067510  0.24508240  1
  O  O229  1  0.49155158  0.62428440  0.74992486  1
  O  O230  1  0.99433063  0.13000158  0.24484466  1
  O  O231  1  0.99223133  0.13259359  0.75298022  1
  O  O232  1  0.98923353  0.62504361  0.24487124  1
  O  O233  1  0.98963756  0.63021101  0.75069088  1
  O  O234  1  0.36938828  0.25550620  0.00569391  1
  O  O235  1  0.37066799  0.25650808  0.49727556  1
  O  O236  1  0.37284039  0.75266680  0.01151295  1
  O  O237  1  0.37319030  0.75690746  0.50449122  1
  O  O238  1  0.87302142  0.25640119  0.00723838  1
  O  O239  1  0.87621166  0.26279589  0.49996795  1
  O  O240  1  0.86527237  0.74800804  0.00925197  1
  O  O241  1  0.87015058  0.75471460  0.50448966  1
  O  O242  1  0.12978012  0.24549658  0.49336545  1
  O  O243  1  0.13077709  0.24319446  1.00000881  1
  O  O244  1  0.13339218  0.74900087  0.49454238  1
  O  O245  1  0.12443031  0.73787587  1.00155757  1
  O  O246  1  0.62331728  0.24850048  0.48554904  1
  O  O247  1  0.62420196  0.23832917  1.00039339  1
  O  O248  1  0.62844501  0.74550247  0.49236991  1
  O  O249  1  0.63460835  0.74445756  1.00267754  1
  O  O250  1  0.49279273  0.25637890  0.13726788  1
  O  O251  1  0.49976938  0.24245523  0.63134502  1
  O  O252  1  0.49524413  0.74497776  0.13173551  1
  O  O253  1  0.48667906  0.75540346  0.61901262  1
  O  O254  1  0.99395144  0.24439433  0.13070440  1
  O  O255  1  0.99698724  0.24796643  0.63804774  1
  O  O256  1  0.98785707  0.74465235  0.12715042  1
  O  O257  1  0.99289411  0.74818148  0.63109738  1
  O  O258  1  0.00588920  0.25507090  0.36844037  1
  O  O259  1  0.00166702  0.25570624  0.86442840  1
  O  O260  1  0.00668118  0.75641584  0.37479004  1
  O  O261  1  0.00049275  0.75709476  0.86824145  1
  O  O262  1  0.50653036  0.25429560  0.36606784  1
  O  O263  1  0.50223643  0.26075815  0.86880945  1
  O  O264  1  0.51192233  0.74594980  0.36825127  1
  O  O265  1  0.50467502  0.76660851  0.88471485  1
  O  O266  1  0.24611476  0.13016556  0.49377003  1
  O  O267  1  0.24469630  0.12954763  0.99617661  1
  O  O268  1  0.25114083  0.63018048  0.49314171  1
  O  O269  1  0.23643421  0.62516976  1.00367222  1
  O  O270  1  0.74871067  0.12943840  0.49126625  1
  O  O271  1  0.73937670  0.12531882  0.99220138  1
  O  O272  1  0.74340501  0.63046685  0.49737453  1
  O  O273  1  0.74465497  0.63215823  0.99383189  1
  O  O274  1  0.25258728  0.36953500  0.00545073  1
  O  O275  1  0.25829130  0.36843175  0.49894723  1
  O  O276  1  0.24980371  0.87478473  0.01278074  1
  O  O277  1  0.26173962  0.87008429  0.50491183  1
  O  O278  1  0.75402430  0.37503248  0.00546806  1
  O  O279  1  0.75794162  0.37498193  0.50515588  1
  O  O280  1  0.75036860  0.86393317  0.00030136  1
  O  O281  1  0.75592401  0.86925917  0.50477332  1
  O  O282  1  0.12963623  0.49448810  0.24596053  1
  O  O283  1  0.11923974  0.48977512  0.74055911  1
  O  O284  1  0.12647246  0.99348217  0.24401044  1
  O  O285  1  0.13222043  0.99201733  0.74833398  1
  O  O286  1  0.63388134  0.50158736  0.24541894  1
  O  O287  1  0.62631354  0.48501787  0.75377210  1
  O  O288  1  0.62541021  0.99578096  0.24511847  1
  O  O289  1  0.62804824  0.99093240  0.74214517  1
  O  O290  1  0.37796205  0.00711300  0.25721687  1
  O  O291  1  0.36845622  0.00636829  0.75112248  1
  O  O292  1  0.36938154  0.50475041  0.25485133  1
  O  O293  1  0.37845812  0.51640672  0.73845457  1
  O  O294  1  0.86906078  0.00470213  0.25483979  1
  O  O295  1  0.87504567  0.01059714  0.75643784  1
  O  O296  1  0.86651714  0.50907494  0.24787186  1
  O  O297  1  0.87264781  0.51210359  0.75121774  1
  O  O298  1  0.12005093  0.36913525  0.36923949  1
  O  O299  1  0.11692494  0.37385131  0.86466148  1
  O  O300  1  0.12165730  0.87008416  0.37083102  1
  O  O301  1  0.11729560  0.87302835  0.86818102  1
  O  O302  1  0.62021888  0.36512602  0.37041025  1
  O  O303  1  0.61627089  0.37187369  0.86791611  1
  O  O304  1  0.62909645  0.86530953  0.36495708  1
  O  O305  1  0.61937080  0.87533006  0.86555102  1
  O  O306  1  0.36750872  0.13062555  0.13797641  1
  O  O307  1  0.38285327  0.12563502  0.63206063  1
  O  O308  1  0.37931428  0.63028140  0.13193727  1
  O  O309  1  0.37608606  0.63929202  0.62928095  1
  O  O310  1  0.87916070  0.12968326  0.13043288  1
  O  O311  1  0.87580694  0.12620441  0.63766425  1
  O  O312  1  0.87797420  0.63249051  0.13238902  1
  O  O313  1  0.87408527  0.63076175  0.63543939  1
  O  O314  1  0.25473068  0.25532436  0.12007173  1
  O  O315  1  0.25352016  0.25260431  0.61525679  1
  O  O316  1  0.25527268  0.75968750  0.12556636  1
  O  O317  1  0.26099656  0.75612525  0.61786588  1
  O  O318  1  0.75565726  0.25697542  0.12530214  1
  O  O319  1  0.75362298  0.26224211  0.62132995  1
  O  O320  1  0.75698400  0.74862817  0.11622264  1
  O  O321  1  0.75672610  0.75734850  0.61812675  1
  O  O322  1  0.24443152  0.24470535  0.37951948  1
  O  O323  1  0.24781259  0.24291260  0.88273567  1
  O  O324  1  0.24639596  0.74477654  0.38032045  1
  O  O325  1  0.24654435  0.74225490  0.88010994  1
  O  O326  1  0.73996738  0.24588269  0.37245374  1
  O  O327  1  0.74787647  0.23700766  0.87861283  1
  O  O328  1  0.73972508  0.74916176  0.38132811  1
  O  O329  1  0.74939502  0.74051118  0.88431497  1
  O  O330  1  0.00415631  0.12009115  0.00567249  1
  O  O331  1  0.00601421  0.11870625  0.49946021  1
  O  O332  1  0.00486254  0.61954471  0.00641487  1
  O  O333  1  0.00081611  0.61242012  0.50170371  1
  O  O334  1  0.51069962  0.11486019  -0.00966477  1
  O  O335  1  0.50006427  0.11347132  0.50518630  1
  O  O336  1  0.50356931  0.62075772  0.00609651  1
  O  O337  1  0.51048156  0.61463090  0.49314864  1
  O  O338  1  0.49687461  0.38251082  0.49227675  1
  O  O339  1  0.49417231  0.37922324  0.99306285  1
  O  O340  1  0.48973439  0.88712405  0.50452083  1
  O  O341  1  0.50192194  0.88627194  0.99280759  1
  O  O342  1  0.99369331  0.38151586  0.49682141  1
  O  O343  1  0.99406534  0.37931787  0.99520528  1
  O  O344  1  0.99440021  0.87953420  0.49432367  1
  O  O345  1  0.99710880  0.88160852  0.99421283  1
  O  O346  1  0.49399580  0.49382665  0.37762487  1
  O  O347  1  0.50628239  0.48723680  0.88361221  1
  O  O348  1  0.48824405  1.00630964  0.38440108  1
  O  O349  1  0.49988004  0.99043891  0.88487410  1
  O  O350  1  1.00053565  0.49331701  0.38522324  1
  O  O351  1  0.99619893  0.49253471  0.88221229  1
  O  O352  1  0.99350642  0.99383454  0.37977775  1
  O  O353  1  0.99452326  0.99492802  0.88106366  1
  O  O354  1  0.00360841  0.00529186  0.12071586  1
  O  O355  1  0.00281509  0.00171403  0.61571956  1
  O  O356  1  0.00481717  0.50491183  0.12043974  1
  O  O357  1  0.00892329  0.49989926  0.61587821  1
  O  O358  1  0.51085023  -0.00399265  0.11532612  1
  O  O359  1  0.50498454  0.00487677  0.61641576  1
  O  O360  1  0.50426955  0.50582011  0.12116208  1
  O  O361  1  0.50230135  0.49440207  0.60887555  1
  O  O362  1  0.24435145  0.37946437  0.24531211  1
  O  O363  1  0.23892032  0.37585529  0.75002660  1
  O  O364  1  0.24418028  0.87703183  0.23978556  1
  O  O365  1  0.24634684  0.87866719  0.74610163  1
  O  O366  1  0.75055643  0.38587706  0.24296817  1
  O  O367  1  0.74278725  0.37564297  0.74356680  1
  O  O368  1  0.73781285  0.88198422  0.24815019  1
  O  O369  1  0.74243384  0.87839476  0.74357747  1
  O  O370  1  0.26008544  0.12354444  0.25684058  1
  O  O371  1  0.25427547  0.11980800  0.75524870  1
  O  O372  1  0.25556024  0.61896482  0.25521367  1
  O  O373  1  0.26610009  0.62138145  0.75010415  1
  O  O374  1  0.75532702  0.11915451  0.25502665  1
  O  O375  1  0.75812886  0.12599556  0.75841244  1
  O  O376  1  0.75767197  0.61640646  0.24813621  1
  O  O377  1  0.75631340  0.62654805  0.75806437  1
  O  O378  1  0.37035071  0.11711985  0.36637765  1
  O  O379  1  0.36808952  0.12239624  0.86848357  1
  O  O380  1  0.37007473  0.62029376  0.36897518  1
  O  O381  1  0.37961328  0.63356286  0.85747250  1
  O  O382  1  0.87031553  0.11958555  0.36830554  1
  O  O383  1  0.86764306  0.12088764  0.86886910  1
  O  O384  1  0.87279695  0.62361494  0.36310468  1
  O  O385  1  0.86617998  0.62561586  0.86650172  1
  O  O386  1  0.12898330  0.38007080  0.13071733  1
  O  O387  1  0.12552529  0.38227618  0.63463905  1
  O  O388  1  0.13067443  0.87883737  0.13006349  1
  O  O389  1  0.13390394  0.87559105  0.63138171  1
  O  O390  1  0.63036271  0.38245486  0.12702572  1
  O  O391  1  0.63382174  0.36867022  0.63426911  1
  O  O392  1  0.62744869  0.88530153  0.13462923  1
  O  O393  1  0.62959136  0.88038920  0.63054137  1
  O  O394  1  0.11964237  0.25477312  0.25455756  1
  O  O395  1  0.11683358  0.25869019  0.74983808  1
  O  O396  1  0.12290971  0.75605569  0.25746037  1
  O  O397  1  0.11868620  0.75478614  0.74923504  1
  O  O398  1  0.61547654  0.24880513  0.25688160  1
  O  O399  1  0.61797375  0.26027914  0.75359533  1
  O  O400  1  0.62155749  0.75694589  0.25565903  1
  O  O401  1  0.62925563  0.76583677  0.74952763  1
  O  O402  1  0.38057674  0.24327651  0.24659930  1
  O  O403  1  0.38255363  0.24262018  0.74800846  1
  O  O404  1  0.38017456  0.74489999  0.24623748  1
  O  O405  1  0.37663335  0.74417709  0.73554798  1
  O  O406  1  0.88044906  0.24475835  0.24496121  1
  O  O407  1  0.88353495  0.24099790  0.75159085  1
  O  O408  1  0.87098222  0.74128050  0.24176402  1
  O  O409  1  0.87942878  0.74227409  0.74508456  1
  O  O410  1  0.38418896  0.49638733  0.49430883  1
  O  O411  1  0.38311110  0.49120481  1.00897479  1
  O  O412  1  0.38105395  0.99304378  0.49375434  1
  O  O413  1  0.38690322  0.99912350  1.00100359  1
  O  O414  1  0.88404842  0.49097054  0.50019419  1
  O  O415  1  0.88071059  0.49405205  0.99993009  1
  O  O416  1  0.88010575  0.99399272  0.49331835  1
  O  O417  1  0.88004770  0.99953238  0.99509592  1
  O  O418  1  0.11771610  0.00572267  0.00670400  1
  O  O419  1  0.11981185  0.00593804  0.49852379  1
  O  O420  1  0.11745132  0.50663952  0.00790464  1
  O  O421  1  0.11686711  0.49757163  0.50848006  1
  O  O422  1  0.61875712  0.00625864  0.00737800  1
  O  O423  1  0.61519724  -0.00144356  0.50331654  1
  O  O424  1  0.61706666  0.50720041  0.00699981  1
  O  O425  1  0.61745470  0.51097915  0.49027325  1
  O  O426  1  0.36726392  0.36806647  0.11937787  1
  O  O427  1  0.37439454  0.37197884  0.61574216  1
  O  O428  1  0.36545471  0.87042191  0.12581946  1
  O  O429  1  0.37157644  0.86586037  0.61675709  1
  O  O430  1  0.86944172  0.37001303  0.11928307  1
  O  O431  1  0.86831671  0.37323276  0.61634477  1
  O  O432  1  0.87114939  0.86335252  0.12478847  1
  O  O433  1  0.87019291  0.87018217  0.61941571  1
  O  O434  1  0.13073543  0.13025543  0.37892380  1
  O  O435  1  0.13143483  0.12628961  0.88271817  1
  O  O436  1  0.13228222  0.63108289  0.37723704  1
  O  O437  1  0.11947908  0.62596249  0.88942422  1
  O  O438  1  0.63025793  0.13376334  0.37511935  1
  O  O439  1  0.63309765  0.12329723  0.88277408  1
  O  O440  1  0.62959474  0.63780804  0.38061687  1
  O  O441  1  0.63249660  0.62820467  0.88018464  1
