# generated using pymatgen
data_V93Zn93O256
_symmetry_space_group_name_H-M   'P 1'
_cell_length_a   17.04680129
_cell_length_b   17.04803664
_cell_length_c   17.04974952
_cell_angle_alpha   89.94803368
_cell_angle_beta   89.98584215
_cell_angle_gamma   89.99604184
_symmetry_Int_Tables_number   1
_chemical_formula_structural   V93Zn93O256
_chemical_formula_sum   'V93 Zn93 O256'
_cell_volume   4954.90211117
_cell_formula_units_Z   1
loop_
 _symmetry_equiv_pos_site_id
 _symmetry_equiv_pos_as_xyz
  1  'x, y, z'
loop_
 _atom_site_type_symbol
 _atom_site_label
 _atom_site_symmetry_multiplicity
 _atom_site_fract_x
 _atom_site_fract_y
 _atom_site_fract_z
 _atom_site_occupancy
  V  V0  1  0.00042254  0.37632530  0.37449904  1
  V  V1  1  -0.00342505  0.13026299  0.62406237  1
  V  V2  1  0.37589871  0.62335738  0.75054324  1
  V  V3  1  0.24897405  0.12466108  0.37671707  1
  V  V4  1  0.37559827  0.75058354  0.62492861  1
  V  V5  1  -0.00013639  0.50106193  -0.00030434  1
  V  V6  1  0.62771021  0.74860578  0.37596820  1
  V  V7  1  0.74848903  0.50015592  0.74722162  1
  V  V8  1  0.12271233  -0.00080978  0.12519042  1
  V  V9  1  0.75185460  0.74939242  0.49930954  1
  V  V10  1  -0.00143492  0.37553585  0.87503935  1
  V  V11  1  0.25219152  0.74897652  0.50091027  1
  V  V12  1  -0.00084851  0.87531056  0.87536690  1
  V  V13  1  0.49796384  0.12444631  0.62555901  1
  V  V14  1  0.87599249  0.62675888  0.74855327  1
  V  V15  1  0.36967994  0.12316986  0.75003881  1
  V  V16  1  0.62564194  0.87407684  0.24925654  1
  V  V17  1  0.37263456  -0.00071187  0.87495789  1
  V  V18  1  0.12217691  -0.00342718  0.63210331  1
  V  V19  1  0.12363113  0.87302217  0.25374538  1
  V  V20  1  0.25225955  0.62514090  0.37587278  1
  V  V21  1  0.24966128  -0.00058768  0.25119364  1
  V  V22  1  0.87307874  -0.00375945  0.87975270  1
  V  V23  1  0.24982787  0.87387321  0.12619885  1
  V  V24  1  0.37478890  0.12448560  0.25032231  1
  V  V25  1  0.37529577  0.87405894  0.00075863  1
  V  V26  1  0.62457337  0.00019247  0.12397365  1
  V  V27  1  0.87650931  0.87762658  0.50013273  1
  V  V28  1  0.00309008  0.75361760  0.75062985  1
  V  V29  1  0.37417849  0.37106528  0.50106479  1
  V  V30  1  0.37654402  0.74924141  0.12582871  1
  V  V31  1  0.24907116  0.25051107  0.00124253  1
  V  V32  1  0.62326641  0.12559824  -0.00092666  1
  V  V33  1  0.12417517  0.37400072  0.74876320  1
  V  V34  1  0.87678680  0.75180926  0.62470079  1
  V  V35  1  -0.00344494  0.74528659  0.25037793  1
  V  V36  1  0.74905470  0.00057551  0.74972905  1
  V  V37  1  0.87363509  0.13154830  0.74564370  1
  V  V38  1  0.50455455  0.50028919  0.50003615  1
  V  V39  1  0.50637723  0.24943631  0.25400999  1
  V  V40  1  0.74560855  0.13416492  0.37491739  1
  V  V41  1  0.49941271  -0.00138845  0.49933270  1
  V  V42  1  0.24481001  0.87386523  0.63146086  1
  V  V43  1  0.62404362  0.13303251  0.49652394  1
  V  V44  1  0.49698472  0.24943805  0.75110144  1
  V  V45  1  0.49924009  0.87384872  0.87575504  1
  V  V46  1  0.37796992  0.49921756  0.37399562  1
  V  V47  1  0.37779558  0.62405638  0.24995093  1
  V  V48  1  0.62465033  0.87540976  0.74980137  1
  V  V49  1  0.37559741  -0.00161509  0.37623838  1
  V  V50  1  0.50029861  0.12434745  0.12540327  1
  V  V51  1  0.12642309  0.62306790  0.50086777  1
  V  V52  1  0.37578028  0.49986039  0.87546965  1
  V  V53  1  0.12557178  0.75465337  0.87151032  1
  V  V54  1  0.75683204  0.87701311  0.12105698  1
  V  V55  1  0.75127856  0.62648364  0.87481737  1
  V  V56  1  0.12489260  0.62572519  0.00033509  1
  V  V57  1  0.62425856  0.00022900  0.62415872  1
  V  V58  1  0.50192126  0.62379648  0.62423623  1
  V  V59  1  0.62624323  0.62400126  0.00273243  1
  V  V60  1  0.74955089  0.00154366  0.25017335  1
  V  V61  1  0.87186568  0.25334989  0.12277194  1
  V  V62  1  0.87598830  0.74568142  0.12790301  1
  V  V63  1  0.25174966  0.49935982  0.24897723  1
  V  V64  1  0.87494253  0.36922914  0.50234496  1
  V  V65  1  0.87556976  0.00144997  0.37594947  1
  V  V66  1  0.12217023  0.24919009  0.87567412  1
  V  V67  1  0.49941503  0.37487423  0.87427462  1
  V  V68  1  0.87615880  0.50053910  0.87476561  1
  V  V69  1  0.87521986  0.50660117  0.37119259  1
  V  V70  1  -0.00435134  -0.00280487  0.00027727  1
  V  V71  1  0.00216502  0.62574040  0.62445428  1
  V  V72  1  0.50524725  0.49924338  0.00397876  1
  V  V73  1  0.50235411  0.74853872  0.25053042  1
  V  V74  1  0.62709628  0.37805828  0.24289350  1
  V  V75  1  0.50888549  0.37052766  0.37559644  1
  V  V76  1  0.75414321  0.36796512  0.62466142  1
  V  V77  1  0.37374821  0.24933550  0.12534889  1
  V  V78  1  0.62268761  0.24955546  0.87392004  1
  V  V79  1  0.24945052  0.49906475  0.74926648  1
  V  V80  1  0.75077318  0.87556753  0.62501259  1
  V  V81  1  0.75701346  0.75548307  -0.00090307  1
  V  V82  1  -0.00065318  0.25016117  0.24932667  1
  V  V83  1  0.12271098  0.12444854  -0.00011322  1
  V  V84  1  0.62660112  0.75103836  0.87534290  1
  V  V85  1  0.50503796  0.62179589  0.12483957  1
  V  V86  1  0.12622625  0.24854580  0.37687253  1
  V  V87  1  0.75103813  0.50771396  0.24285379  1
  V  V88  1  0.74777386  0.12603173  0.87426051  1
  V  V89  1  0.24930510  0.74862962  0.00055739  1
  V  V90  1  -0.00251817  0.12513220  0.12521677  1
  V  V91  1  0.12599031  0.49884197  0.12561014  1
  V  V92  1  0.50125102  0.74831899  0.74996154  1
  Zn  Zn93  1  0.74784004  0.25439601  -0.00058972  1
  Zn  Zn94  1  0.12473619  0.12238274  0.50289178  1
  Zn  Zn95  1  0.12420525  0.49820561  0.62414889  1
  Zn  Zn96  1  0.00213460  0.00050316  0.50051154  1
  Zn  Zn97  1  0.37579911  0.87426935  0.49998852  1
  Zn  Zn98  1  -0.00299644  0.62270708  0.12893809  1
  Zn  Zn99  1  0.12825205  0.37476402  0.25049294  1
  Zn  Zn100  1  0.24565392  0.12262523  0.87418795  1
  Zn  Zn101  1  0.62712971  0.50018789  0.62359172  1
  Zn  Zn102  1  0.49911213  0.87370357  0.37652759  1
  Zn  Zn103  1  0.63023731  0.62418448  0.50055704  1
  Zn  Zn104  1  0.37484350  0.37593763  0.00163566  1
  Zn  Zn105  1  0.87194982  0.12763707  0.25064844  1
  Zn  Zn106  1  0.87106245  0.37635041  -0.00109727  1
  Zn  Zn107  1  0.75703850  0.62702624  0.37297129  1
  Zn  Zn108  1  -0.00502981  0.25273823  0.74698327  1
  Zn  Zn109  1  0.74592974  0.38003200  0.12005179  1
  Zn  Zn110  1  -0.00126478  0.50064682  0.50103692  1
  Zn  Zn111  1  0.62327785  0.37424472  0.74641162  1
  Zn  Zn112  1  0.25206510  0.37403409  0.12766589  1
  Zn  Zn113  1  0.24223358  -0.00683984  0.75426565  1
  Zn  Zn114  1  0.74962387  0.25088937  0.50018685  1
  Zn  Zn115  1  0.37144441  0.24851970  0.62569156  1
  Zn  Zn116  1  0.24897030  0.37123541  0.62370483  1
  Zn  Zn117  1  0.49851834  -0.00075022  0.00118827  1
  Zn  Zn118  1  0.24994299  0.24702345  0.50347411  1
  Zn  Zn119  1  0.24970982  0.62570606  0.87487648  1
  Zn  Zn120  1  0.12425585  0.74908912  0.37503532  1
  Zn  Zn121  1  0.00024770  0.87532028  0.37671754  1
  Zn  Zn122  1  0.18569672  0.18657767  0.18858377  1
  Zn  Zn123  1  0.18584373  0.18717341  0.68467229  1
  Zn  Zn124  1  0.18698261  0.68561048  0.18819330  1
  Zn  Zn125  1  0.18839784  0.68695764  0.68797611  1
  Zn  Zn126  1  0.68734161  0.18849791  0.18705024  1
  Zn  Zn127  1  0.68424929  0.18748089  0.68734124  1
  Zn  Zn128  1  0.68809123  0.68796509  0.18587938  1
  Zn  Zn129  1  0.68719420  0.68658299  0.68489662  1
  Zn  Zn130  1  0.31457243  0.31266272  0.31320533  1
  Zn  Zn131  1  0.31102754  0.31207763  0.81630981  1
  Zn  Zn132  1  0.31337973  0.81169090  0.31456083  1
  Zn  Zn133  1  0.31277302  0.81091146  0.81209896  1
  Zn  Zn134  1  0.81407755  0.31708290  0.30975524  1
  Zn  Zn135  1  0.81007265  0.31390163  0.81356698  1
  Zn  Zn136  1  0.81270862  0.81497263  0.31108412  1
  Zn  Zn137  1  0.81496007  0.81437482  0.81125132  1
  Zn  Zn138  1  0.18913359  0.43813455  0.43572977  1
  Zn  Zn139  1  0.18694025  0.43654807  0.93648695  1
  Zn  Zn140  1  0.18862016  0.93822133  0.44402809  1
  Zn  Zn141  1  0.18572543  0.93537533  0.93933447  1
  Zn  Zn142  1  0.69188620  0.43687718  0.43374275  1
  Zn  Zn143  1  0.68652641  0.43549583  0.93497832  1
  Zn  Zn144  1  0.68823598  0.93936795  0.43755288  1
  Zn  Zn145  1  0.68603526  0.93890750  0.93828386  1
  Zn  Zn146  1  0.31063098  0.06301059  0.06263005  1
  Zn  Zn147  1  0.30924511  0.05915209  0.56241842  1
  Zn  Zn148  1  0.31413567  0.56281181  0.06203359  1
  Zn  Zn149  1  0.31467092  0.55993666  0.56390386  1
  Zn  Zn150  1  0.81075389  0.06765937  0.06128029  1
  Zn  Zn151  1  0.81142550  0.06450476  0.56101859  1
  Zn  Zn152  1  0.81428528  0.56564073  0.06076138  1
  Zn  Zn153  1  0.81540842  0.56093625  0.55927429  1
  Zn  Zn154  1  0.43761821  0.43471210  0.18569604  1
  Zn  Zn155  1  0.43680364  0.43634555  0.68584018  1
  Zn  Zn156  1  0.43885748  0.93636610  0.18962299  1
  Zn  Zn157  1  0.43486629  0.93648459  0.68667314  1
  Zn  Zn158  1  0.93662592  0.43745089  0.18787460  1
  Zn  Zn159  1  0.93771196  0.43941974  0.68548369  1
  Zn  Zn160  1  0.93658382  0.93664829  0.19060510  1
  Zn  Zn161  1  0.93852584  0.94068277  0.69109366  1
  Zn  Zn162  1  0.06099697  0.06445663  0.31107361  1
  Zn  Zn163  1  0.05858698  0.06416078  0.81116188  1
  Zn  Zn164  1  0.06460548  0.56277460  0.31316113  1
  Zn  Zn165  1  0.06336193  0.56539581  0.81355326  1
  Zn  Zn166  1  0.56312364  0.06100852  0.31339785  1
  Zn  Zn167  1  0.55888348  0.06195315  0.81269387  1
  Zn  Zn168  1  0.56778457  0.56154446  0.31258217  1
  Zn  Zn169  1  0.56393087  0.56241830  0.81564225  1
  Zn  Zn170  1  0.43720355  0.18551327  0.43678416  1
  Zn  Zn171  1  0.43634959  0.18646132  0.93808925  1
  Zn  Zn172  1  0.43923651  0.68716790  0.43776494  1
  Zn  Zn173  1  0.43751061  0.68541564  0.93772212  1
  Zn  Zn174  1  0.93731501  0.18625806  0.43816402  1
  Zn  Zn175  1  0.93541293  0.18663797  0.93675806  1
  Zn  Zn176  1  0.94117694  0.69029383  0.43735734  1
  Zn  Zn177  1  0.93848327  0.68701612  0.93947976  1
  Zn  Zn178  1  0.06035923  0.31463778  0.06173891  1
  Zn  Zn179  1  0.06064844  0.31167221  0.56203242  1
  Zn  Zn180  1  0.05971919  0.81389675  0.06079287  1
  Zn  Zn181  1  0.06375162  0.81351190  0.56059235  1
  Zn  Zn182  1  0.56131968  0.31148684  0.06240255  1
  Zn  Zn183  1  0.56277204  0.31348943  0.56843071  1
  Zn  Zn184  1  0.56519205  0.81114801  0.06258219  1
  Zn  Zn185  1  0.56291360  0.81263102  0.56136370  1
  O  O186  1  0.11749146  0.11810548  0.12073023  1
  O  O187  1  0.11517641  0.11638893  0.62466494  1
  O  O188  1  0.12484744  0.61408429  0.11921618  1
  O  O189  1  0.12135726  0.62464460  0.61619398  1
  O  O190  1  0.61994796  0.11987068  0.11993000  1
  O  O191  1  0.61898106  0.11883999  0.61716931  1
  O  O192  1  0.61778628  0.63247596  0.11531800  1
  O  O193  1  0.61776522  0.62144975  0.62091828  1
  O  O194  1  0.38718945  0.37994181  0.38169167  1
  O  O195  1  0.38176031  0.38141168  0.87827810  1
  O  O196  1  0.37735240  0.88268177  0.37740349  1
  O  O197  1  0.37915758  0.88055998  0.87971161  1
  O  O198  1  0.88366133  0.38242713  0.38090935  1
  O  O199  1  0.88092156  0.38297553  0.87400639  1
  O  O200  1  0.87258060  0.88701247  0.38056194  1
  O  O201  1  0.88106557  0.88788662  0.87117884  1
  O  O202  1  0.25476366  0.00454400  0.36981598  1
  O  O203  1  0.25887751  -0.00158852  0.87353973  1
  O  O204  1  0.25843937  0.50579485  0.36941626  1
  O  O205  1  0.25547533  0.50090210  0.86546037  1
  O  O206  1  0.75728591  0.00852237  0.37032262  1
  O  O207  1  0.75492349  0.00431675  0.87002553  1
  O  O208  1  0.75931998  0.50160610  0.36560987  1
  O  O209  1  0.75558838  0.50648407  0.86633394  1
  O  O210  1  0.24275761  0.49915741  0.12945989  1
  O  O211  1  0.24936049  0.49564298  0.63809529  1
  O  O212  1  0.24355008  0.99396769  0.13119838  1
  O  O213  1  0.24143921  0.99052452  0.62762556  1
  O  O214  1  0.76003844  0.49955727  0.13949565  1
  O  O215  1  0.75128040  0.49447831  0.63405235  1
  O  O216  1  0.74591589  0.99445855  0.12801680  1
  O  O217  1  0.74399369  0.99491153  0.63006098  1
  O  O218  1  0.00149559  0.36996860  0.26156022  1
  O  O219  1  0.00789606  0.37511278  0.75467638  1
  O  O220  1  0.00987479  0.86791711  0.25068456  1
  O  O221  1  -0.00516191  0.86860962  0.76508476  1
  O  O222  1  0.50653433  0.37002747  0.25687821  1
  O  O223  1  0.49934929  0.36823726  0.75560878  1
  O  O224  1  0.50805071  0.86636766  0.25060242  1
  O  O225  1  0.50522790  0.86854869  0.75499939  1
  O  O226  1  0.49620490  0.13224535  0.24695021  1
  O  O227  1  0.48930802  0.12829686  0.74599932  1
  O  O228  1  0.49754234  0.62815795  0.24520588  1
  O  O229  1  0.49632394  0.62893884  0.74562256  1
  O  O230  1  0.99693999  0.13226760  0.24243645  1
  O  O231  1  0.98899519  0.12638410  0.74289714  1
  O  O232  1  1.00950924  0.64125393  0.24736613  1
  O  O233  1  0.99476047  0.63226764  0.74514190  1
  O  O234  1  0.36452457  0.24767184  0.00582717  1
  O  O235  1  0.37603160  0.26063888  0.49901145  1
  O  O236  1  0.37013433  0.75426194  0.00575019  1
  O  O237  1  0.37009684  0.74856717  0.50772368  1
  O  O238  1  0.87294801  0.25093591  0.00990442  1
  O  O239  1  0.87280774  0.26571446  0.49280295  1
  O  O240  1  0.86309423  0.74865304  0.00656565  1
  O  O241  1  0.87148596  0.75713052  0.50543426  1
  O  O242  1  0.12530016  0.24909529  0.48597510  1
  O  O243  1  0.13011079  0.24435642  0.99697387  1
  O  O244  1  0.13242363  0.73879099  0.49866877  1
  O  O245  1  0.12961515  0.74589495  0.99354776  1
  O  O246  1  0.62294469  0.23587546  0.50370175  1
  O  O247  1  0.62350808  0.24277901  0.99233230  1
  O  O248  1  0.63226296  0.75148524  0.49087493  1
  O  O249  1  0.63614205  0.74557297  0.99413625  1
  O  O250  1  0.49412363  0.24389947  0.13435100  1
  O  O251  1  0.49538429  0.24192653  0.63267983  1
  O  O252  1  0.49562798  0.74393719  0.13048626  1
  O  O253  1  0.49635407  0.74463343  0.63088085  1
  O  O254  1  0.99347798  0.24545856  0.12901664  1
  O  O255  1  1.00514247  0.23550189  0.62824292  1
  O  O256  1  0.99096983  0.75298796  0.13083799  1
  O  O257  1  0.99601278  0.74644162  0.63069720  1
  O  O258  1  0.00630338  0.25662561  0.37034815  1
  O  O259  1  0.00527075  0.25660470  0.87346124  1
  O  O260  1  0.00299837  0.75517432  0.36457537  1
  O  O261  1  0.00532081  0.75700890  0.87253902  1
  O  O262  1  0.49337818  0.25870870  0.36377597  1
  O  O263  1  0.50275750  0.25466036  0.87054231  1
  O  O264  1  0.51027395  0.75050868  0.36951499  1
  O  O265  1  0.50631700  0.75414094  0.86994062  1
  O  O266  1  0.24772263  0.12683720  0.49105483  1
  O  O267  1  0.24179928  0.13394400  0.99973173  1
  O  O268  1  0.24545996  0.62794947  0.49696380  1
  O  O269  1  0.24439357  0.63196800  0.99820949  1
  O  O270  1  0.74141208  0.12845407  0.49399785  1
  O  O271  1  0.74065580  0.12761151  0.99118477  1
  O  O272  1  0.75017890  0.63364235  0.49722246  1
  O  O273  1  0.74620356  0.63431193  0.99421470  1
  O  O274  1  0.24966930  0.36120167  0.00170858  1
  O  O275  1  0.26339865  0.37542470  0.49777976  1
  O  O276  1  0.25517515  0.86859894  0.00734412  1
  O  O277  1  0.25241873  0.86648451  0.51112676  1
  O  O278  1  0.75186972  0.37342217  0.00339580  1
  O  O279  1  0.75643304  0.37344251  0.50596848  1
  O  O280  1  0.74312013  0.86621882  0.00923391  1
  O  O281  1  0.75583624  0.87037104  0.50677440  1
  O  O282  1  0.13211446  0.50046655  0.24120601  1
  O  O283  1  0.13300913  0.49246119  0.75194402  1
  O  O284  1  0.12886336  0.99207316  0.24506476  1
  O  O285  1  0.12492191  1.00398931  0.73807401  1
  O  O286  1  0.64056531  0.49149808  0.25560981  1
  O  O287  1  0.63883674  0.50010685  0.75108120  1
  O  O288  1  0.63009680  0.99453848  0.24347927  1
  O  O289  1  0.62887313  0.99515674  0.74481150  1
  O  O290  1  0.36916489  0.00480148  0.25466338  1
  O  O291  1  0.37391479  0.00667010  0.75930971  1
  O  O292  1  0.37294211  0.50505992  0.25437212  1
  O  O293  1  0.36789701  0.50336315  0.75461493  1
  O  O294  1  0.86768224  0.00199448  0.25896051  1
  O  O295  1  0.86785705  0.00852445  0.75975563  1
  O  O296  1  0.86170600  0.49171380  0.25946783  1
  O  O297  1  0.86693828  0.50734229  0.75427019  1
  O  O298  1  0.11603198  0.36848020  0.37540229  1
  O  O299  1  0.11841552  0.37074219  0.86676625  1
  O  O300  1  0.12650514  0.87519814  0.36342674  1
  O  O301  1  0.11615109  0.86338563  0.87947606  1
  O  O302  1  0.61352893  0.37722803  0.36656231  1
  O  O303  1  0.61723503  0.36776312  0.86965585  1
  O  O304  1  0.62706265  0.86459338  0.36840335  1
  O  O305  1  0.61993802  0.87040618  0.86924891  1
  O  O306  1  0.37974671  0.12862840  0.13167065  1
  O  O307  1  0.37949769  0.12173935  0.63539504  1
  O  O308  1  0.38290936  0.63059610  0.13098766  1
  O  O309  1  0.38173017  0.62974657  0.63138777  1
  O  O310  1  0.87953863  0.13449629  0.12700748  1
  O  O311  1  0.88214230  0.11643223  0.63559662  1
  O  O312  1  0.87705489  0.64141186  0.12239735  1
  O  O313  1  0.88153504  0.63219021  0.62883806  1
  O  O314  1  0.25358758  0.24887535  0.11747443  1
  O  O315  1  0.25363789  0.25356294  0.62082724  1
  O  O316  1  0.25651869  0.75421530  0.12137605  1
  O  O317  1  0.25527060  0.75485015  0.62143807  1
  O  O318  1  0.76007838  0.25200838  0.12441228  1
  O  O319  1  0.74582023  0.26413906  0.62548050  1
  O  O320  1  0.75653560  0.75746042  0.11915654  1
  O  O321  1  0.75675404  0.75643241  0.62080614  1
  O  O322  1  0.24096921  0.24440858  0.37382219  1
  O  O323  1  0.24189157  0.24725966  0.88582762  1
  O  O324  1  0.25009429  0.74172275  0.38167695  1
  O  O325  1  0.24145200  0.75071422  0.88090704  1
  O  O326  1  0.75511794  0.23675969  0.37336215  1
  O  O327  1  0.74103126  0.24298793  0.87416844  1
  O  O328  1  0.74466723  0.74921777  0.37854552  1
  O  O329  1  0.74782089  0.74781776  0.88122609  1
  O  O330  1  0.00409673  0.11758728  0.00552771  1
  O  O331  1  -0.00091202  0.12205950  0.51063786  1
  O  O332  1  0.00715767  0.61877772  0.00284571  1
  O  O333  1  0.01138132  0.62592700  0.50494813  1
  O  O334  1  0.50492634  0.12292809  0.00761865  1
  O  O335  1  0.50616680  0.11905443  0.50426426  1
  O  O336  1  0.50578738  0.61838033  0.00419742  1
  O  O337  1  0.50012909  0.61387003  0.50456848  1
  O  O338  1  0.49613717  0.38033910  0.49359462  1
  O  O339  1  0.49988713  0.38393956  0.99420185  1
  O  O340  1  0.49856508  0.88339508  0.49819764  1
  O  O341  1  0.49352608  0.87436231  0.99426437  1
  O  O342  1  0.99378003  0.37672854  0.49084926  1
  O  O343  1  0.99886992  0.38404713  0.99173968  1
  O  O344  1  0.99190330  0.87811077  0.49650783  1
  O  O345  1  1.00157387  0.88186425  0.98614437  1
  O  O346  1  0.49726216  0.49190947  0.38118421  1
  O  O347  1  0.49484456  0.49556749  0.88218085  1
  O  O348  1  0.49375817  0.99834640  0.38053387  1
  O  O349  1  0.48871118  0.99240655  0.87644666  1
  O  O350  1  0.99447006  0.49109812  0.37327479  1
  O  O351  1  0.99514317  0.49640609  0.87887526  1
  O  O352  1  0.98687514  1.00067663  0.37472329  1
  O  O353  1  0.99237871  0.99381860  0.87857736  1
  O  O354  1  0.00248132  0.00329811  0.12053560  1
  O  O355  1  0.00637161  0.00738796  0.62580783  1
  O  O356  1  0.00842556  0.50181385  0.12106010  1
  O  O357  1  0.00323885  0.51023125  0.62209854  1
  O  O358  1  0.50615657  0.00621166  0.12540416  1
  O  O359  1  0.50512202  0.00508281  0.62086951  1
  O  O360  1  0.49454206  0.50533541  0.11227197  1
  O  O361  1  0.50112250  0.50400690  0.61511520  1
  O  O362  1  0.24906107  0.38348984  0.24952605  1
  O  O363  1  0.24084987  0.38266615  0.75220182  1
  O  O364  1  0.24254442  0.87862504  0.24535708  1
  O  O365  1  0.25382098  0.87333000  0.73612543  1
  O  O366  1  0.74095167  0.38298647  0.24916055  1
  O  O367  1  0.75219756  0.38523850  0.74197411  1
  O  O368  1  0.74436701  0.88102643  0.23996233  1
  O  O369  1  0.74416513  0.88042018  0.74506403  1
  O  O370  1  0.25473627  0.11818068  0.25525835  1
  O  O371  1  0.26016763  0.12147652  0.75250001  1
  O  O372  1  0.25809144  0.61976329  0.25532873  1
  O  O373  1  0.25622048  0.61505368  0.75126323  1
  O  O374  1  0.74769847  0.11915793  0.25861710  1
  O  O375  1  0.75419524  0.11915236  0.75325056  1
  O  O376  1  0.74580394  0.61110081  0.25146273  1
  O  O377  1  0.75561224  0.61952396  0.75403980  1
  O  O378  1  0.36948884  0.11877403  0.36825490  1
  O  O379  1  0.37349503  0.11488988  0.86811843  1
  O  O380  1  0.37280580  0.61863660  0.36922790  1
  O  O381  1  0.37358062  0.61887629  0.86762914  1
  O  O382  1  0.86521666  0.11695307  0.37477886  1
  O  O383  1  0.86892609  0.11605710  0.86645495  1
  O  O384  1  0.87872351  0.61058495  0.38061767  1
  O  O385  1  0.87020116  0.62164495  0.86837893  1
  O  O386  1  0.12634814  0.38783054  0.12675134  1
  O  O387  1  0.12455163  0.37675114  0.63595062  1
  O  O388  1  0.12961425  0.87948350  0.13325083  1
  O  O389  1  0.13356811  0.88219513  0.62118499  1
  O  O390  1  0.62426098  0.37274851  0.13856555  1
  O  O391  1  0.63609140  0.38116447  0.62716287  1
  O  O392  1  0.63492610  0.87914856  0.12940836  1
  O  O393  1  0.63059409  0.87980357  0.63112386  1
  O  O394  1  0.11905587  0.25187534  0.26017131  1
  O  O395  1  0.12500340  0.26039515  0.75680495  1
  O  O396  1  0.11896306  0.75978096  0.24898956  1
  O  O397  1  0.11904273  0.74184816  0.76340882  1
  O  O398  1  0.61210400  0.25701867  0.24700757  1
  O  O399  1  0.61462351  0.24927207  0.75643754  1
  O  O400  1  0.62273408  0.75399998  0.25727550  1
  O  O401  1  0.62123698  0.75532305  0.75548075  1
  O  O402  1  0.38350027  0.24399596  0.24548219  1
  O  O403  1  0.37829603  0.23836035  0.75321892  1
  O  O404  1  0.38178190  0.74364255  0.24544162  1
  O  O405  1  0.38242256  0.74341887  0.74569932  1
  O  O406  1  0.88131243  0.25018242  0.24079358  1
  O  O407  1  0.87358389  0.23546549  0.75615425  1
  O  O408  1  0.88504772  0.75803529  0.24087372  1
  O  O409  1  0.88096781  0.74538616  0.74413061  1
  O  O410  1  0.38584971  0.49206949  0.49475809  1
  O  O411  1  0.38540172  0.50028660  0.99338725  1
  O  O412  1  0.38212739  0.99965938  0.49389714  1
  O  O413  1  0.37439642  0.99371015  0.99164726  1
  O  O414  1  0.87680575  0.48893942  0.48913741  1
  O  O415  1  0.88172093  0.50164771  0.99214635  1
  O  O416  1  0.87333338  0.99525721  0.49059939  1
  O  O417  1  0.87869843  1.00877851  0.98690635  1
  O  O418  1  0.11799356  0.00384041  0.00635813  1
  O  O419  1  0.12212497  0.00219289  0.51330528  1
  O  O420  1  0.12127270  0.50492382  0.00643439  1
  O  O421  1  0.12573292  0.51170785  0.50110688  1
  O  O422  1  0.62135678  0.00645833  0.00610489  1
  O  O423  1  0.62003713  0.00791972  0.50613226  1
  O  O424  1  0.61286156  0.50819158  -0.00952929  1
  O  O425  1  0.61355959  0.50035382  0.49608547  1
  O  O426  1  0.37284865  0.36508446  0.12155324  1
  O  O427  1  0.37521894  0.37300185  0.61216805  1
  O  O428  1  0.36982253  0.86913314  0.12138600  1
  O  O429  1  0.36644480  0.86792852  0.62304192  1
  O  O430  1  0.87540912  0.36395265  0.12245003  1
  O  O431  1  0.86681882  0.38269834  0.61389303  1
  O  O432  1  0.86206885  0.86884134  0.12821178  1
  O  O433  1  0.87007881  0.87147730  0.62193667  1
  O  O434  1  0.12934057  0.13337215  0.37507517  1
  O  O435  1  0.12358944  0.13008314  0.88186495  1
  O  O436  1  0.13338049  0.62518942  0.38460902  1
  O  O437  1  0.12597148  0.63630480  0.88270323  1
  O  O438  1  0.63427545  0.11670405  0.38581605  1
  O  O439  1  0.62757923  0.12881284  0.87838065  1
  O  O440  1  0.62830338  0.63889053  0.37656978  1
  O  O441  1  0.63228536  0.63283695  0.88068389  1
