# generated using pymatgen
data_V93Zn93O256
_symmetry_space_group_name_H-M   'P 1'
_cell_length_a   17.06170067
_cell_length_b   17.06508239
_cell_length_c   17.05856632
_cell_angle_alpha   89.98037679
_cell_angle_beta   89.99004215
_cell_angle_gamma   90.04146805
_symmetry_Int_Tables_number   1
_chemical_formula_structural   V93Zn93O256
_chemical_formula_sum   'V93 Zn93 O256'
_cell_volume   4966.75902904
_cell_formula_units_Z   1
loop_
 _symmetry_equiv_pos_site_id
 _symmetry_equiv_pos_as_xyz
  1  'x, y, z'
loop_
 _atom_site_type_symbol
 _atom_site_label
 _atom_site_symmetry_multiplicity
 _atom_site_fract_x
 _atom_site_fract_y
 _atom_site_fract_z
 _atom_site_occupancy
  V  V0  1  0.87327937  0.50085501  0.87532173  1
  V  V1  1  0.24151746  0.63376315  0.37966550  1
  V  V2  1  0.24910994  0.49672204  0.75096960  1
  V  V3  1  0.12471840  0.50130125  0.12595508  1
  V  V4  1  0.87428571  0.62403470  0.75093427  1
  V  V5  1  0.25046715  -0.00457829  0.24428341  1
  V  V6  1  0.37467104  0.62471491  0.75046234  1
  V  V7  1  0.62365656  0.37452532  0.25031221  1
  V  V8  1  0.62433760  0.62615412  0.49984614  1
  V  V9  1  0.49998202  0.74978202  0.74906486  1
  V  V10  1  0.37524756  -0.00053461  0.37395849  1
  V  V11  1  0.62423015  0.37387260  0.75045983  1
  V  V12  1  0.74970577  0.37470255  0.62553325  1
  V  V13  1  0.12370797  0.25018753  0.37387678  1
  V  V14  1  0.00518523  0.12613306  0.11860824  1
  V  V15  1  0.12557800  0.75157024  0.87553401  1
  V  V16  1  0.74957379  0.49988884  0.75130737  1
  V  V17  1  0.12664255  0.87242612  0.24966194  1
  V  V18  1  0.75081512  0.87498826  0.62531514  1
  V  V19  1  0.37128130  0.75461969  0.12648545  1
  V  V20  1  0.00345484  0.75026986  0.25246569  1
  V  V21  1  0.62588985  0.87532606  0.24921322  1
  V  V22  1  -0.00080999  0.00075561  0.49837760  1
  V  V23  1  0.24990247  0.62389375  0.87614149  1
  V  V24  1  -0.00062968  0.24986257  0.24923174  1
  V  V25  1  0.25224990  0.36822746  0.12055536  1
  V  V26  1  0.74929251  0.24984052  0.49894276  1
  V  V27  1  0.00435597  0.00117415  -0.00092293  1
  V  V28  1  0.62539164  0.74998768  0.37494431  1
  V  V29  1  0.87522802  0.25003918  0.12491984  1
  V  V30  1  0.74356999  0.24596622  -0.00046173  1
  V  V31  1  0.49793672  0.49824360  0.00120550  1
  V  V32  1  0.87327058  0.37628254  0.00061732  1
  V  V33  1  0.37169023  0.12296592  0.75042693  1
  V  V34  1  0.00084479  0.37113995  0.87422186  1
  V  V35  1  0.74895021  0.62627805  0.37546550  1
  V  V36  1  0.75171152  0.87529922  0.12375087  1
  V  V37  1  0.25157800  0.75149681  0.00219423  1
  V  V38  1  0.87572273  0.00037900  0.37322535  1
  V  V39  1  -0.00087205  0.49926621  0.50073671  1
  V  V40  1  -0.00063476  0.12552921  0.62513246  1
  V  V41  1  0.13356118  -0.00419266  0.62752560  1
  V  V42  1  0.49949986  0.37459647  0.87553864  1
  V  V43  1  0.25045166  0.25278730  0.50151846  1
  V  V44  1  0.24882454  0.50162032  0.25164539  1
  V  V45  1  0.50419108  0.12558902  0.11679331  1
  V  V46  1  -0.00209725  0.62311146  0.62595104  1
  V  V47  1  0.12537162  0.62679521  0.00155080  1
  V  V48  1  0.49675939  0.37570799  0.37494200  1
  V  V49  1  0.00294530  0.87098300  0.37506265  1
  V  V50  1  0.50075747  0.24922230  0.74911910  1
  V  V51  1  0.74950510  0.49986736  0.25046166  1
  V  V52  1  0.62491987  0.62533315  0.00093115  1
  V  V53  1  0.49961456  0.75008188  0.25038821  1
  V  V54  1  0.12408935  0.37532821  0.24963978  1
  V  V55  1  0.50079649  0.87523206  0.37509884  1
  V  V56  1  0.12431898  0.12526675  0.49872733  1
  V  V57  1  0.75045282  -0.00019632  0.74956694  1
  V  V58  1  -0.00138474  0.37573765  0.37491648  1
  V  V59  1  0.87708089  0.87383099  -0.00043032  1
  V  V60  1  0.24605329  0.12813507  0.89103114  1
  V  V61  1  0.49970640  0.62505942  0.62550545  1
  V  V62  1  0.87540850  0.24950735  0.62595597  1
  V  V63  1  0.36917515  0.87496395  0.50334014  1
  V  V64  1  0.62584634  0.00373171  0.11756924  1
  V  V65  1  0.74406634  0.12463548  0.87841892  1
  V  V66  1  0.37816569  0.12669149  0.24723150  1
  V  V67  1  0.49971338  0.12532546  0.62468511  1
  V  V68  1  0.00009276  0.62625303  0.12600866  1
  V  V69  1  0.37384661  0.87506731  0.00260249  1
  V  V70  1  -0.00192743  0.50141115  0.00072544  1
  V  V71  1  0.24958495  0.12611017  0.37194238  1
  V  V72  1  0.87468297  0.75088100  0.62527795  1
  V  V73  1  0.00587374  0.87538315  0.86877496  1
  V  V74  1  0.50016622  0.00115971  0.49899568  1
  V  V75  1  0.87709433  0.00005685  0.87472610  1
  V  V76  1  0.37478329  0.62569526  0.25289260  1
  V  V77  1  0.12484098  0.49863529  0.62500880  1
  V  V78  1  0.87503738  0.62597085  0.25059676  1
  V  V79  1  0.12683294  -0.00043543  0.12060102  1
  V  V80  1  0.87500737  0.12444217  0.24925334  1
  V  V81  1  0.74895346  0.37467700  0.12571277  1
  V  V82  1  0.62641838  0.74906391  0.87560008  1
  V  V83  1  0.36672375  0.75318891  0.62434114  1
  V  V84  1  0.62556546  0.87481622  0.74899235  1
  V  V85  1  0.49838630  0.49895832  0.50052686  1
  V  V86  1  0.87479419  0.50058358  0.37645252  1
  V  V87  1  0.49991446  0.87609953  0.87680970  1
  V  V88  1  0.87569599  0.12580812  0.74996172  1
  V  V89  1  0.62429207  0.50067168  0.62608528  1
  V  V90  1  0.75130402  0.00089216  0.24917014  1
  V  V91  1  0.62505380  0.12455221  0.49838195  1
  V  V92  1  0.87578553  0.75101324  0.12476991  1
  Zn  Zn93  1  0.14801221  0.85823942  0.73011688  1
  Zn  Zn94  1  0.13037718  0.24683414  0.88392271  1
  Zn  Zn95  1  0.37491229  0.24596461  0.11819308  1
  Zn  Zn96  1  0.25464967  -0.00484790  0.75337826  1
  Zn  Zn97  1  0.50361657  0.00387358  -0.00275519  1
  Zn  Zn98  1  0.50019187  0.25027433  0.24935434  1
  Zn  Zn99  1  0.87328868  0.87577059  0.49867901  1
  Zn  Zn100  1  0.62392810  0.24960630  0.37438204  1
  Zn  Zn101  1  0.62205513  0.24480538  0.87799406  1
  Zn  Zn102  1  0.00245133  0.74884624  0.74971727  1
  Zn  Zn103  1  0.36710234  0.37022503  -0.00581849  1
  Zn  Zn104  1  0.37342770  0.49988795  0.87631206  1
  Zn  Zn105  1  0.37136374  0.50087751  0.37916834  1
  Zn  Zn106  1  0.62568230  -0.00191017  0.62354931  1
  Zn  Zn107  1  0.75074680  0.62594796  0.87608616  1
  Zn  Zn108  1  0.12620157  0.36880065  0.75241309  1
  Zn  Zn109  1  0.37310869  0.37590451  0.50195504  1
  Zn  Zn110  1  0.11946209  0.63275530  0.49725636  1
  Zn  Zn111  1  0.37437992  0.25101122  0.62386057  1
  Zn  Zn112  1  0.74934508  0.75249002  0.49944180  1
  Zn  Zn113  1  0.49952469  0.62365439  0.12644444  1
  Zn  Zn114  1  0.62382403  0.50120539  0.12555854  1
  Zn  Zn115  1  0.87386361  0.37489250  0.50029727  1
  Zn  Zn116  1  0.23968516  0.76150880  0.50052133  1
  Zn  Zn117  1  0.25083582  0.37338857  0.62593220  1
  Zn  Zn118  1  0.00428869  0.24908970  0.75103259  1
  Zn  Zn119  1  0.74980382  0.12539383  0.37343343  1
  Zn  Zn120  1  0.37483972  0.00067729  0.87680046  1
  Zn  Zn121  1  0.75105717  0.74871656  -0.00059753  1
  Zn  Zn122  1  0.18607524  0.18597009  0.18527857  1
  Zn  Zn123  1  0.18477597  0.18608384  0.69243585  1
  Zn  Zn124  1  0.18929112  0.68939822  0.18844961  1
  Zn  Zn125  1  0.18536818  0.68190516  0.68745474  1
  Zn  Zn126  1  0.68678208  0.18778541  0.18683327  1
  Zn  Zn127  1  0.68683267  0.18677924  0.68763131  1
  Zn  Zn128  1  0.68775419  0.68800408  0.18594610  1
  Zn  Zn129  1  0.68875914  0.68754415  0.68873584  1
  Zn  Zn130  1  0.31176681  0.31268376  0.31000647  1
  Zn  Zn131  1  0.31463045  0.30797855  0.81306276  1
  Zn  Zn132  1  0.31221048  0.81344647  0.31468400  1
  Zn  Zn133  1  0.31314336  0.81197449  0.81426149  1
  Zn  Zn134  1  0.81243894  0.31233573  0.31352899  1
  Zn  Zn135  1  0.81360458  0.31134112  0.81320009  1
  Zn  Zn136  1  0.81416372  0.81343506  0.31134274  1
  Zn  Zn137  1  0.81346957  0.81164984  0.81281143  1
  Zn  Zn138  1  0.18601138  0.44108771  0.43678729  1
  Zn  Zn139  1  0.18313498  0.43843357  0.93869848  1
  Zn  Zn140  1  0.18555732  0.94116906  0.43411893  1
  Zn  Zn141  1  0.19252306  0.93984247  0.93368787  1
  Zn  Zn142  1  0.68520512  0.43804269  0.43750262  1
  Zn  Zn143  1  0.68549406  0.43694473  0.93788241  1
  Zn  Zn144  1  0.68980397  0.93745672  0.43742031  1
  Zn  Zn145  1  0.69012041  0.93553717  0.93660189  1
  Zn  Zn146  1  0.31693230  0.05884175  0.06322761  1
  Zn  Zn147  1  0.31383566  0.06615904  0.56093304  1
  Zn  Zn148  1  0.31340564  0.56128532  0.06504750  1
  Zn  Zn149  1  0.31348845  0.56255078  0.56310179  1
  Zn  Zn150  1  0.81574103  0.06206474  0.06119410  1
  Zn  Zn151  1  0.81298707  0.06174916  0.56191195  1
  Zn  Zn152  1  0.81051728  0.56260675  0.06399589  1
  Zn  Zn153  1  0.81117552  0.56318170  0.56192426  1
  Zn  Zn154  1  0.43605757  0.44078078  0.18855327  1
  Zn  Zn155  1  0.43372726  0.43481410  0.68599667  1
  Zn  Zn156  1  0.44083545  0.93899673  0.18589311  1
  Zn  Zn157  1  0.43732755  0.93838734  0.68571632  1
  Zn  Zn158  1  0.93601695  0.43821819  0.18794915  1
  Zn  Zn159  1  0.93605402  0.43550286  0.68892514  1
  Zn  Zn160  1  0.94004881  0.93803435  0.18736477  1
  Zn  Zn161  1  0.93955234  0.93964585  0.68630541  1
  Zn  Zn162  1  0.06207869  0.06162013  0.30956503  1
  Zn  Zn163  1  0.06577114  0.06351821  0.81061080  1
  Zn  Zn164  1  0.06199238  0.56188917  0.31290680  1
  Zn  Zn165  1  0.06184880  0.56137747  0.81281306  1
  Zn  Zn166  1  0.56400070  0.06143175  0.31041110  1
  Zn  Zn167  1  0.56201372  0.06041078  0.80972850  1
  Zn  Zn168  1  0.56143242  0.56095127  0.31434001  1
  Zn  Zn169  1  0.56227668  0.56178663  0.81439484  1
  Zn  Zn170  1  0.43712486  0.18960455  0.43491108  1
  Zn  Zn171  1  0.42992041  0.19177309  0.93748990  1
  Zn  Zn172  1  0.43580429  0.68866484  0.43906588  1
  Zn  Zn173  1  0.43825137  0.68706231  0.93696236  1
  Zn  Zn174  1  0.93624992  0.18698479  0.43736035  1
  Zn  Zn175  1  0.93452130  0.18846182  0.93944279  1
  Zn  Zn176  1  0.93755200  0.68810306  0.43975863  1
  Zn  Zn177  1  0.93848742  0.68876347  0.93689193  1
  Zn  Zn178  1  0.06680540  0.31259344  0.05769319  1
  Zn  Zn179  1  0.06279189  0.31388388  0.56258741  1
  Zn  Zn180  1  0.06385825  0.81564404  0.06332769  1
  Zn  Zn181  1  0.05899073  0.81166465  0.55972603  1
  Zn  Zn182  1  0.55954842  0.31068727  0.06408479  1
  Zn  Zn183  1  0.56185262  0.31212059  0.56270278  1
  Zn  Zn184  1  0.56120070  0.81122436  0.06448784  1
  Zn  Zn185  1  0.56015321  0.81242415  0.56223918  1
  O  O186  1  0.11345269  0.11349425  0.13321444  1
  O  O187  1  0.11853841  0.11632745  0.61786357  1
  O  O188  1  0.11964697  0.62145935  0.12152248  1
  O  O189  1  0.11676770  0.61108064  0.62680864  1
  O  O190  1  0.61654114  0.11417483  0.13258130  1
  O  O191  1  0.61999652  0.12296413  0.61347518  1
  O  O192  1  0.62130249  0.62381348  0.11514599  1
  O  O193  1  0.61926284  0.62056635  0.62071780  1
  O  O194  1  0.38574498  0.37761730  0.37337996  1
  O  O195  1  0.38817140  0.37751516  0.87374988  1
  O  O196  1  0.38233450  0.87988467  0.38148075  1
  O  O197  1  0.38767459  0.87232706  0.88370196  1
  O  O198  1  0.88092550  0.38244708  0.37576735  1
  O  O199  1  0.88007165  0.38195271  0.88110318  1
  O  O200  1  0.88576027  0.88222033  0.37309714  1
  O  O201  1  0.88457965  0.88031375  0.87900526  1
  O  O202  1  0.25505014  0.00746886  0.36434031  1
  O  O203  1  0.25670124  0.01314284  0.87321754  1
  O  O204  1  0.25143688  0.51047978  0.36838163  1
  O  O205  1  0.24973460  0.50504770  0.86759771  1
  O  O206  1  0.75707469  0.00101358  0.36679516  1
  O  O207  1  0.75667963  0.00600758  0.87091715  1
  O  O208  1  0.75449443  0.50608767  0.37033357  1
  O  O209  1  0.75583842  0.49997345  0.86911475  1
  O  O210  1  0.24307282  0.49558843  0.13336736  1
  O  O211  1  0.24109675  0.50197528  0.63358575  1
  O  O212  1  0.24151673  1.00658943  0.13605735  1
  O  O213  1  0.23474637  1.00483815  0.61931731  1
  O  O214  1  0.74872282  0.49231968  0.13287330  1
  O  O215  1  0.74387203  0.49467211  0.63056039  1
  O  O216  1  0.74486537  0.99598445  0.12900974  1
  O  O217  1  0.74992960  0.99335557  0.63199140  1
  O  O218  1  0.00429504  0.36976607  0.25424670  1
  O  O219  1  -0.00030726  0.37473464  0.76256867  1
  O  O220  1  0.00709142  0.87115699  0.25678314  1
  O  O221  1  0.00146063  0.87584757  0.76318701  1
  O  O222  1  0.50740682  0.37728718  0.25689252  1
  O  O223  1  0.50427195  0.37101602  0.75700806  1
  O  O224  1  0.50549417  0.87035098  0.25571715  1
  O  O225  1  0.50450437  0.86996791  0.75813700  1
  O  O226  1  0.49071307  0.12327167  0.24373073  1
  O  O227  1  0.49486705  0.12968816  0.74545206  1
  O  O228  1  0.49024629  0.63069038  0.25228288  1
  O  O229  1  0.49528259  0.62966389  0.74540095  1
  O  O230  1  0.99477910  0.13022619  0.24042463  1
  O  O231  1  0.99229800  0.12530272  0.74423487  1
  O  O232  1  0.99512554  0.63007438  0.24579188  1
  O  O233  1  0.99159151  0.62398199  0.74383919  1
  O  O234  1  0.38105941  0.26065491  0.00805863  1
  O  O235  1  0.36154987  0.24956166  0.49839117  1
  O  O236  1  0.37276112  0.75436077  0.00826215  1
  O  O237  1  0.37341185  0.75896279  0.50767828  1
  O  O238  1  0.86517933  0.25703596  0.00672867  1
  O  O239  1  0.86415398  0.24944396  0.50584833  1
  O  O240  1  0.87537681  0.75564873  0.00744338  1
  O  O241  1  0.87274775  0.75119524  0.51356743  1
  O  O242  1  0.13068966  0.24496596  0.49287596  1
  O  O243  1  0.11765705  0.24244509  0.99402875  1
  O  O244  1  0.13111704  0.74323167  0.51324967  1
  O  O245  1  0.13127995  0.74584475  0.99762854  1
  O  O246  1  0.63341489  0.24162546  0.50011842  1
  O  O247  1  0.64027453  0.25501094  0.99911974  1
  O  O248  1  0.62415957  0.74374009  0.49268754  1
  O  O249  1  0.62381242  0.74045359  0.99541035  1
  O  O250  1  0.50122414  0.23858220  0.13152279  1
  O  O251  1  0.49983095  0.24263557  0.63102924  1
  O  O252  1  0.48941785  0.74666847  0.13254844  1
  O  O253  1  0.49171358  0.74405087  0.63024758  1
  O  O254  1  0.99517730  0.24381341  0.13003808  1
  O  O255  1  0.99376193  0.24352241  0.62460564  1
  O  O256  1  0.99530109  0.74501542  0.13107724  1
  O  O257  1  0.98904649  0.74374812  0.62805102  1
  O  O258  1  0.00398253  0.25516236  0.36910454  1
  O  O259  1  -0.00828494  0.26361774  0.87478803  1
  O  O260  1  -0.00658045  0.76194879  0.36875271  1
  O  O261  1  0.00649006  0.75927688  0.87433141  1
  O  O262  1  0.50232411  0.26174752  0.37106123  1
  O  O263  1  0.50296220  0.25875488  0.86933360  1
  O  O264  1  0.50517922  0.75552072  0.36979060  1
  O  O265  1  0.50540352  0.75800329  0.86891940  1
  O  O266  1  0.24462518  0.13288676  0.49121299  1
  O  O267  1  0.25821605  0.12151854  0.98956923  1
  O  O268  1  0.25217856  0.62326585  0.48414616  1
  O  O269  1  0.24491246  0.62934605  0.99646676  1
  O  O270  1  0.74161220  0.13267806  0.50003211  1
  O  O271  1  0.75920648  0.13438201  0.99032589  1
  O  O272  1  0.74198848  0.62711061  0.49329173  1
  O  O273  1  0.73782195  0.62537079  0.99879086  1
  O  O274  1  0.24884005  0.38576376  0.01783806  1
  O  O275  1  0.24835625  0.36357664  0.49729293  1
  O  O276  1  0.26611619  0.86690175  -0.00912050  1
  O  O277  1  0.26547151  0.87782843  0.48916053  1
  O  O278  1  0.75444209  0.36820779  0.00517709  1
  O  O279  1  0.74783630  0.36559733  0.50606262  1
  O  O280  1  0.75916487  0.87326362  0.00629911  1
  O  O281  1  0.75338521  0.87251237  0.50783218  1
  O  O282  1  0.12798223  0.49478715  0.24472346  1
  O  O283  1  0.13414672  0.49944736  0.74334858  1
  O  O284  1  0.13232956  0.99381479  0.24261329  1
  O  O285  1  0.12682754  1.00251031  0.73195623  1
  O  O286  1  0.63058612  0.49100658  0.24973755  1
  O  O287  1  0.62931930  0.49490650  0.74480405  1
  O  O288  1  0.63151846  0.99365743  0.24153807  1
  O  O289  1  0.63230323  0.99233500  0.74710494  1
  O  O290  1  0.36844239  0.00489961  0.25272120  1
  O  O291  1  0.37936992  0.01149736  0.75167290  1
  O  O292  1  0.36885991  0.51302561  0.25112618  1
  O  O293  1  0.36457121  0.50664139  0.74931596  1
  O  O294  1  0.87080757  0.00509488  0.25264172  1
  O  O295  1  0.87009177  0.00554780  0.75583267  1
  O  O296  1  0.86984537  0.50662022  0.25616225  1
  O  O297  1  0.86826045  0.50463006  0.75517204  1
  O  O298  1  0.11798066  0.37063926  0.36865985  1
  O  O299  1  0.11064662  0.37717058  0.87573594  1
  O  O300  1  0.11301208  0.88394730  0.36296448  1
  O  O301  1  0.11657176  0.86925276  0.87832295  1
  O  O302  1  0.61563555  0.37604811  0.36626532  1
  O  O303  1  0.61440384  0.37433186  0.86847673  1
  O  O304  1  0.62032876  0.87047437  0.36906188  1
  O  O305  1  0.61793876  0.86971292  0.87040700  1
  O  O306  1  0.38469126  0.12120583  0.13427023  1
  O  O307  1  0.38225728  0.12698239  0.63187258  1
  O  O308  1  0.37540238  0.63397457  0.13727377  1
  O  O309  1  0.38139283  0.63285011  0.62998510  1
  O  O310  1  0.88421882  0.12993095  0.13032536  1
  O  O311  1  0.87967973  0.12961586  0.63003536  1
  O  O312  1  0.88042938  0.62997056  0.13128960  1
  O  O313  1  0.87777569  0.63144753  0.63073993  1
  O  O314  1  0.24714500  0.26627900  0.13126210  1
  O  O315  1  0.24586478  0.24889106  0.61145531  1
  O  O316  1  0.26351137  0.74570130  0.11950486  1
  O  O317  1  0.26493031  0.74123424  0.62490222  1
  O  O318  1  0.75535166  0.25389272  0.11804265  1
  O  O319  1  0.75389386  0.25424485  0.61687010  1
  O  O320  1  0.75791983  0.75755117  0.12463038  1
  O  O321  1  0.75931008  0.75559159  0.62545806  1
  O  O322  1  0.24299813  0.24530505  0.37954673  1
  O  O323  1  0.25322538  0.23184989  0.87096426  1
  O  O324  1  0.25300962  0.73663958  0.37632982  1
  O  O325  1  0.24500877  0.74227751  0.88224615  1
  O  O326  1  0.74844973  0.24852732  0.38709587  1
  O  O327  1  0.75030719  0.24154848  0.88295354  1
  O  O328  1  0.74374158  0.74451141  0.37440584  1
  O  O329  1  0.74233324  0.74800521  0.87816837  1
  O  O330  1  -0.00881237  0.11753315  0.01225618  1
  O  O331  1  0.00553012  0.12071937  0.50376731  1
  O  O332  1  0.00525119  0.62106006  0.00668899  1
  O  O333  1  -0.00103624  0.61668843  0.50725311  1
  O  O334  1  0.49376998  0.12271094  0.01324049  1
  O  O335  1  0.50677231  0.12184533  0.50244948  1
  O  O336  1  0.50745335  0.61577947  -0.00069576  1
  O  O337  1  0.50466241  0.61973411  0.50518791  1
  O  O338  1  0.50128110  0.37980004  0.49018334  1
  O  O339  1  0.50528674  0.38452004  0.99131438  1
  O  O340  1  0.49174713  0.88100829  0.49378558  1
  O  O341  1  0.49337545  0.87176724  0.99060365  1
  O  O342  1  0.99771465  0.38103196  0.49241726  1
  O  O343  1  0.99194306  0.38315453  0.99507596  1
  O  O344  1  0.99749042  0.88143424  0.48885370  1
  O  O345  1  0.99599576  0.88082244  0.99091965  1
  O  O346  1  0.49800146  0.49130584  0.38163606  1
  O  O347  1  0.49819311  0.49164267  0.88258431  1
  O  O348  1  0.49466953  0.99472531  0.37911110  1
  O  O349  1  0.50128369  0.98731492  0.87753214  1
  O  O350  1  0.99437370  0.49553651  0.37986788  1
  O  O351  1  0.99319162  0.49342924  0.88173059  1
  O  O352  1  0.99529313  0.99289436  0.37754541  1
  O  O353  1  0.99814308  0.99418954  0.87931426  1
  O  O354  1  0.00711431  0.00788299  0.12053374  1
  O  O355  1  0.00599849  0.00727488  0.61751714  1
  O  O356  1  0.00407046  0.50647452  0.12094470  1
  O  O357  1  0.00543674  0.50241598  0.62117009  1
  O  O358  1  0.51053570  0.00687646  0.12427772  1
  O  O359  1  0.50286233  0.00685847  0.61609128  1
  O  O360  1  0.50183866  0.50153932  0.11444325  1
  O  O361  1  0.50534143  0.50516332  0.62151999  1
  O  O362  1  0.24247524  0.38189579  0.24407388  1
  O  O363  1  0.24966865  0.38647742  0.75169314  1
  O  O364  1  0.24177781  0.88668801  0.25839488  1
  O  O365  1  0.25344592  0.88237510  0.75382085  1
  O  O366  1  0.74276695  0.37971753  0.24669326  1
  O  O367  1  0.74453922  0.37976447  0.74529442  1
  O  O368  1  0.74570673  0.88093232  0.24321620  1
  O  O369  1  0.74523026  0.88039027  0.74596058  1
  O  O370  1  0.25808839  0.11677820  0.25224588  1
  O  O371  1  0.26330179  0.12004441  0.74952079  1
  O  O372  1  0.25562681  0.62320404  0.25983279  1
  O  O373  1  0.25448093  0.61538428  0.75646290  1
  O  O374  1  0.75704817  0.11941692  0.25013421  1
  O  O375  1  0.75595048  0.12012026  0.75744613  1
  O  O376  1  0.75505190  0.62018113  0.25519205  1
  O  O377  1  0.75560546  0.61702292  0.75214043  1
  O  O378  1  0.37131265  0.11872113  0.36534498  1
  O  O379  1  0.36899738  0.12274313  0.86629674  1
  O  O380  1  0.36663410  0.62606677  0.36501801  1
  O  O381  1  0.36831312  0.62436443  0.86835774  1
  O  O382  1  0.87499918  0.11847064  0.36656446  1
  O  O383  1  0.86738702  0.11873920  0.86992993  1
  O  O384  1  0.86961463  0.62075954  0.36945187  1
  O  O385  1  0.87459993  0.61866818  0.87003983  1
  O  O386  1  0.13259486  0.38178905  0.13063604  1
  O  O387  1  0.12662648  0.38740802  0.62849721  1
  O  O388  1  0.11743025  0.88800443  0.13827690  1
  O  O389  1  0.11652819  0.89219663  0.62242953  1
  O  O390  1  0.62998121  0.37612965  0.13538011  1
  O  O391  1  0.62944629  0.38131749  0.63085122  1
  O  O392  1  0.63013524  0.88147979  0.13078803  1
  O  O393  1  0.63104485  0.87453281  0.63131800  1
  O  O394  1  0.11861536  0.25467321  0.25508408  1
  O  O395  1  0.12144154  0.25194301  0.76115988  1
  O  O396  1  0.11973046  0.76378651  0.24180586  1
  O  O397  1  0.12252445  0.74901757  0.75704340  1
  O  O398  1  0.62601887  0.26312533  0.25311718  1
  O  O399  1  0.61937646  0.25648254  0.75191533  1
  O  O400  1  0.61960314  0.75531155  0.25471296  1
  O  O401  1  0.61922256  0.75491816  0.75487920  1
  O  O402  1  0.37380431  0.23570428  0.24606452  1
  O  O403  1  0.38292435  0.23872054  0.74745723  1
  O  O404  1  0.37820565  0.74593465  0.24444015  1
  O  O405  1  0.38093099  0.74464020  0.74277186  1
  O  O406  1  0.87978394  0.24552213  0.24433344  1
  O  O407  1  0.87519802  0.24307957  0.74228672  1
  O  O408  1  0.88212836  0.74460562  0.24408023  1
  O  O409  1  0.87636453  0.74335492  0.74082100  1
  O  O410  1  0.38305596  0.49715170  0.49875399  1
  O  O411  1  0.38555205  0.49584841  0.99905898  1
  O  O412  1  0.38002021  0.99465436  0.49396300  1
  O  O413  1  0.38147479  0.98553615  1.00088221  1
  O  O414  1  0.87984233  0.49834887  0.49372998  1
  O  O415  1  0.87872240  0.49615014  0.99630752  1
  O  O416  1  0.88192058  0.99978026  0.49223273  1
  O  O417  1  0.88322353  0.99335504  0.99392894  1
  O  O418  1  0.12117988  -0.00984372  0.01371362  1
  O  O419  1  0.11941120  0.00612563  0.50591462  1
  O  O420  1  0.11761480  0.50842706  0.00676100  1
  O  O421  1  0.11872469  0.50359569  0.50976256  1
  O  O422  1  0.62523231  -0.00672582  0.01416673  1
  O  O423  1  0.61982594  0.00910071  0.49921601  1
  O  O424  1  0.61629088  0.50853201  0.00045572  1
  O  O425  1  0.61906993  0.50640746  0.50677654  1
  O  O426  1  0.35739887  0.37615420  0.13244427  1
  O  O427  1  0.36876402  0.36846023  0.62049507  1
  O  O428  1  0.38310794  0.86475061  0.11618119  1
  O  O429  1  0.38255828  0.86551625  0.61403613  1
  O  O430  1  0.86905764  0.36966222  0.12114230  1
  O  O431  1  0.86711533  0.36838801  0.62284786  1
  O  O432  1  0.87242313  0.87083265  0.12018749  1
  O  O433  1  0.87098476  0.86601073  0.62612619  1
  O  O434  1  0.12908695  0.13013913  0.37750816  1
  O  O435  1  0.14351665  0.11966709  0.87172310  1
  O  O436  1  0.13823035  0.62248537  0.37427270  1
  O  O437  1  0.12888329  0.63049180  0.88244124  1
  O  O438  1  0.62606679  0.12707348  0.38569248  1
  O  O439  1  0.64033950  0.12362686  0.87040451  1
  O  O440  1  0.62940433  0.63042408  0.37943074  1
  O  O441  1  0.62486873  0.63068007  0.88423375  1
