# generated using pymatgen
data_V93Zn93O256
_symmetry_space_group_name_H-M   'P 1'
_cell_length_a   17.05186731
_cell_length_b   17.05246792
_cell_length_c   17.04889105
_cell_angle_alpha   89.96405737
_cell_angle_beta   89.95008493
_cell_angle_gamma   90.02720241
_symmetry_Int_Tables_number   1
_chemical_formula_structural   V93Zn93O256
_chemical_formula_sum   'V93 Zn93 O256'
_cell_volume   4957.41209142
_cell_formula_units_Z   1
loop_
 _symmetry_equiv_pos_site_id
 _symmetry_equiv_pos_as_xyz
  1  'x, y, z'
loop_
 _atom_site_type_symbol
 _atom_site_label
 _atom_site_symmetry_multiplicity
 _atom_site_fract_x
 _atom_site_fract_y
 _atom_site_fract_z
 _atom_site_occupancy
  V  V0  1  0.37494007  0.75651702  0.61912589  1
  V  V1  1  0.37444537  0.62662641  0.74878007  1
  V  V2  1  0.88048812  0.49656116  0.37698006  1
  V  V3  1  0.37460378  -0.00586409  0.37881754  1
  V  V4  1  -0.00080768  -0.00029718  -0.00037269  1
  V  V5  1  0.74966625  0.37532824  0.62538318  1
  V  V6  1  0.37462790  0.49991280  0.87481596  1
  V  V7  1  0.62505350  0.62476486  0.49947427  1
  V  V8  1  0.75014565  0.24860278  0.49967145  1
  V  V9  1  -0.00071332  0.25742869  0.25333525  1
  V  V10  1  -0.00017144  0.12286358  0.62486538  1
  V  V11  1  0.87498850  0.87570267  -0.00153496  1
  V  V12  1  0.87666203  0.62423689  0.74925967  1
  V  V13  1  0.50039404  0.24943885  0.25101700  1
  V  V14  1  0.12296731  0.87276276  0.25157538  1
  V  V15  1  -0.00175990  -0.00097701  0.49621666  1
  V  V16  1  0.24481170  0.49979061  0.74771359  1
  V  V17  1  0.49928964  0.12480147  0.62517970  1
  V  V18  1  0.00454532  0.75446766  0.74774017  1
  V  V19  1  0.62526565  0.12449004  0.50034980  1
  V  V20  1  0.24803854  0.74873890  0.49290702  1
  V  V21  1  0.62362089  -0.00037322  0.62539316  1
  V  V22  1  0.25048189  0.12442372  0.87430057  1
  V  V23  1  0.62314992  0.50015290  0.12508077  1
  V  V24  1  0.37539863  0.50456356  0.37554253  1
  V  V25  1  0.62383490  0.62473300  -0.00016028  1
  V  V26  1  0.50347951  0.75559026  0.25018892  1
  V  V27  1  0.37438484  0.37561700  -0.00046899  1
  V  V28  1  0.87435659  0.12440590  0.74971745  1
  V  V29  1  0.62474596  0.75016364  0.87479007  1
  V  V30  1  0.25083990  0.37458575  0.62666387  1
  V  V31  1  0.50000985  0.87531824  0.87502082  1
  V  V32  1  0.24897407  0.62618688  0.87480603  1
  V  V33  1  0.49873432  0.75051205  0.74885203  1
  V  V34  1  0.12511464  0.12550817  0.00116372  1
  V  V35  1  0.75493725  -0.00099576  0.25285928  1
  V  V36  1  0.37843175  0.37387189  0.49988461  1
  V  V37  1  0.12494276  0.12233115  0.50108620  1
  V  V38  1  0.62404416  -0.00258643  0.13161765  1
  V  V39  1  0.37410450  0.00016587  0.87466802  1
  V  V40  1  0.87594183  0.74772396  0.12603074  1
  V  V41  1  -0.00049520  0.12572878  0.12670987  1
  V  V42  1  0.62498812  0.75626336  0.37128779  1
  V  V43  1  0.24306281  0.87347703  0.62489072  1
  V  V44  1  0.37536478  0.74995596  0.12526712  1
  V  V45  1  0.62480974  0.12393497  0.00068771  1
  V  V46  1  -0.00389473  0.87716176  0.37314523  1
  V  V47  1  0.88125249  0.37722416  0.49695820  1
  V  V48  1  0.87358433  0.87660392  0.49595901  1
  V  V49  1  0.25025381  0.00026511  0.25197461  1
  V  V50  1  0.49596201  -0.00762403  0.50005429  1
  V  V51  1  0.00021144  0.50185344  0.00161955  1
  V  V52  1  0.37379517  0.12438349  0.25068279  1
  V  V53  1  0.87431343  0.24839291  0.12642469  1
  V  V54  1  0.75016719  0.24981991  0.00135551  1
  V  V55  1  0.37171048  0.62672101  0.25298250  1
  V  V56  1  0.50051447  0.50021785  0.50007194  1
  V  V57  1  0.75076676  0.62530499  0.87302688  1
  V  V58  1  0.75702968  0.12053042  0.37447888  1
  V  V59  1  0.62542996  0.87492165  0.75029104  1
  V  V60  1  0.24933089  0.87491352  0.12507112  1
  V  V61  1  0.62616282  0.50054320  0.62632701  1
  V  V62  1  0.50051330  -0.00015297  0.00087040  1
  V  V63  1  0.25095317  0.24649930  0.50046338  1
  V  V64  1  0.75055914  0.62464202  0.37616953  1
  V  V65  1  0.74477636  0.87426481  0.13102414  1
  V  V66  1  0.24929137  0.74948167  -0.00139231  1
  V  V67  1  0.74966291  0.12478804  0.87545273  1
  V  V68  1  0.49977540  0.24986185  0.74998598  1
  V  V69  1  0.24974004  0.25043346  0.00026732  1
  V  V70  1  -0.00039995  0.37516504  0.87505670  1
  V  V71  1  0.12091977  0.25323106  0.37621742  1
  V  V72  1  -0.00034178  0.24979300  0.75156232  1
  V  V73  1  0.12530256  0.75651632  0.87021698  1
  V  V74  1  0.49954915  0.37505887  0.87523336  1
  V  V75  1  0.12474384  0.25071497  0.87472315  1
  V  V76  1  0.87442684  0.37375476  0.00032618  1
  V  V77  1  0.37469995  0.87486032  0.00016831  1
  V  V78  1  0.74841293  0.49719809  0.25044298  1
  V  V79  1  0.74953011  -0.00064882  0.75004853  1
  V  V80  1  0.62494097  0.24977226  0.37438895  1
  V  V81  1  0.74921403  0.75060712  -0.00034491  1
  V  V82  1  0.24829296  0.37575395  0.12701363  1
  V  V83  1  0.37604895  0.24851598  0.62479115  1
  V  V84  1  0.75120608  0.87382274  0.62376641  1
  V  V85  1  0.12444231  0.00042843  0.12549434  1
  V  V86  1  0.62406665  0.25086210  0.87541813  1
  V  V87  1  0.24287531  -0.00574845  0.75004462  1
  V  V88  1  0.37469739  0.24928764  0.12608099  1
  V  V89  1  0.00540448  0.61895558  0.61255533  1
  V  V90  1  0.24961340  0.50179145  0.25032832  1
  V  V91  1  0.87492344  -0.00106369  0.87519507  1
  V  V92  1  0.87412092  0.25008228  0.62525402  1
  Zn  Zn93  1  0.49966733  0.62655466  0.62456033  1
  Zn  Zn94  1  0.50261548  0.37548755  0.37489478  1
  Zn  Zn95  1  0.12157419  0.49471788  0.61222062  1
  Zn  Zn96  1  0.00225764  0.62666779  0.12412796  1
  Zn  Zn97  1  0.87618363  0.62436345  0.24910383  1
  Zn  Zn98  1  0.87353753  0.49952320  0.87531656  1
  Zn  Zn99  1  0.62353803  0.37416575  0.25018403  1
  Zn  Zn100  1  0.12196035  0.37922222  0.25400406  1
  Zn  Zn101  1  0.74993854  0.75123845  0.49989102  1
  Zn  Zn102  1  0.13955190  0.60813242  0.47821431  1
  Zn  Zn103  1  0.12387738  0.62582680  0.00160739  1
  Zn  Zn104  1  0.04448327  0.43879754  0.43695596  1
  Zn  Zn105  1  0.12256213  0.37547294  0.74838193  1
  Zn  Zn106  1  0.49884358  0.50146541  0.00018365  1
  Zn  Zn107  1  0.50218021  0.87592149  0.37409810  1
  Zn  Zn108  1  -0.00173089  0.74800909  0.24972958  1
  Zn  Zn109  1  0.12100937  -0.00733882  0.62983065  1
  Zn  Zn110  1  0.87911563  0.12175860  0.25457469  1
  Zn  Zn111  1  0.37384057  0.12372436  0.74927295  1
  Zn  Zn112  1  0.87601772  0.74846865  0.62195547  1
  Zn  Zn113  1  0.49913801  0.62532337  0.12386353  1
  Zn  Zn114  1  0.74799007  0.37243516  0.12532661  1
  Zn  Zn115  1  0.00368579  0.87789487  0.86810062  1
  Zn  Zn116  1  0.50002485  0.12438329  0.12484070  1
  Zn  Zn117  1  0.24931282  0.12392846  0.37624048  1
  Zn  Zn118  1  0.12452081  0.74596160  0.37366580  1
  Zn  Zn119  1  0.12408554  0.50166727  0.12512604  1
  Zn  Zn120  1  0.75058880  0.49905605  0.75170529  1
  Zn  Zn121  1  0.62674602  0.37612809  0.75154358  1
  Zn  Zn122  1  0.18658560  0.18841347  0.19038193  1
  Zn  Zn123  1  0.18713042  0.18403351  0.68820785  1
  Zn  Zn124  1  0.18648917  0.68504122  0.18510760  1
  Zn  Zn125  1  0.18569673  0.68618956  0.68343888  1
  Zn  Zn126  1  0.68731141  0.18344470  0.18836518  1
  Zn  Zn127  1  0.68604239  0.18799223  0.68825118  1
  Zn  Zn128  1  0.68806107  0.68452900  0.18842923  1
  Zn  Zn129  1  0.68929996  0.68818427  0.68634828  1
  Zn  Zn130  1  0.31316023  0.31435243  0.31445466  1
  Zn  Zn131  1  0.31340567  0.31261045  0.81139388  1
  Zn  Zn132  1  0.31463236  0.81500698  0.31171151  1
  Zn  Zn133  1  0.31204936  0.81382161  0.80977782  1
  Zn  Zn134  1  0.81305604  0.31189195  0.31306879  1
  Zn  Zn135  1  0.81210257  0.31379184  0.81299818  1
  Zn  Zn136  1  0.81235494  0.81381477  0.31243632  1
  Zn  Zn137  1  0.81560919  0.81064666  0.81058973  1
  Zn  Zn138  1  0.20358911  0.43189967  0.43416411  1
  Zn  Zn139  1  0.18568043  0.43767605  0.93701416  1
  Zn  Zn140  1  0.18843816  0.93262720  0.44074404  1
  Zn  Zn141  1  0.18716404  0.93711588  0.93747074  1
  Zn  Zn142  1  0.68862202  0.43499859  0.43830324  1
  Zn  Zn143  1  0.68818322  0.43819574  0.93785557  1
  Zn  Zn144  1  0.68634486  0.93941982  0.43803666  1
  Zn  Zn145  1  0.68783942  0.93714776  0.94024123  1
  Zn  Zn146  1  0.31253274  0.06288227  0.06366375  1
  Zn  Zn147  1  0.31216443  0.06057729  0.56410864  1
  Zn  Zn148  1  0.31284318  0.56398231  0.06332184  1
  Zn  Zn149  1  0.31364038  0.56606968  0.56405893  1
  Zn  Zn150  1  0.81256165  0.06283895  0.06447121  1
  Zn  Zn151  1  0.81351201  0.06022906  0.56155646  1
  Zn  Zn152  1  0.81122609  0.56163633  0.06016174  1
  Zn  Zn153  1  0.81524768  0.56161126  0.56214551  1
  Zn  Zn154  1  0.43733108  0.43591322  0.18734202  1
  Zn  Zn155  1  0.43797896  0.43739346  0.68852941  1
  Zn  Zn156  1  0.43669771  0.93733811  0.18904185  1
  Zn  Zn157  1  0.43310964  0.93698135  0.68809153  1
  Zn  Zn158  1  0.93349728  0.43734505  0.18590903  1
  Zn  Zn159  1  0.93689996  0.43864883  0.68643151  1
  Zn  Zn160  1  0.93495864  0.93622902  0.18512539  1
  Zn  Zn161  1  0.93536643  0.93667483  0.68382380  1
  Zn  Zn162  1  0.06291327  0.06473998  0.31369094  1
  Zn  Zn163  1  0.06273999  0.06399647  0.81365125  1
  Zn  Zn164  1  0.06221742  0.57098668  0.30347149  1
  Zn  Zn165  1  0.06125464  0.56725262  0.81467439  1
  Zn  Zn166  1  0.56342459  0.06441887  0.31416023  1
  Zn  Zn167  1  0.56149505  0.06375071  0.81245935  1
  Zn  Zn168  1  0.56027328  0.56723813  0.31142632  1
  Zn  Zn169  1  0.56113707  0.56341518  0.81187310  1
  Zn  Zn170  1  0.43747082  0.18229998  0.43648261  1
  Zn  Zn171  1  0.43729179  0.18673164  0.93794245  1
  Zn  Zn172  1  0.43826472  0.68824872  0.43865292  1
  Zn  Zn173  1  0.43745715  0.68629522  0.93714409  1
  Zn  Zn174  1  0.93833406  0.18893877  0.43860516  1
  Zn  Zn175  1  0.93718124  0.18708384  0.93857337  1
  Zn  Zn176  1  0.93685641  0.69072278  0.43411552  1
  Zn  Zn177  1  0.93820461  0.68860875  0.93565681  1
  Zn  Zn178  1  0.06243071  0.31517759  0.06507618  1
  Zn  Zn179  1  0.06532710  0.30794153  0.56789209  1
  Zn  Zn180  1  0.06235424  0.81314083  0.05876142  1
  Zn  Zn181  1  0.06435078  0.80800049  0.56217527  1
  Zn  Zn182  1  0.56172992  0.31432782  0.06302998  1
  Zn  Zn183  1  0.56303288  0.31343844  0.56241343  1
  Zn  Zn184  1  0.56160338  0.81216211  0.06337111  1
  Zn  Zn185  1  0.56503747  0.81067480  0.56156914  1
  O  O186  1  0.12036529  0.11984413  0.12042811  1
  O  O187  1  0.11643231  0.12352000  0.61781741  1
  O  O188  1  0.12151140  0.62036742  0.11948615  1
  O  O189  1  0.11237495  0.62104050  0.62036141  1
  O  O190  1  0.62408752  0.11366587  0.11810822  1
  O  O191  1  0.61992002  0.11862557  0.62035144  1
  O  O192  1  0.62465512  0.61597956  0.11904331  1
  O  O193  1  0.62535442  0.61647198  0.61864884  1
  O  O194  1  0.37831334  0.38539451  0.38196847  1
  O  O195  1  0.37917819  0.37977925  0.88053308  1
  O  O196  1  0.37923980  0.89099307  0.36984736  1
  O  O197  1  0.38041015  0.87981454  0.88090391  1
  O  O198  1  0.86876366  0.38325958  0.38559709  1
  O  O199  1  0.88199432  0.37488073  0.88222166  1
  O  O200  1  0.88281683  0.87402957  0.38336941  1
  O  O201  1  0.87484668  0.88201963  0.88084683  1
  O  O202  1  0.25725815  -0.00066635  0.37130644  1
  O  O203  1  0.25383841  0.00362236  0.86938088  1
  O  O204  1  0.26550362  0.49572904  0.36270870  1
  O  O205  1  0.25492249  0.50475747  0.86707250  1
  O  O206  1  0.73994661  0.00878809  0.36398012  1
  O  O207  1  0.75409401  0.00515157  0.86994238  1
  O  O208  1  0.75462515  0.50682762  0.36870384  1
  O  O209  1  0.75183151  0.50940908  0.87249189  1
  O  O210  1  0.25366525  0.49332555  0.13532409  1
  O  O211  1  0.25081596  0.49448721  0.63354508  1
  O  O212  1  0.24434148  0.99420557  0.13059258  1
  O  O213  1  0.24940921  0.99114072  0.63222779  1
  O  O214  1  0.74154317  0.50085610  0.13447402  1
  O  O215  1  0.74050416  0.49515250  0.62422865  1
  O  O216  1  0.74270266  0.99337287  0.13101592  1
  O  O217  1  0.74378205  0.99515720  0.63070496  1
  O  O218  1  0.00081991  0.36122824  0.24525078  1
  O  O219  1  -0.00082576  0.36765555  0.75555930  1
  O  O220  1  0.00680036  0.87878477  0.25668853  1
  O  O221  1  -0.00762436  0.85938477  0.74798169  1
  O  O222  1  0.49958460  0.36083250  0.25233192  1
  O  O223  1  0.50173194  0.36778033  0.75696371  1
  O  O224  1  0.49515216  0.85967770  0.25179097  1
  O  O225  1  0.50576905  0.87110048  0.75574935  1
  O  O226  1  0.49408357  0.13462023  0.24846808  1
  O  O227  1  0.49809866  0.13084213  0.74318239  1
  O  O228  1  0.48830134  0.63542508  0.24790628  1
  O  O229  1  0.49323789  0.63351343  0.74877392  1
  O  O230  1  0.99913644  0.13373342  0.24492209  1
  O  O231  1  0.99297476  0.12909694  0.74545668  1
  O  O232  1  0.99121986  0.63179894  0.24027704  1
  O  O233  1  0.99273723  0.63309837  0.74367367  1
  O  O234  1  0.36877170  0.25487148  0.00550356  1
  O  O235  1  0.37179829  0.25282347  0.50459659  1
  O  O236  1  0.37004474  0.75613861  0.00450200  1
  O  O237  1  0.36628948  0.74474831  0.51076649  1
  O  O238  1  0.86986205  0.25352387  0.00593053  1
  O  O239  1  0.86951114  0.25656229  0.50541532  1
  O  O240  1  0.86798096  0.75567774  0.00568425  1
  O  O241  1  0.87233008  0.76381165  0.50039423  1
  O  O242  1  0.12875491  0.24375457  0.49363709  1
  O  O243  1  0.13010818  0.24487322  0.99556259  1
  O  O244  1  0.14031935  0.74974954  0.49738913  1
  O  O245  1  0.13186281  0.74941549  0.99088182  1
  O  O246  1  0.63082241  0.24369420  0.49599387  1
  O  O247  1  0.62940798  0.24402924  0.99560828  1
  O  O248  1  0.62677426  0.74266212  0.48993214  1
  O  O249  1  0.62977572  0.74580908  0.99447320  1
  O  O250  1  0.49392700  0.24853231  0.13404401  1
  O  O251  1  0.49624256  0.24452316  0.62922637  1
  O  O252  1  0.49425313  0.74959005  0.13306685  1
  O  O253  1  0.49234440  0.75118096  0.62983562  1
  O  O254  1  0.99599688  0.24453015  0.13310566  1
  O  O255  1  0.99297301  0.24243427  0.63158610  1
  O  O256  1  0.98577598  0.75422781  0.12306241  1
  O  O257  1  1.00076935  0.73775847  0.63149713  1
  O  O258  1  0.00956042  0.24425386  0.36676458  1
  O  O259  1  0.00473337  0.25395392  0.87090082  1
  O  O260  1  0.00028610  0.76614675  0.37147283  1
  O  O261  1  0.00838303  0.75150079  0.86661870  1
  O  O262  1  0.50546584  0.24768282  0.36631256  1
  O  O263  1  0.50452640  0.25461330  0.87058941  1
  O  O264  1  0.50743001  0.75121363  0.36874766  1
  O  O265  1  0.50488327  0.75659526  0.86955459  1
  O  O266  1  0.24317356  0.12995043  0.50017156  1
  O  O267  1  0.24439004  0.13017393  0.99537590  1
  O  O268  1  0.24860046  0.64214896  0.50837984  1
  O  O269  1  0.25186852  0.63274773  0.99216724  1
  O  O270  1  0.74525453  0.12739523  0.49415192  1
  O  O271  1  0.74497928  0.12919278  0.99414997  1
  O  O272  1  0.74560381  0.62490182  0.48915984  1
  O  O273  1  0.74380122  0.63177837  0.99330802  1
  O  O274  1  0.25473608  0.36951287  0.00571516  1
  O  O275  1  0.26030597  0.36544439  0.50752273  1
  O  O276  1  0.25560648  0.87023426  0.00566127  1
  O  O277  1  0.24983883  0.86271608  0.51187258  1
  O  O278  1  0.75616916  0.36685249  0.00050965  1
  O  O279  1  0.75872461  0.36773649  0.50603100  1
  O  O280  1  0.75493306  0.87036971  0.00910191  1
  O  O281  1  0.75903351  0.87854489  0.50377337  1
  O  O282  1  0.13850976  0.49830607  0.25033700  1
  O  O283  1  0.13816277  0.50099054  0.75093066  1
  O  O284  1  0.12935114  0.99192270  0.24564831  1
  O  O285  1  0.13774058  1.00472846  0.74967990  1
  O  O286  1  0.63168272  0.50141338  0.24362104  1
  O  O287  1  0.62625012  0.50004649  0.73769554  1
  O  O288  1  0.63291181  1.00576101  0.23776162  1
  O  O289  1  0.62987437  0.99454920  0.74542886  1
  O  O290  1  0.37013449  0.00495314  0.25668228  1
  O  O291  1  0.36517910  0.00153847  0.75768886  1
  O  O292  1  0.37192166  0.50750780  0.25563257  1
  O  O293  1  0.36587405  0.50542371  0.75437049  1
  O  O294  1  0.85977434  0.00269582  0.24328333  1
  O  O295  1  0.86908044  0.00499434  0.75439329  1
  O  O296  1  0.86348740  0.49912861  0.25772825  1
  O  O297  1  0.87387095  0.51266565  0.75203662  1
  O  O298  1  0.12251837  0.36487002  0.37747614  1
  O  O299  1  0.11834653  0.36724523  0.87230843  1
  O  O300  1  0.11711417  0.87291684  0.36561494  1
  O  O301  1  0.12426106  0.86154274  0.87758760  1
  O  O302  1  0.62330841  0.36567965  0.37273460  1
  O  O303  1  0.61844303  0.36848515  0.87495527  1
  O  O304  1  0.62682066  0.85959521  0.37850793  1
  O  O305  1  0.62038775  0.87025877  0.87038469  1
  O  O306  1  0.37661064  0.13115602  0.13169424  1
  O  O307  1  0.38200767  0.13130651  0.62573311  1
  O  O308  1  0.37700258  0.63207487  0.13429036  1
  O  O309  1  0.37727166  0.63631945  0.63234974  1
  O  O310  1  0.88230403  0.13141781  0.12601268  1
  O  O311  1  0.87918322  0.12978246  0.62992891  1
  O  O312  1  0.86955261  0.63910520  0.12371473  1
  O  O313  1  0.88521451  0.62570386  0.63112611  1
  O  O314  1  0.25478129  0.25518091  0.12057194  1
  O  O315  1  0.25603722  0.25363619  0.62075658  1
  O  O316  1  0.25591115  0.75631311  0.11945328  1
  O  O317  1  0.25626407  0.75666164  0.62116988  1
  O  O318  1  0.75501367  0.24840171  0.11918691  1
  O  O319  1  0.75497722  0.25343038  0.61949261  1
  O  O320  1  0.75295572  0.75754686  0.12097667  1
  O  O321  1  0.75192396  0.75871185  0.62054221  1
  O  O322  1  0.23977466  0.25000020  0.38145297  1
  O  O323  1  0.24546843  0.24501161  0.88045663  1
  O  O324  1  0.25492575  0.75821445  0.39096281  1
  O  O325  1  0.24433189  0.74654891  0.87758252  1
  O  O326  1  0.74471064  0.24077410  0.37979553  1
  O  O327  1  0.74454862  0.24355425  0.88062576  1
  O  O328  1  0.74322852  0.73994800  0.37278726  1
  O  O329  1  0.74375536  0.74622520  0.87966240  1
  O  O330  1  0.00600919  0.11964950  0.00579288  1
  O  O331  1  0.00263567  0.11647506  0.50420667  1
  O  O332  1  -0.00197017  0.61369063  0.00054891  1
  O  O333  1  -0.00305242  0.62951185  0.51253434  1
  O  O334  1  0.50625113  0.11748976  0.00172112  1
  O  O335  1  0.50683313  0.11613430  0.50585084  1
  O  O336  1  0.50757306  0.62265226  0.00217909  1
  O  O337  1  0.50728492  0.61774521  0.50191682  1
  O  O338  1  0.49448317  0.38193848  0.49859129  1
  O  O339  1  0.49185368  0.37653724  0.99340209  1
  O  O340  1  0.50629893  0.88958372  0.49908991  1
  O  O341  1  0.49456507  0.87980661  0.99450331  1
  O  O342  1  0.98634974  0.36860304  0.50608324  1
  O  O343  1  0.99439809  0.38081515  0.99506272  1
  O  O344  1  0.99468571  0.88032890  0.49360933  1
  O  O345  1  0.99256774  0.88348107  0.99752435  1
  O  O346  1  0.49168469  0.49889771  0.37962899  1
  O  O347  1  0.49246189  0.49355798  0.87478097  1
  O  O348  1  0.49490152  0.99958795  0.38245310  1
  O  O349  1  0.49542160  0.99437926  0.88052156  1
  O  O350  1  0.98443984  0.50223599  0.36484903  1
  O  O351  1  0.99828878  0.49414624  0.88359543  1
  O  O352  1  1.00520489  0.99026899  0.38491173  1
  O  O353  1  0.99354088  0.99892665  0.88023518  1
  O  O354  1  0.00497742  0.00520587  0.11985084  1
  O  O355  1  0.00166467  0.00431902  0.61634318  1
  O  O356  1  -0.00083398  0.49874892  0.11327502  1
  O  O357  1  0.00192113  0.51456615  0.62867684  1
  O  O358  1  0.50856294  -0.00173165  0.12049907  1
  O  O359  1  0.50315836  0.00378208  0.61935706  1
  O  O360  1  0.51099638  0.50179334  0.12541335  1
  O  O361  1  0.50966473  0.50121296  0.61953290  1
  O  O362  1  0.25209576  0.38501622  0.24434469  1
  O  O363  1  0.25008731  0.38443320  0.74518001  1
  O  O364  1  0.24190318  0.88025705  0.24496223  1
  O  O365  1  0.25370108  0.88538015  0.74195931  1
  O  O366  1  0.74690706  0.38627723  0.24956975  1
  O  O367  1  0.74828986  0.37749438  0.74142470  1
  O  O368  1  0.75243824  0.88282249  0.23880388  1
  O  O369  1  0.74522499  0.88026034  0.74513636  1
  O  O370  1  0.25499654  0.11747533  0.25197338  1
  O  O371  1  0.25259083  0.11536364  0.75642228  1
  O  O372  1  0.26295823  0.61623152  0.24439953  1
  O  O373  1  0.25451544  0.61772771  0.75377995  1
  O  O374  1  0.75219613  0.11732268  0.25869706  1
  O  O375  1  0.75474031  0.11927611  0.75521100  1
  O  O376  1  0.75118322  0.61482244  0.26037487  1
  O  O377  1  0.76051375  0.62658389  0.75406982  1
  O  O378  1  0.37205448  0.11380651  0.36837953  1
  O  O379  1  0.36768004  0.11779785  0.87561961  1
  O  O380  1  0.38049846  0.61518800  0.36563153  1
  O  O381  1  0.36872329  0.62090485  0.86829924  1
  O  O382  1  0.86039522  0.12790554  0.37713165  1
  O  O383  1  0.86916773  0.11926633  0.86977479  1
  O  O384  1  0.86507347  0.61656765  0.37612136  1
  O  O385  1  0.86912163  0.62611236  0.86528927  1
  O  O386  1  0.13535751  0.37792320  0.12954917  1
  O  O387  1  0.13358050  0.37665163  0.62879600  1
  O  O388  1  0.12888990  0.88119325  0.13176096  1
  O  O389  1  0.13730374  0.87390532  0.62436781  1
  O  O390  1  0.62765789  0.38657567  0.12722070  1
  O  O391  1  0.63136681  0.38465549  0.62423260  1
  O  O392  1  0.63567797  0.88422948  0.11803099  1
  O  O393  1  0.63054749  0.88051673  0.63088647  1
  O  O394  1  0.11825535  0.25204058  0.26005566  1
  O  O395  1  0.11741163  0.24864884  0.75703536  1
  O  O396  1  0.12465664  0.76522230  0.24660513  1
  O  O397  1  0.11612922  0.74198522  0.75886393  1
  O  O398  1  0.61592367  0.24817048  0.25416714  1
  O  O399  1  0.61831737  0.25107073  0.75743658  1
  O  O400  1  0.61437163  0.73898511  0.25952238  1
  O  O401  1  0.61955775  0.75569920  0.75495461  1
  O  O402  1  0.38105053  0.24481627  0.24709363  1
  O  O403  1  0.38162765  0.24793248  0.74302115  1
  O  O404  1  0.37977256  0.74348508  0.24662766  1
  O  O405  1  0.37984261  0.74590442  0.74280482  1
  O  O406  1  0.88326083  0.24742331  0.24618011  1
  O  O407  1  0.87927365  0.24327598  0.74513409  1
  O  O408  1  0.87339969  0.75104177  0.23745646  1
  O  O409  1  0.88380666  0.73954184  0.74741947  1
  O  O410  1  0.37873131  0.49692266  0.49325640  1
  O  O411  1  0.37476741  0.49382567  0.99306321  1
  O  O412  1  0.38555658  1.00757272  0.49105762  1
  O  O413  1  0.37989002  0.99402808  0.99577552  1
  O  O414  1  0.86994814  0.48907446  0.48958788  1
  O  O415  1  0.88215734  0.49277816  0.99867728  1
  O  O416  1  0.88731967  0.98994828  0.50461954  1
  O  O417  1  0.87915959  0.99622225  0.99492959  1
  O  O418  1  0.12021035  0.00536696  0.00567141  1
  O  O419  1  0.11431097  0.00330177  0.50234177  1
  O  O420  1  0.11315980  0.50079227  0.00044594  1
  O  O421  1  0.12782346  0.49434156  0.49442966  1
  O  O422  1  0.62044524  0.00420849  0.00853649  1
  O  O423  1  0.61715291  0.00554151  0.50616116  1
  O  O424  1  0.62495893  0.50589531  0.00972136  1
  O  O425  1  0.62126626  0.50421148  0.50710561  1
  O  O426  1  0.36824173  0.36890682  0.11971827  1
  O  O427  1  0.37117234  0.36863792  0.61920587  1
  O  O428  1  0.36858393  0.87036516  0.12003304  1
  O  O429  1  0.36541511  0.86290180  0.63027041  1
  O  O430  1  0.87056058  0.36601340  0.11804605  1
  O  O431  1  0.86952057  0.37009932  0.61749149  1
  O  O432  1  0.86388563  0.86839777  0.11856747  1
  O  O433  1  0.86879902  0.87284792  0.61411304  1
  O  O434  1  0.12720595  0.13454932  0.38242927  1
  O  O435  1  0.13040117  0.13092060  0.88249656  1
  O  O436  1  0.11940935  0.63467667  0.37244122  1
  O  O437  1  0.13200602  0.63642758  0.87836612  1
  O  O438  1  0.63415574  0.13062007  0.38137240  1
  O  O439  1  0.63046460  0.12980676  0.88067136  1
  O  O440  1  0.63337642  0.63056439  0.38009548  1
  O  O441  1  0.62982899  0.63163794  0.87886060  1
