# generated using pymatgen
data_V93Zn93O256
_symmetry_space_group_name_H-M   'P 1'
_cell_length_a   17.05217441
_cell_length_b   17.04778635
_cell_length_c   17.04987089
_cell_angle_alpha   89.98200200
_cell_angle_beta   90.01316399
_cell_angle_gamma   89.99822661
_symmetry_Int_Tables_number   1
_chemical_formula_structural   V93Zn93O256
_chemical_formula_sum   'V93 Zn93 O256'
_cell_volume   4956.42822747
_cell_formula_units_Z   1
loop_
 _symmetry_equiv_pos_site_id
 _symmetry_equiv_pos_as_xyz
  1  'x, y, z'
loop_
 _atom_site_type_symbol
 _atom_site_label
 _atom_site_symmetry_multiplicity
 _atom_site_fract_x
 _atom_site_fract_y
 _atom_site_fract_z
 _atom_site_occupancy
  V  V0  1  0.75040900  0.87383863  0.62610168  1
  V  V1  1  0.25038375  0.50125872  0.24837495  1
  V  V2  1  0.74960465  0.87524759  0.12578006  1
  V  V3  1  -0.00008635  0.50057642  0.49913296  1
  V  V4  1  0.75045435  -0.00273988  0.75229084  1
  V  V5  1  0.50090532  0.75100018  0.25092289  1
  V  V6  1  0.62387827  0.24926933  0.87457970  1
  V  V7  1  0.49839639  0.24831032  0.74967247  1
  V  V8  1  0.37607477  0.75080996  0.12673183  1
  V  V9  1  0.00018504  0.25117900  0.24853367  1
  V  V10  1  0.25147769  0.87594543  0.12597799  1
  V  V11  1  0.49446235  0.37763201  0.87429926  1
  V  V12  1  -0.00001117  0.37631769  0.37374813  1
  V  V13  1  0.49982038  0.00166895  0.00068200  1
  V  V14  1  0.25096770  0.74958903  0.00011342  1
  V  V15  1  0.62140137  0.37329970  0.24846124  1
  V  V16  1  0.62407042  0.62377271  0.49946381  1
  V  V17  1  0.12545347  -0.00113552  0.62601495  1
  V  V18  1  0.37667176  0.87530702  0.50298351  1
  V  V19  1  0.24956764  0.24839062  -0.00137734  1
  V  V20  1  0.87312413  0.49947659  0.87409157  1
  V  V21  1  0.62621122  0.87625058  0.25227001  1
  V  V22  1  0.49717612  0.37211852  0.37238306  1
  V  V23  1  0.25193344  0.12574941  0.37497721  1
  V  V24  1  0.73660308  0.74638936  -0.00281942  1
  V  V25  1  0.50145554  0.87591163  0.37607014  1
  V  V26  1  0.12784378  0.49924611  0.62573322  1
  V  V27  1  0.12457406  0.37531836  0.74796213  1
  V  V28  1  -0.00049544  0.62498082  0.62600373  1
  V  V29  1  0.25394204  0.61800317  0.87435292  1
  V  V30  1  0.49822653  0.49709494  0.49880419  1
  V  V31  1  0.74671550  0.49720754  0.74576536  1
  V  V32  1  0.12489891  0.87292401  0.75100016  1
  V  V33  1  0.12405771  0.74809335  0.87572665  1
  V  V34  1  0.87348701  0.62547065  0.75026445  1
  V  V35  1  0.87555948  0.87494534  0.50064858  1
  V  V36  1  0.00075222  -0.00010110  0.00055644  1
  V  V37  1  0.62339846  0.25122333  0.37690813  1
  V  V38  1  0.87436639  0.62501661  0.24944890  1
  V  V39  1  0.25140483  0.00216781  0.25107278  1
  V  V40  1  0.50454490  0.87088647  0.87665893  1
  V  V41  1  0.87368015  0.87403662  0.00007984  1
  V  V42  1  0.37464896  0.12385430  0.75134145  1
  V  V43  1  0.62536328  0.00017417  0.62536136  1
  V  V44  1  -0.00184342  0.37421444  0.87426085  1
  V  V45  1  0.37599506  0.00153167  0.37629893  1
  V  V46  1  0.75115258  0.00060835  0.25011709  1
  V  V47  1  0.37640989  0.87601701  0.00072627  1
  V  V48  1  0.25342881  0.25730104  0.50092603  1
  V  V49  1  0.62802050  0.12794692  0.50230216  1
  V  V50  1  0.87322344  0.37453920  -0.00194908  1
  V  V51  1  0.37846219  0.25095104  0.13135815  1
  V  V52  1  0.86931081  0.36975576  0.50230793  1
  V  V53  1  -0.00126968  0.50099749  -0.00008029  1
  V  V54  1  0.50351398  0.74752811  0.75286500  1
  V  V55  1  0.00043820  0.12489964  0.62556020  1
  V  V56  1  -0.00303564  0.24794263  0.74760498  1
  V  V57  1  0.87402791  0.75030659  0.12394792  1
  V  V58  1  0.37502551  0.61796939  0.75184259  1
  V  V59  1  0.12489997  0.87476052  0.25146820  1
  V  V60  1  0.12571485  0.00099876  0.12473854  1
  V  V61  1  0.87554213  0.12691309  0.25006585  1
  V  V62  1  0.74802075  0.37542418  0.12406974  1
  V  V63  1  0.75127765  0.13178097  0.37926701  1
  V  V64  1  0.73624941  0.62837256  0.87757863  1
  V  V65  1  0.25043805  0.74949668  0.50022695  1
  V  V66  1  0.12613911  0.12481103  0.50000211  1
  V  V67  1  0.87469064  -0.00134891  0.87534051  1
  V  V68  1  0.25101006  -0.00123199  0.75168685  1
  V  V69  1  0.37468713  0.49641936  0.37802077  1
  V  V70  1  0.24957883  0.62585836  0.37493111  1
  V  V71  1  0.12494044  0.24920030  0.87560127  1
  V  V72  1  0.37729340  0.62632895  0.24880011  1
  V  V73  1  0.62384121  0.12577520  0.00127692  1
  V  V74  1  0.00050319  0.75142605  0.24995317  1
  V  V75  1  0.37354667  0.25491819  0.62239426  1
  V  V76  1  0.12636828  0.25098199  0.37439834  1
  V  V77  1  -0.00031940  0.62493629  0.12250982  1
  V  V78  1  0.62529670  0.87076508  0.75306812  1
  V  V79  1  0.37396232  0.38044467  -0.00411389  1
  V  V80  1  0.87474551  0.25004874  0.12478396  1
  V  V81  1  0.50070229  0.13013900  0.13264459  1
  V  V82  1  0.00091273  -0.00108914  0.50019931  1
  V  V83  1  0.24954243  0.37709511  0.12444617  1
  V  V84  1  0.50542894  0.50384374  0.00035984  1
  V  V85  1  0.74968582  0.25001620  -0.00127992  1
  V  V86  1  0.62376307  0.37419413  0.74836131  1
  V  V87  1  0.87680076  0.00057697  0.37587841  1
  V  V88  1  0.87503728  0.50089805  0.37342753  1
  V  V89  1  0.74950596  0.12276449  0.87511519  1
  V  V90  1  0.75001865  0.74853711  0.50026918  1
  V  V91  1  0.12528902  0.37736367  0.24853262  1
  V  V92  1  0.75008295  0.50026617  0.24877599  1
  Zn  Zn93  1  0.50039542  0.12432208  0.62381630  1
  Zn  Zn94  1  0.24868624  0.12303247  0.87649090  1
  Zn  Zn95  1  0.12643334  0.62264650  0.00012159  1
  Zn  Zn96  1  0.00209251  0.12627607  0.12510479  1
  Zn  Zn97  1  0.38024573  0.12973247  0.25431386  1
  Zn  Zn98  1  0.86807674  0.24242677  0.61617999  1
  Zn  Zn99  1  0.74994770  0.62527834  0.37381898  1
  Zn  Zn100  1  0.25270047  0.37787168  0.62328766  1
  Zn  Zn101  1  0.50605508  0.62944345  0.11994363  1
  Zn  Zn102  1  -0.00151616  0.87290004  0.87495390  1
  Zn  Zn103  1  0.12501361  0.50270901  0.12311303  1
  Zn  Zn104  1  0.25159686  0.87208946  0.62630957  1
  Zn  Zn105  1  0.62502506  0.00316615  0.12711892  1
  Zn  Zn106  1  0.62520927  0.75045442  0.37527728  1
  Zn  Zn107  1  -0.00136176  0.74972307  0.75121548  1
  Zn  Zn108  1  0.73921922  0.36405536  0.61321314  1
  Zn  Zn109  1  0.49762855  0.62449621  0.62439836  1
  Zn  Zn110  1  0.87330034  0.12294920  0.74762626  1
  Zn  Zn111  1  0.87649820  0.75023243  0.62550331  1
  Zn  Zn112  1  0.50154074  0.00044786  0.50213798  1
  Zn  Zn113  1  0.12496037  0.12461226  0.00053805  1
  Zn  Zn114  1  0.00180887  0.87356678  0.37631187  1
  Zn  Zn115  1  0.12319577  0.74984758  0.37550554  1
  Zn  Zn116  1  0.37554737  0.74878497  0.62739885  1
  Zn  Zn117  1  0.62897883  0.50845725  0.12025828  1
  Zn  Zn118  1  0.25587876  0.49497469  0.75418645  1
  Zn  Zn119  1  0.62207973  0.49669245  0.62268171  1
  Zn  Zn120  1  0.12450145  0.62687587  0.49905956  1
  Zn  Zn121  1  0.37513349  -0.00068949  0.87594430  1
  Zn  Zn122  1  0.18844410  0.18724430  0.18626305  1
  Zn  Zn123  1  0.18749150  0.18707143  0.68721204  1
  Zn  Zn124  1  0.18627754  0.68748408  0.18685610  1
  Zn  Zn125  1  0.19036882  0.68605613  0.68769168  1
  Zn  Zn126  1  0.68691327  0.19030943  0.19009552  1
  Zn  Zn127  1  0.68940286  0.18723134  0.68820348  1
  Zn  Zn128  1  0.68554496  0.68769407  0.18561475  1
  Zn  Zn129  1  0.68438877  0.68524032  0.68521793  1
  Zn  Zn130  1  0.31068837  0.31469631  0.31256950  1
  Zn  Zn131  1  0.31049965  0.31208206  0.81031934  1
  Zn  Zn132  1  0.31321932  0.81399021  0.31462840  1
  Zn  Zn133  1  0.31610277  0.80857557  0.81484144  1
  Zn  Zn134  1  0.81126984  0.31393078  0.31288748  1
  Zn  Zn135  1  0.81027405  0.31036052  0.80824810  1
  Zn  Zn136  1  0.81365039  0.81273681  0.31420599  1
  Zn  Zn137  1  0.81080346  0.80980554  0.81612581  1
  Zn  Zn138  1  0.18604975  0.43971570  0.43733522  1
  Zn  Zn139  1  0.18354252  0.43628510  0.93776272  1
  Zn  Zn140  1  0.18860264  0.93639538  0.43646963  1
  Zn  Zn141  1  0.18759741  0.93569268  0.93743742  1
  Zn  Zn142  1  0.68684926  0.43958267  0.43315902  1
  Zn  Zn143  1  0.68618360  0.43817122  0.93242559  1
  Zn  Zn144  1  0.68920537  0.93987297  0.43800072  1
  Zn  Zn145  1  0.68581056  0.93694794  0.94046299  1
  Zn  Zn146  1  0.31581254  0.06340395  0.06518766  1
  Zn  Zn147  1  0.31142741  0.06392038  0.56419746  1
  Zn  Zn148  1  0.31600751  0.56455198  0.06202519  1
  Zn  Zn149  1  0.31446148  0.56512461  0.56380748  1
  Zn  Zn150  1  0.81327778  0.06272445  0.06334565  1
  Zn  Zn151  1  0.81263711  0.06107960  0.56355589  1
  Zn  Zn152  1  0.81046017  0.56444491  0.06110378  1
  Zn  Zn153  1  0.81237584  0.55874902  0.56218598  1
  Zn  Zn154  1  0.43700020  0.43859063  0.18610774  1
  Zn  Zn155  1  0.43810986  0.43714608  0.68554682  1
  Zn  Zn156  1  0.43904614  0.94089187  0.18897916  1
  Zn  Zn157  1  0.44028204  0.93755714  0.68692095  1
  Zn  Zn158  1  0.93623418  0.43798917  0.18506361  1
  Zn  Zn159  1  0.93773497  0.43755733  0.68598182  1
  Zn  Zn160  1  0.93794125  0.93760776  0.18733286  1
  Zn  Zn161  1  0.93769419  0.93697685  0.68763767  1
  Zn  Zn162  1  0.06316256  0.06296966  0.31247039  1
  Zn  Zn163  1  0.06305647  0.06369717  0.81547961  1
  Zn  Zn164  1  0.06335332  0.56509943  0.31107461  1
  Zn  Zn165  1  0.06353650  0.56135183  0.81289139  1
  Zn  Zn166  1  0.56377660  0.06081832  0.31481760  1
  Zn  Zn167  1  0.56206897  0.05927167  0.81338587  1
  Zn  Zn168  1  0.56408073  0.56345511  0.31075278  1
  Zn  Zn169  1  0.55923241  0.55896517  0.81315404  1
  Zn  Zn170  1  0.43998392  0.18812590  0.43950507  1
  Zn  Zn171  1  0.43630603  0.18867169  0.93921085  1
  Zn  Zn172  1  0.43716181  0.68706711  0.43498522  1
  Zn  Zn173  1  0.43559283  0.68838563  0.93447471  1
  Zn  Zn174  1  0.94080560  0.18775612  0.43647159  1
  Zn  Zn175  1  0.93652112  0.18492238  0.93584266  1
  Zn  Zn176  1  0.93711502  0.68817945  0.43643830  1
  Zn  Zn177  1  0.93335504  0.68715909  0.93759001  1
  Zn  Zn178  1  0.06258719  0.31458002  0.06264443  1
  Zn  Zn179  1  0.06040791  0.31277239  0.56103055  1
  Zn  Zn180  1  0.06310486  0.81299145  0.06342322  1
  Zn  Zn181  1  0.06380558  0.81162831  0.56367601  1
  Zn  Zn182  1  0.56149849  0.31356713  0.06194342  1
  Zn  Zn183  1  0.55851479  0.31165704  0.56052495  1
  Zn  Zn184  1  0.56263091  0.81559343  0.06705803  1
  Zn  Zn185  1  0.56235898  0.81045940  0.56667034  1
  O  O186  1  0.12313543  0.11745556  0.12140474  1
  O  O187  1  0.12042378  0.11852048  0.61957831  1
  O  O188  1  0.11643670  0.62370557  0.12063269  1
  O  O189  1  0.11598564  0.61610929  0.62662048  1
  O  O190  1  0.61708296  0.12885943  0.11989759  1
  O  O191  1  0.62728544  0.12078047  0.61629663  1
  O  O192  1  0.61719956  0.61963766  0.13146086  1
  O  O193  1  0.62065820  0.61945093  0.61179467  1
  O  O194  1  0.38383484  0.38607063  0.36664924  1
  O  O195  1  0.38427555  0.36583248  0.88311916  1
  O  O196  1  0.38039485  0.88141363  0.38466395  1
  O  O197  1  0.38555299  0.87563242  0.88228165  1
  O  O198  1  0.88030215  0.38039455  0.38198541  1
  O  O199  1  0.87840975  0.37952057  0.87870151  1
  O  O200  1  0.87640533  0.88343196  0.38264513  1
  O  O201  1  0.87670129  0.88048293  0.88155466  1
  O  O202  1  0.25598480  0.00685300  0.37143331  1
  O  O203  1  0.25221629  0.00030674  0.86364930  1
  O  O204  1  0.25778597  0.50348742  0.37036488  1
  O  O205  1  0.24120457  0.51378082  0.87400799  1
  O  O206  1  0.75682022  0.01083535  0.37008879  1
  O  O207  1  0.75463923  0.00310553  0.87206753  1
  O  O208  1  0.75779463  0.50159536  0.36627328  1
  O  O209  1  0.75420613  0.50779476  0.86676420  1
  O  O210  1  0.25140769  0.49460170  0.13040917  1
  O  O211  1  0.23871457  0.49865344  0.62377757  1
  O  O212  1  0.24641055  0.99521366  0.13034463  1
  O  O213  1  0.24391519  0.99825215  0.63658861  1
  O  O214  1  0.74964021  0.49210940  0.12954519  1
  O  O215  1  0.74854851  0.49440213  0.63691416  1
  O  O216  1  0.75001008  0.99420520  0.13224337  1
  O  O217  1  0.74545411  0.99319645  0.63198937  1
  O  O218  1  0.00452949  0.37083332  0.25423220  1
  O  O219  1  0.00360844  0.36736030  0.75436909  1
  O  O220  1  0.00652576  0.86919204  0.24996743  1
  O  O221  1  0.01272832  0.87274917  0.75192000  1
  O  O222  1  0.50981440  0.38325474  0.26031826  1
  O  O223  1  0.50229736  0.36957228  0.75750915  1
  O  O224  1  0.50555973  0.87154766  0.25608813  1
  O  O225  1  0.50356158  0.86761780  0.75791598  1
  O  O226  1  0.50116352  0.12204737  0.23695117  1
  O  O227  1  0.49117138  0.12976205  0.75013041  1
  O  O228  1  0.49235030  0.63293394  0.25271185  1
  O  O229  1  0.49284818  0.63120754  0.75386175  1
  O  O230  1  0.99357149  0.13321095  0.24982179  1
  O  O231  1  1.00119072  0.13264754  0.74451353  1
  O  O232  1  0.99378600  0.63078874  0.24282440  1
  O  O233  1  0.98988328  0.62197060  0.74279762  1
  O  O234  1  0.36702074  0.25928124  0.00719005  1
  O  O235  1  0.36492292  0.24096332  0.51086018  1
  O  O236  1  0.37076482  0.75623960  0.00625010  1
  O  O237  1  0.36820358  0.75863175  0.49973388  1
  O  O238  1  0.86908791  0.25486847  0.00341325  1
  O  O239  1  0.88141995  0.26575649  0.49699262  1
  O  O240  1  0.86899014  0.75654981  0.00602437  1
  O  O241  1  0.86610933  0.75452771  0.50265682  1
  O  O242  1  0.13183663  0.24459344  0.49435206  1
  O  O243  1  0.13497937  0.25206678  0.99574249  1
  O  O244  1  0.13731627  0.74939488  0.49846837  1
  O  O245  1  0.13162432  0.75061912  0.99039680  1
  O  O246  1  0.62309625  0.24203934  0.48847903  1
  O  O247  1  0.63057068  0.24620631  0.99382295  1
  O  O248  1  0.63269984  0.74192078  0.50065773  1
  O  O249  1  0.63812794  0.75523426  1.00529069  1
  O  O250  1  0.48919801  0.24236154  0.11692128  1
  O  O251  1  0.49022709  0.24710692  0.63017335  1
  O  O252  1  0.49255913  0.75180446  0.13248926  1
  O  O253  1  0.49691897  0.74706661  0.63835899  1
  O  O254  1  0.99310785  0.25032341  0.13050827  1
  O  O255  1  0.99902643  0.24419805  0.63319407  1
  O  O256  1  0.99350128  0.74543879  0.12918311  1
  O  O257  1  0.99988075  0.73656981  0.62827127  1
  O  O258  1  0.00737823  0.25614908  0.36826698  1
  O  O259  1  0.00474526  0.25434209  0.86813521  1
  O  O260  1  0.00178378  0.75252139  0.36658566  1
  O  O261  1  0.01121789  0.74993877  0.87335270  1
  O  O262  1  0.50776486  0.26194016  0.37950848  1
  O  O263  1  0.50415718  0.25795450  0.87093857  1
  O  O264  1  0.50072296  0.75856254  0.36861734  1
  O  O265  1  0.49629605  0.76044055  0.86668172  1
  O  O266  1  0.24430595  0.13325628  0.49475981  1
  O  O267  1  0.25272586  0.13807061  0.99933360  1
  O  O268  1  0.25129899  0.63432785  0.49408857  1
  O  O269  1  0.25117160  0.63124918  0.99157049  1
  O  O270  1  0.74122443  0.11978001  0.48935051  1
  O  O271  1  0.74470640  0.13060863  0.99521409  1
  O  O272  1  0.74318264  0.63119783  0.50101855  1
  O  O273  1  0.75614094  0.63394461  0.98928901  1
  O  O274  1  0.25650601  0.36852218  0.00247666  1
  O  O275  1  0.24481472  0.36070446  0.50040047  1
  O  O276  1  0.25631179  0.87003856  0.00584211  1
  O  O277  1  0.26002769  0.86735918  0.49987111  1
  O  O278  1  0.75369055  0.36961989  0.00232947  1
  O  O279  1  0.76470670  0.38151951  0.49736314  1
  O  O280  1  0.75473203  0.86787650  0.00501599  1
  O  O281  1  0.75455418  0.86785911  0.50590530  1
  O  O282  1  0.13248230  0.49451176  0.24810709  1
  O  O283  1  0.12411941  0.49406835  0.73957222  1
  O  O284  1  0.13120326  0.99541569  0.24500110  1
  O  O285  1  0.13200182  0.99219119  0.74789528  1
  O  O286  1  0.63160016  0.48719229  0.25234856  1
  O  O287  1  0.63106312  0.49381878  0.74771184  1
  O  O288  1  0.63398619  0.99509569  0.25012227  1
  O  O289  1  0.63116356  0.99228343  0.74559327  1
  O  O290  1  0.36829382  0.00220980  0.25833796  1
  O  O291  1  0.36713818  0.00661137  0.74905234  1
  O  O292  1  0.37035069  0.50535731  0.25762639  1
  O  O293  1  0.37510339  0.51207962  0.74603526  1
  O  O294  1  0.87125810  0.00675721  0.25591633  1
  O  O295  1  0.86840979  -0.00139084  0.75731490  1
  O  O296  1  0.87013190  0.50458697  0.25398996  1
  O  O297  1  0.86640851  0.50554424  0.75350412  1
  O  O298  1  0.12003931  0.37080335  0.36861512  1
  O  O299  1  0.11712229  0.36910377  0.86844504  1
  O  O300  1  0.12325310  0.87315496  0.36648831  1
  O  O301  1  0.12532936  0.86495947  0.86689412  1
  O  O302  1  0.61901854  0.36873427  0.36897535  1
  O  O303  1  0.61479573  0.36796418  0.86898221  1
  O  O304  1  0.61977447  0.87549579  0.37055013  1
  O  O305  1  0.61231943  0.88053922  0.86950636  1
  O  O306  1  0.38363478  0.13457954  0.12680173  1
  O  O307  1  0.37535313  0.13259361  0.63632093  1
  O  O308  1  0.38019803  0.63287123  0.13088817  1
  O  O309  1  0.37777434  0.62819638  0.63614969  1
  O  O310  1  0.87558105  0.13306221  0.13229193  1
  O  O311  1  0.88406419  0.12477075  0.62707875  1
  O  O312  1  0.87977559  0.63095727  0.13013954  1
  O  O313  1  0.88280465  0.62163664  0.63402553  1
  O  O314  1  0.25681524  0.25638504  0.11611000  1
  O  O315  1  0.25545335  0.24996982  0.61688076  1
  O  O316  1  0.25617628  0.75625543  0.12026569  1
  O  O317  1  0.25278964  0.75110837  0.61365865  1
  O  O318  1  0.75485249  0.25582819  0.11869708  1
  O  O319  1  0.76124554  0.25918526  0.64521715  1
  O  O320  1  0.75617644  0.75526325  0.11757543  1
  O  O321  1  0.75071101  0.75426705  0.61508742  1
  O  O322  1  0.24653831  0.24653128  0.38202372  1
  O  O323  1  0.24436919  0.25123644  0.88477261  1
  O  O324  1  0.25132570  0.74422133  0.38445003  1
  O  O325  1  0.24182173  0.74248196  0.88004792  1
  O  O326  1  0.74179048  0.23921566  0.37139893  1
  O  O327  1  0.74409835  0.24375462  0.87899070  1
  O  O328  1  0.74901941  0.74885667  0.38904771  1
  O  O329  1  0.75366477  0.74006483  0.88505880  1
  O  O330  1  -0.00006876  0.11191362  0.00195508  1
  O  O331  1  0.00714677  0.11960189  0.50466954  1
  O  O332  1  -0.00181507  0.61852875  0.00471642  1
  O  O333  1  -0.00083826  0.61998962  0.51061142  1
  O  O334  1  0.50453576  0.12172597  0.00733293  1
  O  O335  1  0.51496304  0.12293488  0.50105989  1
  O  O336  1  0.48992953  0.60538913  -0.00605671  1
  O  O337  1  0.50717449  0.61611426  0.49752686  1
  O  O338  1  0.50652343  0.38673889  0.48545082  1
  O  O339  1  0.49175299  0.37932708  0.99239235  1
  O  O340  1  0.49144308  0.87423795  0.49593793  1
  O  O341  1  0.49675565  0.87988572  0.99453716  1
  O  O342  1  0.99299785  0.38138674  0.49214270  1
  O  O343  1  0.99232261  0.37927055  0.99371658  1
  O  O344  1  0.99444278  0.88107567  0.50102545  1
  O  O345  1  0.99389751  0.88495106  1.00015258  1
  O  O346  1  0.49266004  0.49403248  0.37973778  1
  O  O347  1  0.50278591  0.48539294  0.88477144  1
  O  O348  1  0.49385129  0.99391075  0.37857018  1
  O  O349  1  0.49672681  0.99004940  0.88124028  1
  O  O350  1  0.99542853  0.49558755  0.37843487  1
  O  O351  1  0.99329844  0.49384594  0.87861190  1
  O  O352  1  0.99435867  1.00027561  0.38289564  1
  O  O353  1  0.99522639  0.99749548  0.88458156  1
  O  O354  1  0.00558996  0.00094285  0.11593602  1
  O  O355  1  0.00660122  0.00473380  0.62014350  1
  O  O356  1  -0.00134073  0.50651863  0.11742371  1
  O  O357  1  0.00731583  0.50782782  0.62070263  1
  O  O358  1  0.50107432  0.01144838  0.11881598  1
  O  O359  1  0.50983000  0.00358815  0.62362847  1
  O  O360  1  0.49997592  0.49755636  0.10859212  1
  O  O361  1  0.49875090  0.49981421  0.61005244  1
  O  O362  1  0.24472938  0.38179132  0.24434483  1
  O  O363  1  0.24115765  0.37753459  0.74660118  1
  O  O364  1  0.24596512  0.88170515  0.24521164  1
  O  O365  1  0.24311230  0.88117960  0.75075843  1
  O  O366  1  0.74269738  0.37979662  0.24426355  1
  O  O367  1  0.74182288  0.38735463  0.75711151  1
  O  O368  1  0.74694895  0.88053623  0.24608750  1
  O  O369  1  0.74503417  0.87714095  0.74632661  1
  O  O370  1  0.25207051  0.12000355  0.25766777  1
  O  O371  1  0.25686473  0.11604922  0.75106392  1
  O  O372  1  0.25687651  0.62082297  0.25445423  1
  O  O373  1  0.25806972  0.62296720  0.75717925  1
  O  O374  1  0.75545511  0.12172277  0.25917230  1
  O  O375  1  0.74988236  0.11461164  0.75865359  1
  O  O376  1  0.75767370  0.61918319  0.25068184  1
  O  O377  1  0.75549082  0.61751021  0.75414017  1
  O  O378  1  0.37095124  0.12107941  0.37430206  1
  O  O379  1  0.37261914  0.12449081  0.86270321  1
  O  O380  1  0.36943143  0.61589623  0.36855817  1
  O  O381  1  0.36290447  0.63143737  0.86487522  1
  O  O382  1  0.86811797  0.12245972  0.37168333  1
  O  O383  1  0.86708691  0.11669893  0.87287721  1
  O  O384  1  0.87434641  0.61816984  0.36759559  1
  O  O385  1  0.86919758  0.61862817  0.86396234  1
  O  O386  1  0.13205262  0.37760205  0.13099340  1
  O  O387  1  0.12252560  0.38524829  0.62896883  1
  O  O388  1  0.13256503  0.88081919  0.13069617  1
  O  O389  1  0.12753948  0.87967278  0.63579722  1
  O  O390  1  0.62910614  0.37388088  0.13462987  1
  O  O391  1  0.62309442  0.37603128  0.63168898  1
  O  O392  1  0.63252307  0.87968275  0.13428131  1
  O  O393  1  0.63150468  0.88016676  0.63177259  1
  O  O394  1  0.12138732  0.25709711  0.25461624  1
  O  O395  1  0.11559745  0.25442436  0.75373949  1
  O  O396  1  0.11889927  0.75740629  0.24979137  1
  O  O397  1  0.12685565  0.75710533  0.75815344  1
  O  O398  1  0.62916482  0.26223834  0.26275737  1
  O  O399  1  0.61684147  0.25365706  0.75617191  1
  O  O400  1  0.61983267  0.75905621  0.25354267  1
  O  O401  1  0.61346737  0.75519709  0.74515039  1
  O  O402  1  0.36833484  0.25118176  0.23499178  1
  O  O403  1  0.37740221  0.24116523  0.74327372  1
  O  O404  1  0.38006548  0.74679859  0.24575531  1
  O  O405  1  0.38486557  0.74133855  0.74947730  1
  O  O406  1  0.88006847  0.24706500  0.24522576  1
  O  O407  1  0.89063539  0.24799079  0.75308460  1
  O  O408  1  0.87933072  0.74565712  0.24358397  1
  O  O409  1  0.87526442  0.73728369  0.74796927  1
  O  O410  1  0.38326927  0.50641069  0.48687295  1
  O  O411  1  0.38246448  0.48508348  1.00306652  1
  O  O412  1  0.37490178  0.99173296  0.49623690  1
  O  O413  1  0.38096760  0.99379236  0.99918593  1
  O  O414  1  0.88114696  0.49218728  0.49343284  1
  O  O415  1  0.87804131  0.49337109  0.99314226  1
  O  O416  1  0.88091972  0.99489388  0.49548033  1
  O  O417  1  0.88156235  0.99425367  0.99610338  1
  O  O418  1  0.11712246  -0.00149008  0.00501708  1
  O  O419  1  0.12179559  0.00442328  0.50586325  1
  O  O420  1  0.11432268  0.50157626  0.00188902  1
  O  O421  1  0.11871299  0.50196812  0.50921133  1
  O  O422  1  0.61870006  0.00847394  0.00362954  1
  O  O423  1  0.62597663  0.00949432  0.50649803  1
  O  O424  1  0.60897492  0.49103952  0.00033823  1
  O  O425  1  0.61684555  0.50701121  0.49764723  1
  O  O426  1  0.37041282  0.36820957  0.11677724  1
  O  O427  1  0.37215409  0.35924889  0.63159060  1
  O  O428  1  0.37039359  0.87094456  0.12091619  1
  O  O429  1  0.37384663  0.87411517  0.61425075  1
  O  O430  1  0.86808390  0.36903716  0.11797980  1
  O  O431  1  0.87833591  0.37662355  0.60771533  1
  O  O432  1  0.86843411  0.87012094  0.12024647  1
  O  O433  1  0.86870933  0.87276773  0.61933481  1
  O  O434  1  0.13132349  0.13165380  0.38019531  1
  O  O435  1  0.12891310  0.13325877  0.88000579  1
  O  O436  1  0.13413808  0.62697695  0.37798267  1
  O  O437  1  0.13260666  0.63457513  0.87406856  1
  O  O438  1  0.63156909  0.13222691  0.38079130  1
  O  O439  1  0.62926454  0.12974598  0.88098175  1
  O  O440  1  0.62801197  0.62716198  0.38701850  1
  O  O441  1  0.63797769  0.61998722  0.86984454  1
