# generated using pymatgen
data_V93Zn93O256
_symmetry_space_group_name_H-M   'P 1'
_cell_length_a   17.05480472
_cell_length_b   17.05479769
_cell_length_c   17.04968452
_cell_angle_alpha   90.02100749
_cell_angle_beta   90.00965379
_cell_angle_gamma   90.01021262
_symmetry_Int_Tables_number   1
_chemical_formula_structural   V93Zn93O256
_chemical_formula_sum   'V93 Zn93 O256'
_cell_volume   4959.17721808
_cell_formula_units_Z   1
loop_
 _symmetry_equiv_pos_site_id
 _symmetry_equiv_pos_as_xyz
  1  'x, y, z'
loop_
 _atom_site_type_symbol
 _atom_site_label
 _atom_site_symmetry_multiplicity
 _atom_site_fract_x
 _atom_site_fract_y
 _atom_site_fract_z
 _atom_site_occupancy
  V  V0  1  0.62454859  0.37546502  0.74930183  1
  V  V1  1  0.87502184  0.37554804  0.00043341  1
  V  V2  1  0.62590740  -0.00040307  0.12408956  1
  V  V3  1  0.01014176  0.87198443  0.37835006  1
  V  V4  1  0.00155554  -0.00039878  0.00174812  1
  V  V5  1  0.37378900  -0.00116075  0.87312395  1
  V  V6  1  0.74906845  0.37466821  0.62659773  1
  V  V7  1  0.00047745  0.25175193  0.25291231  1
  V  V8  1  0.37407525  0.25044008  0.62525736  1
  V  V9  1  0.75025049  -0.00041316  0.74887504  1
  V  V10  1  0.24917430  0.62388540  0.87461706  1
  V  V11  1  0.12254804  0.63013507  0.49626997  1
  V  V12  1  0.49964096  0.75024241  0.74865238  1
  V  V13  1  0.36605972  0.75296296  0.62272428  1
  V  V14  1  0.49897471  0.37512089  0.37664269  1
  V  V15  1  0.24587235  0.12696766  0.38156551  1
  V  V16  1  0.24979935  0.50045874  0.25094407  1
  V  V17  1  0.50004111  0.50025305  -0.00030323  1
  V  V18  1  0.75024639  0.37590904  0.12549104  1
  V  V19  1  0.00301509  0.12392087  0.12554065  1
  V  V20  1  0.11872573  0.49790243  0.61644930  1
  V  V21  1  0.50084098  0.75029731  0.24993951  1
  V  V22  1  0.50018388  0.24955880  0.24913944  1
  V  V23  1  0.87150999  0.62680898  0.25672020  1
  V  V24  1  0.25032955  0.37462922  0.12645070  1
  V  V25  1  0.62466145  0.12579625  0.50017913  1
  V  V26  1  0.49909187  0.37534163  0.87407512  1
  V  V27  1  0.25083277  0.00098745  0.24901159  1
  V  V28  1  0.49959050  0.62523985  0.62210862  1
  V  V29  1  0.49905742  -0.00232117  0.49762272  1
  V  V30  1  0.62459658  0.50095457  0.12499840  1
  V  V31  1  0.74935281  0.74833594  0.49400596  1
  V  V32  1  0.87636300  0.87448397  0.00022602  1
  V  V33  1  0.12048986  0.01581904  0.62222811  1
  V  V34  1  0.37442415  0.87462754  -0.00130402  1
  V  V35  1  0.12393525  0.37526654  0.74991899  1
  V  V36  1  0.00006700  0.62525800  0.12564969  1
  V  V37  1  0.75271115  0.12381227  0.37391410  1
  V  V38  1  0.37422762  0.12304397  0.74996621  1
  V  V39  1  0.62493691  0.74971301  0.87401948  1
  V  V40  1  0.00306598  0.01334790  0.50240072  1
  V  V41  1  0.24927384  0.74908732  -0.00158137  1
  V  V42  1  -0.00048982  0.50079933  0.00092418  1
  V  V43  1  0.12432045  0.62464726  -0.00088554  1
  V  V44  1  0.62555062  0.87515053  0.25185214  1
  V  V45  1  0.87557844  0.75081188  0.12658304  1
  V  V46  1  0.37384147  0.37556149  0.49952433  1
  V  V47  1  0.37505359  0.74960894  0.12414359  1
  V  V48  1  0.24617568  0.63345390  0.37554719  1
  V  V49  1  0.12534950  0.87304910  0.73987946  1
  V  V50  1  0.37446960  0.37447074  -0.00033604  1
  V  V51  1  0.37354321  0.62494618  0.25091770  1
  V  V52  1  0.49940738  0.62414485  0.12458925  1
  V  V53  1  0.88094923  0.24748940  0.62697982  1
  V  V54  1  -0.00027322  0.37425165  0.87540841  1
  V  V55  1  0.50036549  -0.00018884  -0.00074829  1
  V  V56  1  0.62759868  0.62641763  0.49305817  1
  V  V57  1  0.62612716  -0.00024706  0.62524609  1
  V  V58  1  0.62541943  0.25155515  0.37571776  1
  V  V59  1  0.24953271  -0.00552602  0.74374616  1
  V  V60  1  0.75051748  0.87586872  0.62388212  1
  V  V61  1  0.24937782  0.87539984  0.12515616  1
  V  V62  1  0.88114528  0.12528265  0.74651284  1
  V  V63  1  0.75061438  0.25234747  0.50197279  1
  V  V64  1  0.74996733  0.62535288  0.87367168  1
  V  V65  1  0.62510258  0.12410242  0.00076078  1
  V  V66  1  0.87532054  -0.00053620  0.87432977  1
  V  V67  1  0.87589941  0.25026880  0.12560872  1
  V  V68  1  0.49942101  0.24929986  0.75021466  1
  V  V69  1  0.74965143  0.50036665  0.75010639  1
  V  V70  1  0.87727585  0.87574108  0.50024992  1
  V  V71  1  0.49970988  0.12480238  0.62465115  1
  V  V72  1  0.62479029  0.24987899  0.87535531  1
  V  V73  1  0.75007816  0.25028616  0.00053660  1
  V  V74  1  0.37677133  0.24891690  0.12583018  1
  V  V75  1  0.00260643  0.87224134  0.87289711  1
  V  V76  1  0.24865967  0.50076298  0.74927360  1
  V  V77  1  0.12477133  0.24823791  0.87675911  1
  V  V78  1  0.87381404  0.50058911  0.87480930  1
  V  V79  1  0.75114025  0.87545962  0.12543378  1
  V  V80  1  0.75070002  0.12444920  0.87550432  1
  V  V81  1  0.00703576  0.75055292  0.25676143  1
  V  V82  1  0.37381612  0.50017687  0.87319595  1
  V  V83  1  0.62498267  0.37614505  0.25123822  1
  V  V84  1  0.24905279  0.37523453  0.62406670  1
  V  V85  1  0.12489130  0.37398935  0.25336698  1
  V  V86  1  0.50043558  0.87342420  0.87360014  1
  V  V87  1  -0.00261710  0.62228203  0.62104371  1
  V  V88  1  0.36796751  0.87523954  0.50232521  1
  V  V89  1  0.88121987  0.49645323  0.37826520  1
  V  V90  1  0.24992766  0.24913831  0.00009155  1
  V  V91  1  0.75016120  0.74934168  -0.00105426  1
  V  V92  1  0.74964318  0.50483365  0.25549723  1
  Zn  Zn93  1  0.12928729  0.87142010  0.25330300  1
  Zn  Zn94  1  0.37574815  -0.00005597  0.37349136  1
  Zn  Zn95  1  0.37310681  0.62587556  0.74716373  1
  Zn  Zn96  1  0.24368122  0.75789855  0.49772535  1
  Zn  Zn97  1  0.87963379  0.38138117  0.50736906  1
  Zn  Zn98  1  0.12535909  -0.00359207  0.12446123  1
  Zn  Zn99  1  0.87962085  0.00232301  0.37418444  1
  Zn  Zn100  1  0.87567504  0.12275691  0.25061027  1
  Zn  Zn101  1  0.12622851  0.74904201  0.87113951  1
  Zn  Zn102  1  0.49995920  0.12432870  0.12633958  1
  Zn  Zn103  1  0.11887163  0.24260303  0.38525894  1
  Zn  Zn104  1  0.87418459  0.74718644  0.62626974  1
  Zn  Zn105  1  0.24908223  0.12272720  0.87589509  1
  Zn  Zn106  1  0.50011706  0.87229464  0.37592776  1
  Zn  Zn107  1  0.87629826  0.62623587  0.74852821  1
  Zn  Zn108  1  0.62504943  0.50100025  0.62342325  1
  Zn  Zn109  1  0.00731096  0.37898991  0.38867831  1
  Zn  Zn110  1  0.12787848  0.12183019  0.00022093  1
  Zn  Zn111  1  0.50242154  0.50084817  0.49883770  1
  Zn  Zn112  1  0.12423476  0.49936281  0.12502866  1
  Zn  Zn113  1  -0.00122682  0.74747691  0.74742453  1
  Zn  Zn114  1  0.00335048  0.24542537  0.74770401  1
  Zn  Zn115  1  0.62490484  0.62518277  -0.00026715  1
  Zn  Zn116  1  0.62754798  0.74648583  0.37149907  1
  Zn  Zn117  1  0.37771610  0.12395474  0.25057815  1
  Zn  Zn118  1  0.75327119  0.00029993  0.25060449  1
  Zn  Zn119  1  0.62624293  0.87469433  0.74898998  1
  Zn  Zn120  1  0.24150829  0.24362938  0.50605240  1
  Zn  Zn121  1  0.37517677  0.50225378  0.37713209  1
  Zn  Zn122  1  0.18829046  0.18708771  0.19106906  1
  Zn  Zn123  1  0.18980192  0.18775418  0.69109848  1
  Zn  Zn124  1  0.18730986  0.68674317  0.18545588  1
  Zn  Zn125  1  0.18336631  0.68517764  0.68681186  1
  Zn  Zn126  1  0.68646759  0.18733072  0.18812894  1
  Zn  Zn127  1  0.68982245  0.18682779  0.68800893  1
  Zn  Zn128  1  0.68740559  0.68790865  0.18572312  1
  Zn  Zn129  1  0.68733109  0.68877369  0.68469170  1
  Zn  Zn130  1  0.31302100  0.31005563  0.31300725  1
  Zn  Zn131  1  0.31053235  0.31272934  0.81164994  1
  Zn  Zn132  1  0.31646789  0.81562807  0.31441484  1
  Zn  Zn133  1  0.31187239  0.81131498  0.81006302  1
  Zn  Zn134  1  0.81253291  0.31360770  0.31214736  1
  Zn  Zn135  1  0.81244281  0.31238280  0.81168368  1
  Zn  Zn136  1  0.81582055  0.81488435  0.31485355  1
  Zn  Zn137  1  0.81423071  0.81033807  0.80928761  1
  Zn  Zn138  1  0.19074320  0.44000547  0.43658470  1
  Zn  Zn139  1  0.18650530  0.43724641  0.93827037  1
  Zn  Zn140  1  0.18729162  0.94466649  0.43877092  1
  Zn  Zn141  1  0.18695387  0.93742761  0.93560001  1
  Zn  Zn142  1  0.68975021  0.43945960  0.43997943  1
  Zn  Zn143  1  0.68666276  0.43811938  0.93709787  1
  Zn  Zn144  1  0.68790924  0.93777559  0.43732502  1
  Zn  Zn145  1  0.68784212  0.93576875  0.93669911  1
  Zn  Zn146  1  0.31332805  0.06424099  0.06304453  1
  Zn  Zn147  1  0.31178283  0.05930102  0.56467166  1
  Zn  Zn148  1  0.31154780  0.56097966  0.06291163  1
  Zn  Zn149  1  0.30975488  0.56327150  0.56062213  1
  Zn  Zn150  1  0.81444158  0.06201798  0.06364927  1
  Zn  Zn151  1  0.81474176  0.06309664  0.56099625  1
  Zn  Zn152  1  0.81279144  0.56443749  0.06416133  1
  Zn  Zn153  1  0.80861565  0.56302992  0.56222158  1
  Zn  Zn154  1  0.43645715  0.43735624  0.18877713  1
  Zn  Zn155  1  0.43699581  0.43954999  0.68617942  1
  Zn  Zn156  1  0.43771799  0.93752282  0.18596983  1
  Zn  Zn157  1  0.43806558  0.93450590  0.68503683  1
  Zn  Zn158  1  0.93773640  0.43838888  0.18917883  1
  Zn  Zn159  1  0.93732442  0.43611914  0.68924870  1
  Zn  Zn160  1  0.93734372  0.93821527  0.19215154  1
  Zn  Zn161  1  0.93955568  0.93942406  0.68551380  1
  Zn  Zn162  1  0.06473789  0.05867395  0.31327129  1
  Zn  Zn163  1  0.06365815  0.05965314  0.81274926  1
  Zn  Zn164  1  0.06317208  0.56289652  0.31234131  1
  Zn  Zn165  1  0.06171660  0.56178126  0.80990573  1
  Zn  Zn166  1  0.56521109  0.06350965  0.31164162  1
  Zn  Zn167  1  0.56276296  0.06153684  0.81268777  1
  Zn  Zn168  1  0.55946077  0.56156346  0.31382040  1
  Zn  Zn169  1  0.56297693  0.56427599  0.81010474  1
  Zn  Zn170  1  0.43253810  0.18702974  0.43519427  1
  Zn  Zn171  1  0.43687558  0.18549620  0.93781911  1
  Zn  Zn172  1  0.43691044  0.69023442  0.43604028  1
  Zn  Zn173  1  0.43660179  0.68593059  0.93637132  1
  Zn  Zn174  1  0.93486168  0.19422646  0.43878058  1
  Zn  Zn175  1  0.93839459  0.18624652  0.93820881  1
  Zn  Zn176  1  0.93775796  0.68678569  0.43967062  1
  Zn  Zn177  1  0.93666832  0.68725182  0.93678203  1
  Zn  Zn178  1  0.06358503  0.31266000  0.06403412  1
  Zn  Zn179  1  0.06006549  0.31135975  0.55827123  1
  Zn  Zn180  1  0.06435496  0.81073326  0.06421334  1
  Zn  Zn181  1  0.06040139  0.81019008  0.56345004  1
  Zn  Zn182  1  0.56241585  0.31348441  0.06311990  1
  Zn  Zn183  1  0.56167161  0.31243647  0.56275738  1
  Zn  Zn184  1  0.56318484  0.81233766  0.06215879  1
  Zn  Zn185  1  0.56249720  0.81145829  0.56292018  1
  O  O186  1  0.11222593  0.12549082  0.12389517  1
  O  O187  1  0.12289298  0.11425656  0.63181229  1
  O  O188  1  0.11758884  0.62303207  0.11756804  1
  O  O189  1  0.11834054  0.61568844  0.61717374  1
  O  O190  1  0.62512782  0.11848157  0.11754175  1
  O  O191  1  0.61977899  0.12073173  0.61965357  1
  O  O192  1  0.61776437  0.61839802  0.12355192  1
  O  O193  1  0.61408132  0.62685629  0.61523800  1
  O  O194  1  0.37936016  0.37358006  0.38501694  1
  O  O195  1  0.37984196  0.37973949  0.87964032  1
  O  O196  1  0.38153848  0.87929701  0.38633715  1
  O  O197  1  0.38032417  0.87942983  0.87938246  1
  O  O198  1  0.87556221  0.38967983  0.37168157  1
  O  O199  1  0.87904668  0.37944903  0.88164180  1
  O  O200  1  0.88374874  0.87792599  0.38781388  1
  O  O201  1  0.88324256  0.88017243  0.87942884  1
  O  O202  1  0.25162580  0.00938686  0.36669923  1
  O  O203  1  0.25557239  0.00082036  0.86413511  1
  O  O204  1  0.25339487  0.51093837  0.36725963  1
  O  O205  1  0.25450715  0.50353836  0.87002742  1
  O  O206  1  0.75035650  0.01353773  0.37648926  1
  O  O207  1  0.75616474  0.00443892  0.87038113  1
  O  O208  1  0.75783911  0.49559771  0.35969117  1
  O  O209  1  0.75420551  0.50495577  0.87074754  1
  O  O210  1  0.24852057  0.49239909  0.13207103  1
  O  O211  1  0.24081556  0.49519725  0.63001834  1
  O  O212  1  0.25054840  0.99418908  0.13211605  1
  O  O213  1  0.23612879  1.00342209  0.63415721  1
  O  O214  1  0.74582700  0.49538499  0.13378960  1
  O  O215  1  0.74879432  0.49229108  0.63237313  1
  O  O216  1  0.74417291  0.99280175  0.12480373  1
  O  O217  1  0.74514547  0.99606117  0.62836662  1
  O  O218  1  0.00881796  0.36605443  0.24723597  1
  O  O219  1  0.00676167  0.37235823  0.75864061  1
  O  O220  1  0.00043508  0.86703785  0.26077265  1
  O  O221  1  0.00705034  0.87674175  0.75841100  1
  O  O222  1  0.50639879  0.37064542  0.25592974  1
  O  O223  1  0.50391585  0.36908471  0.75467200  1
  O  O224  1  0.51061872  0.86961836  0.24778186  1
  O  O225  1  0.50179111  0.86877380  0.75613185  1
  O  O226  1  0.50051688  0.13382761  0.24786338  1
  O  O227  1  0.49479421  0.12934144  0.74447547  1
  O  O228  1  0.49410519  0.62955878  0.24358446  1
  O  O229  1  0.49797273  0.63135706  0.73923359  1
  O  O230  1  1.00091381  0.13411990  0.24330822  1
  O  O231  1  0.98460974  0.12454315  0.75727090  1
  O  O232  1  0.99207816  0.63254700  0.24646195  1
  O  O233  1  0.99979934  0.62553380  0.73765505  1
  O  O234  1  0.37048474  0.25609920  0.00392056  1
  O  O235  1  0.37210190  0.25959242  0.50740060  1
  O  O236  1  0.36972030  0.75502953  0.00458607  1
  O  O237  1  0.37370955  0.75925621  0.50633432  1
  O  O238  1  0.86940876  0.25585791  0.00496536  1
  O  O239  1  0.86648853  0.24930544  0.51232585  1
  O  O240  1  0.87054225  0.75556145  0.00626010  1
  O  O241  1  0.86753261  0.75852956  0.50206736  1
  O  O242  1  0.13066687  0.25422358  0.49598423  1
  O  O243  1  0.13065224  0.25084898  0.99107421  1
  O  O244  1  0.12958711  0.73592448  0.50831194  1
  O  O245  1  0.13184469  0.74293945  0.99696845  1
  O  O246  1  0.63006998  0.24503745  0.49535711  1
  O  O247  1  0.63059814  0.24569751  0.99486187  1
  O  O248  1  0.63205656  0.74508374  0.49726075  1
  O  O249  1  0.63213597  0.74917176  0.99329384  1
  O  O250  1  0.49507105  0.25069279  0.13103150  1
  O  O251  1  0.49450299  0.24394680  0.63134061  1
  O  O252  1  0.49437508  0.74433203  0.12903924  1
  O  O253  1  0.49235174  0.74247480  0.62867730  1
  O  O254  1  0.99597988  0.24318822  0.13198489  1
  O  O255  1  0.98397714  0.25382738  0.62950019  1
  O  O256  1  0.99321039  0.74599358  0.13439132  1
  O  O257  1  0.99729568  0.73608844  0.62563503  1
  O  O258  1  -0.00064458  0.25253435  0.36265211  1
  O  O259  1  0.00903993  0.25585420  0.87609866  1
  O  O260  1  -0.00726630  0.75887198  0.36656110  1
  O  O261  1  0.00114454  0.76282112  0.87482610  1
  O  O262  1  0.50624654  0.25533005  0.37031026  1
  O  O263  1  0.50473315  0.25539052  0.86991281  1
  O  O264  1  0.50374678  0.75217185  0.36427033  1
  O  O265  1  0.50379427  0.75384885  0.86941689  1
  O  O266  1  0.25636677  0.12201390  0.48532192  1
  O  O267  1  0.24771889  0.13308000  0.99653701  1
  O  O268  1  0.24233654  0.62631826  0.49047124  1
  O  O269  1  0.24487937  0.62883024  0.99484876  1
  O  O270  1  0.74380683  0.13098459  0.49354496  1
  O  O271  1  0.74585505  0.13058360  0.99491101  1
  O  O272  1  0.73874027  0.63730753  0.50847858  1
  O  O273  1  0.74921245  0.63177449  0.99384623  1
  O  O274  1  0.25551745  0.36974931  0.00565840  1
  O  O275  1  0.26019567  0.37498818  0.50597954  1
  O  O276  1  0.25578588  0.86960412  0.00349136  1
  O  O277  1  0.26312475  0.87632165  0.49370598  1
  O  O278  1  0.75482165  0.37004853  0.00556957  1
  O  O279  1  0.75398409  0.36939906  0.50759181  1
  O  O280  1  0.75723217  0.86937761  0.00467574  1
  O  O281  1  0.75833572  0.87133568  0.50408959  1
  O  O282  1  0.13004338  0.49107692  0.24712408  1
  O  O283  1  0.13042679  0.49373149  0.74155196  1
  O  O284  1  0.13829440  0.99527390  0.24682554  1
  O  O285  1  0.12932782  0.99489477  0.74009527  1
  O  O286  1  0.63195048  0.49677525  0.24571994  1
  O  O287  1  0.63092261  0.49246298  0.74851235  1
  O  O288  1  0.62715336  0.99042288  0.24337044  1
  O  O289  1  0.63235840  1.00015855  0.74339349  1
  O  O290  1  0.36462330  -0.00055873  0.25070747  1
  O  O291  1  0.36730163  0.00146312  0.75106118  1
  O  O292  1  0.36775205  0.50729015  0.25042990  1
  O  O293  1  0.36692540  0.50087482  0.75550514  1
  O  O294  1  0.87098054  0.00446336  0.25644434  1
  O  O295  1  0.87016062  0.00689077  0.75377854  1
  O  O296  1  0.86772920  0.50763549  0.25530702  1
  O  O297  1  0.86721356  0.50014083  0.75845968  1
  O  O298  1  0.12545757  0.37641354  0.36191969  1
  O  O299  1  0.12024504  0.36700602  0.87080415  1
  O  O300  1  0.11340563  0.87708069  0.37763323  1
  O  O301  1  0.11519888  0.87619948  0.86495407  1
  O  O302  1  0.62084920  0.37051035  0.37099295  1
  O  O303  1  0.61872592  0.36897506  0.87003811  1
  O  O304  1  0.62417332  0.87485227  0.36195073  1
  O  O305  1  0.61824462  0.86825318  0.87307476  1
  O  O306  1  0.37931390  0.13442129  0.12699179  1
  O  O307  1  0.38007318  0.12963592  0.63054736  1
  O  O308  1  0.37932168  0.63036039  0.13011861  1
  O  O309  1  0.38400129  0.63297201  0.62220129  1
  O  O310  1  0.88576277  0.13184897  0.12575732  1
  O  O311  1  0.86587219  0.13442312  0.63667741  1
  O  O312  1  0.88061113  0.63075885  0.13502043  1
  O  O313  1  0.88667665  0.62082494  0.62315054  1
  O  O314  1  0.25579838  0.25549382  0.12071894  1
  O  O315  1  0.25708315  0.25664850  0.62726626  1
  O  O316  1  0.25642748  0.75436903  0.11877482  1
  O  O317  1  0.26361233  0.74146552  0.62280312  1
  O  O318  1  0.75493146  0.25582074  0.12017523  1
  O  O319  1  0.75577146  0.25563135  0.62166838  1
  O  O320  1  0.75646463  0.75562246  0.11929850  1
  O  O321  1  0.75097033  0.75869012  0.61414024  1
  O  O322  1  0.25021481  0.23379671  0.37291013  1
  O  O323  1  0.24007755  0.25015116  0.88011023  1
  O  O324  1  0.25275534  0.73706505  0.37393037  1
  O  O325  1  0.25002812  0.74291742  0.88113903  1
  O  O326  1  0.74502688  0.24491638  0.38066107  1
  O  O327  1  0.74436322  0.24514987  0.88115599  1
  O  O328  1  0.74908836  0.75626706  0.38956923  1
  O  O329  1  0.74546806  0.74570593  0.87966146  1
  O  O330  1  0.00050348  0.11905189  0.00973502  1
  O  O331  1  -0.00476683  0.11131153  0.49168314  1
  O  O332  1  0.00373166  0.62060650  0.00519254  1
  O  O333  1  0.00957045  0.62711530  0.50817408  1
  O  O334  1  0.50789837  0.11766580  -0.00028617  1
  O  O335  1  0.50387513  0.11827298  0.50526845  1
  O  O336  1  0.50005590  0.61767191  0.00665996  1
  O  O337  1  0.50701950  0.62651190  0.50736686  1
  O  O338  1  0.49083379  0.37457269  0.49576897  1
  O  O339  1  0.49449953  0.38020134  0.99356609  1
  O  O340  1  0.49492645  0.88493197  0.50016553  1
  O  O341  1  0.49395783  0.87953253  0.99395305  1
  O  O342  1  0.99086983  0.37530043  0.49903446  1
  O  O343  1  0.99425959  0.38014775  0.99632299  1
  O  O344  1  0.99395750  0.87891686  0.49514372  1
  O  O345  1  0.99579725  0.87862191  0.99288694  1
  O  O346  1  0.49548398  0.49047307  0.37773156  1
  O  O347  1  0.49450493  0.49472326  0.87876524  1
  O  O348  1  0.50114909  1.00141655  0.38884435  1
  O  O349  1  0.49427685  0.99352922  0.87902068  1
  O  O350  1  0.98423099  0.49778891  0.36623442  1
  O  O351  1  0.99405345  0.49406382  0.88118664  1
  O  O352  1  1.00130817  0.99045601  0.38463810  1
  O  O353  1  0.99509462  0.99072959  0.88022673  1
  O  O354  1  0.00007816  0.00847054  0.12146546  1
  O  O355  1  0.01256979  -0.00059905  0.61841768  1
  O  O356  1  -0.00080421  0.50718974  0.11886693  1
  O  O357  1  0.01104881  0.50638776  0.63050167  1
  O  O358  1  0.50756170  0.00002349  0.11633690  1
  O  O359  1  0.50530654  0.00553556  0.61715948  1
  O  O360  1  0.50464023  0.50403838  0.12007728  1
  O  O361  1  0.50119161  0.51270162  0.62332087  1
  O  O362  1  0.24321352  0.37870544  0.24661043  1
  O  O363  1  0.24375066  0.38076449  0.74399369  1
  O  O364  1  0.25082141  0.88201997  0.24518243  1
  O  O365  1  0.23975152  0.88584477  0.75516879  1
  O  O366  1  0.74442347  0.38321603  0.24399688  1
  O  O367  1  0.74292686  0.37962192  0.74714780  1
  O  O368  1  0.74193068  0.87413126  0.24417788  1
  O  O369  1  0.75055995  0.88286201  0.74268040  1
  O  O370  1  0.25338063  0.11571192  0.25596246  1
  O  O371  1  0.25661733  0.11295017  0.75237277  1
  O  O372  1  0.25298185  0.62116716  0.25573996  1
  O  O373  1  0.24959338  0.61782794  0.75623062  1
  O  O374  1  0.75014654  0.12577936  0.26158816  1
  O  O375  1  0.75785539  0.11918846  0.75715675  1
  O  O376  1  0.76023227  0.61700351  0.24296658  1
  O  O377  1  0.74997450  0.61815541  0.75524477  1
  O  O378  1  0.36438640  0.12052239  0.37011102  1
  O  O379  1  0.37506642  0.11670877  0.86703751  1
  O  O380  1  0.36600010  0.62416776  0.36888163  1
  O  O381  1  0.36781075  0.61728563  0.87253959  1
  O  O382  1  0.86229705  0.12738508  0.37526357  1
  O  O383  1  0.86919871  0.11963581  0.86912192  1
  O  O384  1  0.87967468  0.61564493  0.36283741  1
  O  O385  1  0.86828220  0.61763632  0.87440146  1
  O  O386  1  0.13167613  0.37473772  0.13598806  1
  O  O387  1  0.12911942  0.38176452  0.63029178  1
  O  O388  1  0.13458692  0.87514880  0.12854390  1
  O  O389  1  0.11881008  0.88103716  0.63709898  1
  O  O390  1  0.63062753  0.38120374  0.13116701  1
  O  O391  1  0.63053036  0.37472915  0.63213304  1
  O  O392  1  0.63114884  0.87910349  0.13208671  1
  O  O393  1  0.63186005  0.88259868  0.62556758  1
  O  O394  1  0.11675909  0.25823215  0.25275753  1
  O  O395  1  0.12405859  0.25554599  0.75970355  1
  O  O396  1  0.11032796  0.74924785  0.24691987  1
  O  O397  1  0.12273356  0.75983060  0.75142481  1
  O  O398  1  0.62102239  0.25783400  0.25559121  1
  O  O399  1  0.61922641  0.25382309  0.75621968  1
  O  O400  1  0.62090808  0.75858679  0.24868362  1
  O  O401  1  0.61833373  0.75230875  0.75589378  1
  O  O402  1  0.38348245  0.25184413  0.24237500  1
  O  O403  1  0.38026251  0.24447190  0.74574518  1
  O  O404  1  0.38074619  0.74527171  0.24280028  1
  O  O405  1  0.38064141  0.74925790  0.73988254  1
  O  O406  1  0.88473006  0.25084548  0.24359564  1
  O  O407  1  0.87404805  0.24102367  0.74484878  1
  O  O408  1  0.88097444  0.74335795  0.24699617  1
  O  O409  1  0.87914894  0.74507115  0.74398771  1
  O  O410  1  0.37684205  0.48664634  0.50085946  1
  O  O411  1  0.38002218  0.49336172  0.99406377  1
  O  O412  1  0.38484257  0.99189231  0.50428115  1
  O  O413  1  0.37979531  0.99403049  0.99349798  1
  O  O414  1  0.86378214  0.50392546  0.47919085  1
  O  O415  1  0.87925281  0.49446649  0.99556498  1
  O  O416  1  0.88489333  0.99167944  0.50061180  1
  O  O417  1  0.88098620  0.99371288  0.99410299  1
  O  O418  1  0.11734637  0.00192456  0.00214197  1
  O  O419  1  0.11967127  -0.00262058  0.51638141  1
  O  O420  1  0.11724195  0.50542910  0.00187060  1
  O  O421  1  0.13084472  0.50805816  0.51142369  1
  O  O422  1  0.62045752  0.00412249  0.00354296  1
  O  O423  1  0.61735041  0.00532488  0.50544825  1
  O  O424  1  0.61804543  0.50023838  0.00687707  1
  O  O425  1  0.62489362  0.51072560  0.50329278  1
  O  O426  1  0.37012681  0.36945745  0.11877404  1
  O  O427  1  0.37031295  0.37007260  0.61897265  1
  O  O428  1  0.36977483  0.86858519  0.11770161  1
  O  O429  1  0.38064924  0.86429166  0.61457798  1
  O  O430  1  0.86981027  0.37048655  0.11997948  1
  O  O431  1  0.86584890  0.36555151  0.62960877  1
  O  O432  1  0.87149612  0.86996230  0.12025192  1
  O  O433  1  0.87134931  0.87649783  0.61315132  1
  O  O434  1  0.14163269  0.12361133  0.36989532  1
  O  O435  1  0.12481970  0.13664726  0.87547079  1
  O  O436  1  0.13253066  0.61753931  0.38551168  1
  O  O437  1  0.13061075  0.62517446  0.88111668  1
  O  O438  1  0.63292413  0.13211991  0.38094569  1
  O  O439  1  0.63073904  0.13025131  0.88030056  1
  O  O440  1  0.61959322  0.62644816  0.38821701  1
  O  O441  1  0.63113174  0.63167364  0.87717037  1
