# generated using pymatgen
data_V93Zn93O256
_symmetry_space_group_name_H-M   'P 1'
_cell_length_a   17.04958918
_cell_length_b   17.05045451
_cell_length_c   17.05068906
_cell_angle_alpha   90.03241646
_cell_angle_beta   89.93960655
_cell_angle_gamma   89.98842554
_symmetry_Int_Tables_number   1
_chemical_formula_structural   V93Zn93O256
_chemical_formula_sum   'V93 Zn93 O256'
_cell_volume   4956.68698704
_cell_formula_units_Z   1
loop_
 _symmetry_equiv_pos_site_id
 _symmetry_equiv_pos_as_xyz
  1  'x, y, z'
loop_
 _atom_site_type_symbol
 _atom_site_label
 _atom_site_symmetry_multiplicity
 _atom_site_fract_x
 _atom_site_fract_y
 _atom_site_fract_z
 _atom_site_occupancy
  V  V0  1  0.75057719  0.37663125  0.12541867  1
  V  V1  1  0.49863773  0.12365022  0.12236955  1
  V  V2  1  0.62620773  0.37161181  0.25125554  1
  V  V3  1  0.50452999  0.37098760  0.37330592  1
  V  V4  1  0.37454592  -0.00229484  0.37426985  1
  V  V5  1  0.37508581  0.12421903  0.24838323  1
  V  V6  1  0.12538003  0.25063660  0.37489553  1
  V  V7  1  0.74746501  0.62794530  0.37888371  1
  V  V8  1  0.75063087  -0.00457153  0.74231435  1
  V  V9  1  0.50633126  0.00079206  0.49853630  1
  V  V10  1  -0.00003197  0.75460539  0.25203572  1
  V  V11  1  0.00000815  0.62636845  0.12558647  1
  V  V12  1  0.49811707  0.87319222  0.37379206  1
  V  V13  1  0.75100725  0.25184958  -0.00138499  1
  V  V14  1  0.87499796  0.50219164  0.37709304  1
  V  V15  1  0.12623006  0.37640793  0.25148998  1
  V  V16  1  0.37511814  0.12322157  0.74942915  1
  V  V17  1  0.37519577  0.24985999  0.12500218  1
  V  V18  1  0.74918789  0.75473087  0.00460412  1
  V  V19  1  0.37042953  0.62178576  0.24848226  1
  V  V20  1  -0.00007906  0.50154482  0.00203612  1
  V  V21  1  0.25048264  0.37833781  0.12829682  1
  V  V22  1  0.62861056  0.87466248  0.74278995  1
  V  V23  1  -0.00008573  0.50125637  0.50073504  1
  V  V24  1  0.63351706  0.87374678  0.24444517  1
  V  V25  1  0.12549316  0.37449121  0.75124692  1
  V  V26  1  0.86801575  0.75656455  0.62625242  1
  V  V27  1  -0.00105582  0.75144504  0.75130298  1
  V  V28  1  0.75107364  0.62515879  0.87748424  1
  V  V29  1  0.50478173  0.24687316  0.25235802  1
  V  V30  1  0.00053390  0.87618234  0.87600622  1
  V  V31  1  0.62460408  0.50142624  0.62519732  1
  V  V32  1  0.12541318  0.00635743  0.12352744  1
  V  V33  1  0.12418230  0.87463379  0.75070193  1
  V  V34  1  0.24964685  0.87629810  0.12380656  1
  V  V35  1  0.49865586  0.37272386  0.87547073  1
  V  V36  1  0.12359415  0.75041031  0.37513443  1
  V  V37  1  0.25141762  0.37295394  0.62463598  1
  V  V38  1  0.37484005  0.87334569  -0.00107370  1
  V  V39  1  0.24970076  0.00000424  0.24904266  1
  V  V40  1  0.87522185  0.00135383  0.87500142  1
  V  V41  1  0.86964525  0.87645352  0.50165394  1
  V  V42  1  0.87592335  0.62655990  0.75041931  1
  V  V43  1  0.24995535  0.49898933  0.74997744  1
  V  V44  1  0.25115366  0.12490623  0.37463792  1
  V  V45  1  0.24670461  0.12464281  0.88037687  1
  V  V46  1  0.37587345  0.62412094  0.75007749  1
  V  V47  1  0.37618084  0.24850914  0.62294553  1
  V  V48  1  0.24733062  0.62574225  0.87728142  1
  V  V49  1  0.24976099  0.62265593  0.37361060  1
  V  V50  1  0.87074791  0.87788194  0.00636961  1
  V  V51  1  0.87597851  0.50032504  0.87534085  1
  V  V52  1  0.62450702  0.74955231  0.37389809  1
  V  V53  1  0.62415323  0.62568287  0.00107683  1
  V  V54  1  0.74853717  0.50006948  0.25054714  1
  V  V55  1  0.24831332  0.74934247  0.50030509  1
  V  V56  1  0.49989959  0.49980112  0.00026214  1
  V  V57  1  0.74234100  0.24109828  0.49612626  1
  V  V58  1  0.87744794  0.25013287  0.62613019  1
  V  V59  1  0.37472217  0.37350846  0.00073673  1
  V  V60  1  0.50008327  0.50040325  0.49953991  1
  V  V61  1  0.62505924  0.37570473  0.75080284  1
  V  V62  1  0.49998677  0.87302012  0.87174767  1
  V  V63  1  0.75032324  0.12523299  0.87359721  1
  V  V64  1  0.50118022  0.24791200  0.74832068  1
  V  V65  1  0.87321016  0.75400412  0.12645457  1
  V  V66  1  0.50896277  0.12159578  0.62160893  1
  V  V67  1  0.12769474  0.50183529  0.12951439  1
  V  V68  1  0.12510263  0.49988276  0.62435676  1
  V  V69  1  -0.00179552  0.12764263  0.12947816  1
  V  V70  1  0.12414821  0.62446825  0.50059856  1
  V  V71  1  0.63307329  -0.00543393  0.12295259  1
  V  V72  1  0.86897709  0.00913633  0.37335867  1
  V  V73  1  0.74996338  0.50034625  0.75058864  1
  V  V74  1  0.37310380  0.74960357  0.12421792  1
  V  V75  1  0.62470701  0.12354809  -0.00256388  1
  V  V76  1  0.12487739  0.00085638  0.62340773  1
  V  V77  1  0.24919863  0.87395672  0.62540907  1
  V  V78  1  0.25060771  -0.00008590  0.74965900  1
  V  V79  1  0.49868353  0.74892026  0.24871615  1
  V  V80  1  0.87429995  0.37572813  0.00120035  1
  V  V81  1  0.12605953  0.24754872  0.88136358  1
  V  V82  1  0.00367873  0.00642416  0.00095538  1
  V  V83  1  0.37117848  0.49876468  0.37041701  1
  V  V84  1  0.25284528  0.24886034  0.50035160  1
  V  V85  1  0.00144055  0.37503733  0.87561696  1
  V  V86  1  0.87364161  0.62705217  0.25135791  1
  V  V87  1  0.37517017  0.74884580  0.62467049  1
  V  V88  1  0.12562866  0.12407657  0.50128576  1
  V  V89  1  0.50074573  -0.00205415  -0.00194310  1
  V  V90  1  0.87414763  0.37667838  0.50122866  1
  V  V91  1  0.62496156  0.24903119  0.87368669  1
  V  V92  1  0.87621719  0.12559099  0.74937290  1
  Zn  Zn93  1  0.24766156  0.24543049  0.00336591  1
  Zn  Zn94  1  -0.00268017  0.24994203  0.25345556  1
  Zn  Zn95  1  0.74402490  0.75699722  0.50700435  1
  Zn  Zn96  1  0.12485186  0.87683258  0.25125908  1
  Zn  Zn97  1  0.37316779  0.49779002  0.87490141  1
  Zn  Zn98  1  0.49783758  0.62406766  0.12456373  1
  Zn  Zn99  1  0.63252267  -0.00271576  0.61682414  1
  Zn  Zn100  1  0.37553316  0.37259040  0.49760483  1
  Zn  Zn101  1  0.87597767  0.25077568  0.12886482  1
  Zn  Zn102  1  0.00229441  0.12408271  0.62599489  1
  Zn  Zn103  1  0.37386342  -0.00027515  0.87417467  1
  Zn  Zn104  1  0.86274669  0.13448608  0.25480785  1
  Zn  Zn105  1  0.68301305  0.17687937  0.34378964  1
  Zn  Zn106  1  0.00084227  0.87916357  0.37762328  1
  Zn  Zn107  1  -0.00056146  0.00123680  0.49844064  1
  Zn  Zn108  1  0.62410792  0.50001435  0.12694187  1
  Zn  Zn109  1  -0.00029357  0.62696873  0.62611039  1
  Zn  Zn110  1  0.49959133  0.62503259  0.62517094  1
  Zn  Zn111  1  0.12445272  0.62846553  0.00132911  1
  Zn  Zn112  1  0.74559530  0.01074099  0.25302733  1
  Zn  Zn113  1  0.62397945  0.62863151  0.50210267  1
  Zn  Zn114  1  0.62604193  0.75055794  0.87325752  1
  Zn  Zn115  1  0.50416120  0.74854341  0.74785053  1
  Zn  Zn116  1  0.12348962  0.75061425  0.87826341  1
  Zn  Zn117  1  0.00144739  0.24880190  0.75137759  1
  Zn  Zn118  1  0.37407095  0.87427453  0.49913171  1
  Zn  Zn119  1  0.74937224  0.37460873  0.62541607  1
  Zn  Zn120  1  0.00027025  0.37500248  0.37369162  1
  Zn  Zn121  1  0.24603057  0.75103335  -0.00012911  1
  Zn  Zn122  1  0.18637187  0.18928130  0.18810576  1
  Zn  Zn123  1  0.18798333  0.18744424  0.69075258  1
  Zn  Zn124  1  0.18802340  0.68890855  0.18820264  1
  Zn  Zn125  1  0.18635160  0.68758246  0.68922918  1
  Zn  Zn126  1  0.68631626  0.18797773  0.17732155  1
  Zn  Zn127  1  0.69132377  0.18696426  0.68454709  1
  Zn  Zn128  1  0.68687638  0.68703899  0.18664479  1
  Zn  Zn129  1  0.68760582  0.68682404  0.68986851  1
  Zn  Zn130  1  0.31418353  0.31186794  0.31102424  1
  Zn  Zn131  1  0.31286300  0.30942948  0.81209649  1
  Zn  Zn132  1  0.31068846  0.81126129  0.31050435  1
  Zn  Zn133  1  0.31195533  0.81069224  0.81250636  1
  Zn  Zn134  1  0.81458775  0.31449747  0.31400272  1
  Zn  Zn135  1  0.81278410  0.31412018  0.81219226  1
  Zn  Zn136  1  0.81405392  0.81637595  0.31804322  1
  Zn  Zn137  1  0.81273239  0.81362584  0.81666650  1
  Zn  Zn138  1  0.18890644  0.43654833  0.43901282  1
  Zn  Zn139  1  0.18752292  0.43807423  0.94071598  1
  Zn  Zn140  1  0.18718230  0.93567465  0.43770421  1
  Zn  Zn141  1  0.18707011  0.93859408  0.93756033  1
  Zn  Zn142  1  0.68823284  0.43519820  0.43826985  1
  Zn  Zn143  1  0.68658556  0.43802655  0.93741050  1
  Zn  Zn144  1  0.68850106  0.93600394  0.43316194  1
  Zn  Zn145  1  0.68722399  0.93721679  0.93144481  1
  Zn  Zn146  1  0.31435055  0.05976877  0.06030399  1
  Zn  Zn147  1  0.31627699  0.06157310  0.56157404  1
  Zn  Zn148  1  0.31210426  0.56094599  0.06160896  1
  Zn  Zn149  1  0.31196642  0.56105961  0.56036035  1
  Zn  Zn150  1  0.81488182  0.06644621  0.06294449  1
  Zn  Zn151  1  0.81467841  0.06511778  0.55963973  1
  Zn  Zn152  1  0.81270269  0.56392540  0.06453935  1
  Zn  Zn153  1  0.81258566  0.56647647  0.56542887  1
  Zn  Zn154  1  0.43945559  0.43642330  0.18750324  1
  Zn  Zn155  1  0.43695473  0.43599310  0.68719591  1
  Zn  Zn156  1  0.44045032  0.93602832  0.18601869  1
  Zn  Zn157  1  0.43824607  0.93733419  0.68635265  1
  Zn  Zn158  1  0.93808203  0.43801230  0.18920364  1
  Zn  Zn159  1  0.93971432  0.43738523  0.68782375  1
  Zn  Zn160  1  0.93509396  0.94205890  0.19012543  1
  Zn  Zn161  1  0.93907878  0.93776802  0.68526418  1
  Zn  Zn162  1  0.05992929  0.06256252  0.31342775  1
  Zn  Zn163  1  0.06336009  0.06370419  0.81096297  1
  Zn  Zn164  1  0.06093198  0.56324796  0.31274415  1
  Zn  Zn165  1  0.06252331  0.56299135  0.81221183  1
  Zn  Zn166  1  0.56135748  0.05771716  0.31022698  1
  Zn  Zn167  1  0.56364325  0.05916430  0.80945605  1
  Zn  Zn168  1  0.56101781  0.56105972  0.31172688  1
  Zn  Zn169  1  0.56182295  0.56234642  0.81531047  1
  Zn  Zn170  1  0.44704146  0.18222007  0.43497231  1
  Zn  Zn171  1  0.43486875  0.18651267  0.93656122  1
  Zn  Zn172  1  0.43743132  0.68573961  0.43666880  1
  Zn  Zn173  1  0.43537784  0.68885601  0.93600487  1
  Zn  Zn174  1  0.94049933  0.18920279  0.44045879  1
  Zn  Zn175  1  0.93803649  0.18912212  0.93823217  1
  Zn  Zn176  1  0.93648463  0.68984267  0.44092014  1
  Zn  Zn177  1  0.93760225  0.68909349  0.93874841  1
  Zn  Zn178  1  0.06236251  0.31335656  0.06236742  1
  Zn  Zn179  1  0.06273208  0.31242605  0.56151787  1
  Zn  Zn180  1  0.06330925  0.81606749  0.06260508  1
  Zn  Zn181  1  0.05658644  0.81410873  0.56329466  1
  Zn  Zn182  1  0.56415058  0.31226552  0.06439519  1
  Zn  Zn183  1  0.56099461  0.31474865  0.56302355  1
  Zn  Zn184  1  0.55992516  0.81144234  0.06271496  1
  Zn  Zn185  1  0.55987719  0.81361299  0.56034507  1
  O  O186  1  0.11792507  0.11351796  0.12842811  1
  O  O187  1  0.12797541  0.11909969  0.61947588  1
  O  O188  1  0.12038672  0.61604850  0.12729771  1
  O  O189  1  0.12490938  0.61799252  0.61878124  1
  O  O190  1  0.61738233  0.11600798  0.11549625  1
  O  O191  1  0.61204001  0.12042535  0.63157866  1
  O  O192  1  0.62181005  0.62314316  0.11230592  1
  O  O193  1  0.62190004  0.61324571  0.62512928  1
  O  O194  1  0.38275524  0.38475942  0.37254046  1
  O  O195  1  0.38134880  0.37421530  0.88088209  1
  O  O196  1  0.37986986  0.87933209  0.37384100  1
  O  O197  1  0.38371800  0.87575499  0.87825746  1
  O  O198  1  0.87660326  0.38417717  0.38588207  1
  O  O199  1  0.88058705  0.38128948  0.88055310  1
  O  O200  1  0.87849632  0.88513285  0.38317298  1
  O  O201  1  0.88112447  0.88233280  0.88529241  1
  O  O202  1  0.25474565  0.00514645  0.36897939  1
  O  O203  1  0.24947878  0.00832173  0.86806766  1
  O  O204  1  0.26402050  0.50539822  0.38250122  1
  O  O205  1  0.25113679  0.50750003  0.86898108  1
  O  O206  1  0.76409563  -0.00088052  0.37427902  1
  O  O207  1  0.75622207  0.00690308  0.86680849  1
  O  O208  1  0.75437984  0.50868664  0.37072097  1
  O  O209  1  0.75597972  0.50522556  0.87076824  1
  O  O210  1  0.23997929  0.48992766  0.12065385  1
  O  O211  1  0.24502422  0.49339640  0.62921554  1
  O  O212  1  0.24272541  0.99782012  0.12850270  1
  O  O213  1  0.24611133  0.99373333  0.62977333  1
  O  O214  1  0.74910593  0.49513923  0.13274130  1
  O  O215  1  0.74047732  0.50043031  0.63136955  1
  O  O216  1  0.73544320  1.00708819  0.12581760  1
  O  O217  1  0.75047435  1.00678293  0.63832808  1
  O  O218  1  0.01354947  0.37364485  0.25076683  1
  O  O219  1  0.00702900  0.37438128  0.75857145  1
  O  O220  1  -0.00080064  0.86251207  0.24938319  1
  O  O221  1  0.00426374  0.87172307  0.75702731  1
  O  O222  1  0.50559791  0.36889876  0.25522984  1
  O  O223  1  0.50520023  0.36841246  0.75517312  1
  O  O224  1  0.50724265  0.86787259  0.25458138  1
  O  O225  1  0.50773760  0.87504419  0.75756997  1
  O  O226  1  0.49216998  0.12742315  0.23942480  1
  O  O227  1  0.49544362  0.12818593  0.74278137  1
  O  O228  1  0.48925954  0.63008449  0.24888409  1
  O  O229  1  0.48794748  0.62538300  0.75038138  1
  O  O230  1  0.99836411  0.12695265  0.23855929  1
  O  O231  1  0.99136432  0.12816227  0.74817889  1
  O  O232  1  0.99338815  0.63473875  0.24575922  1
  O  O233  1  0.99274081  0.63219392  0.75105216  1
  O  O234  1  0.37521283  0.25648171  0.00796962  1
  O  O235  1  0.37054036  0.24864975  0.50521453  1
  O  O236  1  0.37217936  0.75589868  0.00675815  1
  O  O237  1  0.36808745  0.74656485  0.50970060  1
  O  O238  1  0.86797810  0.25831733  -0.00000389  1
  O  O239  1  0.86905406  0.25865996  0.50736061  1
  O  O240  1  0.86885118  0.75887024  0.00573774  1
  O  O241  1  0.87277916  0.75783187  0.50893388  1
  O  O242  1  0.13339898  0.24523505  0.49528231  1
  O  O243  1  0.12821551  0.25650182  0.98542234  1
  O  O244  1  0.12847809  0.74417422  0.49587746  1
  O  O245  1  0.12697166  0.74702642  0.99754462  1
  O  O246  1  0.64527177  0.25999848  0.51169378  1
  O  O247  1  0.62977171  0.24384235  0.99321640  1
  O  O248  1  0.62637803  0.74862690  0.49209425  1
  O  O249  1  0.63232357  0.74322969  0.99936680  1
  O  O250  1  0.49522487  0.24370429  0.13052536  1
  O  O251  1  0.49685044  0.24170855  0.62858575  1
  O  O252  1  0.49095566  0.74684126  0.13035930  1
  O  O253  1  0.48777834  0.74599638  0.62546014  1
  O  O254  1  1.00088657  0.23773266  0.12233370  1
  O  O255  1  0.98822292  0.25030844  0.62711415  1
  O  O256  1  0.99417598  0.74650690  0.13346122  1
  O  O257  1  0.98876230  0.74867127  0.63386662  1
  O  O258  1  0.01063885  0.25478005  0.37560478  1
  O  O259  1  0.00877664  0.25617780  0.87513141  1
  O  O260  1  0.00415876  0.74854746  0.36522081  1
  O  O261  1  -0.00144500  0.75846272  0.86920504  1
  O  O262  1  0.48880969  0.26560296  0.36824696  1
  O  O263  1  0.50588140  0.25282724  0.86846669  1
  O  O264  1  0.50438858  0.75328672  0.36903267  1
  O  O265  1  0.50125279  0.76162968  0.87224061  1
  O  O266  1  0.24639096  0.12959199  0.49378715  1
  O  O267  1  0.25622220  0.12490832  0.98486588  1
  O  O268  1  0.24371550  0.62978458  0.49388301  1
  O  O269  1  0.24982844  0.62451489  0.98833670  1
  O  O270  1  0.75196856  0.14176762  0.50290711  1
  O  O271  1  0.74476810  0.13069203  0.99301548  1
  O  O272  1  0.74782353  0.62628558  0.48777225  1
  O  O273  1  0.74317123  0.63179139  0.99673652  1
  O  O274  1  0.25631227  0.37351607  0.01143240  1
  O  O275  1  0.25281755  0.36717236  0.50682362  1
  O  O276  1  0.25726462  0.87636880  0.00588169  1
  O  O277  1  0.25224272  0.86682205  0.50715652  1
  O  O278  1  0.75450475  0.37191067  0.00402525  1
  O  O279  1  0.76279435  0.37196512  0.50327183  1
  O  O280  1  0.75980367  0.86707396  -0.00798974  1
  O  O281  1  0.76357634  0.87391002  0.49582442  1
  O  O282  1  0.11973351  0.49183171  0.23905807  1
  O  O283  1  0.13045008  0.49433886  0.74429709  1
  O  O284  1  0.13121108  0.99927137  0.24136590  1
  O  O285  1  0.13105753  0.99430928  0.74373696  1
  O  O286  1  0.63042494  0.49305842  0.24814834  1
  O  O287  1  0.62854706  0.49651379  0.74447477  1
  O  O288  1  0.62353026  0.98982316  0.23997686  1
  O  O289  1  0.63510220  0.99186833  0.74851868  1
  O  O290  1  0.37027891  0.00501492  0.25302021  1
  O  O291  1  0.36798444  0.00506971  0.75024493  1
  O  O292  1  0.38315644  0.50943644  0.25969165  1
  O  O293  1  0.36937668  0.50844268  0.74997102  1
  O  O294  1  0.86950257  0.00207567  0.26250643  1
  O  O295  1  0.86880558  0.00358331  0.75515308  1
  O  O296  1  0.86978096  0.50702147  0.25690150  1
  O  O297  1  0.87041697  0.50523092  0.75572248  1
  O  O298  1  0.12782047  0.37165619  0.36561401  1
  O  O299  1  0.12169002  0.36924781  0.87060607  1
  O  O300  1  0.12197000  0.86641157  0.37180746  1
  O  O301  1  0.11796027  0.87569198  0.86830768  1
  O  O302  1  0.61208259  0.38213658  0.36842786  1
  O  O303  1  0.61884996  0.36878737  0.87034408  1
  O  O304  1  0.61816363  0.86892362  0.36438521  1
  O  O305  1  0.61551188  0.87366368  0.86565718  1
  O  O306  1  0.37898143  0.12943201  0.12825521  1
  O  O307  1  0.38338737  0.12962363  0.63136426  1
  O  O308  1  0.37378461  0.62859409  0.13347364  1
  O  O309  1  0.37243999  0.63142969  0.63379203  1
  O  O310  1  0.88422867  0.12625334  0.13105147  1
  O  O311  1  0.87705696  0.13515017  0.63053968  1
  O  O312  1  0.87989627  0.63264053  0.13219738  1
  O  O313  1  0.87754163  0.63441483  0.63302169  1
  O  O314  1  0.25511866  0.25869241  0.12314388  1
  O  O315  1  0.25629400  0.25375326  0.62067328  1
  O  O316  1  0.25576958  0.75780059  0.12436056  1
  O  O317  1  0.25653501  0.75352321  0.62062290  1
  O  O318  1  0.75186986  0.25870206  0.11451645  1
  O  O319  1  0.76241264  0.25329213  0.61801291  1
  O  O320  1  0.75625189  0.74477134  0.11190264  1
  O  O321  1  0.76326088  0.74398979  0.62491037  1
  O  O322  1  0.24663562  0.24420983  0.37949987  1
  O  O323  1  0.24326369  0.24204193  0.87590624  1
  O  O324  1  0.24420683  0.74331618  0.38024524  1
  O  O325  1  0.24764841  0.73835626  0.87535665  1
  O  O326  1  0.75161909  0.25554551  0.39078578  1
  O  O327  1  0.74405692  0.24530328  0.87868686  1
  O  O328  1  0.74387795  0.74042774  0.37430188  1
  O  O329  1  0.75119965  0.74339693  0.88875083  1
  O  O330  1  -0.00860892  0.11202933  0.00932128  1
  O  O331  1  0.01167850  0.12388365  0.50447446  1
  O  O332  1  -0.00071916  0.61929986  0.00803262  1
  O  O333  1  0.00656959  0.61912286  0.50175070  1
  O  O334  1  0.50522995  0.11886466  0.00223882  1
  O  O335  1  0.49258390  0.11253706  0.51238178  1
  O  O336  1  0.50669209  0.61728902  -0.00252583  1
  O  O337  1  0.50234653  0.61155735  0.50007807  1
  O  O338  1  0.49852437  0.38347081  0.49121444  1
  O  O339  1  0.49636070  0.38119071  0.99575026  1
  O  O340  1  0.49452689  0.88196683  0.49256438  1
  O  O341  1  0.49589382  0.87807904  0.99044098  1
  O  O342  1  0.98955165  0.38168933  0.49966702  1
  O  O343  1  0.99423648  0.38218972  0.99570650  1
  O  O344  1  0.98660474  0.87826563  0.49812404  1
  O  O345  1  0.99031778  0.88580276  0.99646808  1
  O  O346  1  0.49197868  0.49256019  0.38145557  1
  O  O347  1  0.49872477  0.49226839  0.88531843  1
  O  O348  1  0.49249714  0.99137775  0.38073364  1
  O  O349  1  0.49959518  0.98938326  0.87934847  1
  O  O350  1  0.99266396  0.49986935  0.38241247  1
  O  O351  1  0.99536555  0.49518862  0.88136430  1
  O  O352  1  0.98755852  0.99782955  0.37587795  1
  O  O353  1  0.99580888  0.99778115  0.88336441  1
  O  O354  1  0.00603319  0.00705640  0.12031254  1
  O  O355  1  0.01034285  0.00251004  0.62237318  1
  O  O356  1  0.00694533  0.50648968  0.12174877  1
  O  O357  1  0.00759056  0.50220593  0.61916701  1
  O  O358  1  0.50855313  0.00441570  0.11723840  1
  O  O359  1  0.50044973  0.00552083  0.61599262  1
  O  O360  1  0.50145668  0.50092360  0.11161766  1
  O  O361  1  0.50650726  0.49916356  0.61642787  1
  O  O362  1  0.24062221  0.37078955  0.23854426  1
  O  O363  1  0.24602163  0.37958176  0.74471710  1
  O  O364  1  0.24936756  0.88259707  0.24180842  1
  O  O365  1  0.24441919  0.87952584  0.74522797  1
  O  O366  1  0.74526850  0.38106635  0.24624834  1
  O  O367  1  0.74290068  0.38285211  0.74957402  1
  O  O368  1  0.73497785  0.87460221  0.25374036  1
  O  O369  1  0.74163028  0.88528241  0.75980856  1
  O  O370  1  0.25583795  0.12010880  0.25461240  1
  O  O371  1  0.25615359  0.11945209  0.75782187  1
  O  O372  1  0.26299552  0.62990186  0.25674637  1
  O  O373  1  0.25691015  0.61935062  0.75678543  1
  O  O374  1  0.74404138  0.12917698  0.25582327  1
  O  O375  1  0.75570972  0.11722406  0.75553803  1
  O  O376  1  0.75407772  0.62108596  0.25836519  1
  O  O377  1  0.75570237  0.61939042  0.75838233  1
  O  O378  1  0.37080234  0.11827271  0.36771793  1
  O  O379  1  0.36658779  0.12372231  0.86678588  1
  O  O380  1  0.37070385  0.61789453  0.36753139  1
  O  O381  1  0.36654649  0.62365876  0.86519913  1
  O  O382  1  0.87927841  0.11212321  0.37714617  1
  O  O383  1  0.86985180  0.12059226  0.87004942  1
  O  O384  1  0.86588797  0.62271730  0.37120789  1
  O  O385  1  0.87050852  0.61936836  0.87119289  1
  O  O386  1  0.13125679  0.38134653  0.13139441  1
  O  O387  1  0.13140668  0.37943190  0.63043639  1
  O  O388  1  0.12992122  0.88817991  0.12761661  1
  O  O389  1  0.13038613  0.87965191  0.63044465  1
  O  O390  1  0.63248547  0.37730269  0.13178028  1
  O  O391  1  0.62489307  0.38720593  0.63246725  1
  O  O392  1  0.61819251  0.88373620  0.13192188  1
  O  O393  1  0.61879975  0.87638230  0.63890052  1
  O  O394  1  0.12370545  0.25998803  0.25610505  1
  O  O395  1  0.12457931  0.25759002  0.76032969  1
  O  O396  1  0.11463704  0.74999079  0.25523401  1
  O  O397  1  0.11729469  0.75737808  0.75125055  1
  O  O398  1  0.61915082  0.25645758  0.24700611  1
  O  O399  1  0.62119559  0.25488557  0.75396094  1
  O  O400  1  0.61892586  0.75550293  0.25208362  1
  O  O401  1  0.62448455  0.75840811  0.75344593  1
  O  O402  1  0.38183291  0.24343055  0.24339357  1
  O  O403  1  0.38249589  0.24387637  0.74318670  1
  O  O404  1  0.37963788  0.74100504  0.24514765  1
  O  O405  1  0.37382814  0.74012491  0.74007568  1
  O  O406  1  0.88037728  0.25066196  0.24771813  1
  O  O407  1  0.87437002  0.24585594  0.74169680  1
  O  O408  1  0.88063831  0.74737444  0.24674742  1
  O  O409  1  0.87813984  0.74770017  0.74537069  1
  O  O410  1  0.38459463  0.49865793  0.49118635  1
  O  O411  1  0.38475164  0.49341041  0.99828925  1
  O  O412  1  0.38368774  0.99643009  0.49225772  1
  O  O413  1  0.38371898  0.99148406  0.99744335  1
  O  O414  1  0.87870351  0.49476148  0.49837305  1
  O  O415  1  0.87957152  0.49605053  0.99474126  1
  O  O416  1  0.87502437  0.99498458  0.49078573  1
  O  O417  1  0.88037145  0.99412413  0.99610769  1
  O  O418  1  0.11270753  -0.00512723  0.00968212  1
  O  O419  1  0.12686133  0.00670259  0.50605682  1
  O  O420  1  0.11793558  0.50081175  0.01314762  1
  O  O421  1  0.12039306  0.50462833  0.50461323  1
  O  O422  1  0.62139195  0.00291233  0.00437478  1
  O  O423  1  0.61098064  -0.01010434  0.50010018  1
  O  O424  1  0.61710780  0.50850866  -0.00003476  1
  O  O425  1  0.61713453  0.49921558  0.50855208  1
  O  O426  1  0.36760114  0.37083359  0.12299992  1
  O  O427  1  0.36972723  0.36682070  0.62327112  1
  O  O428  1  0.37023034  0.87012808  0.11937038  1
  O  O429  1  0.36860949  0.86295655  0.62608136  1
  O  O430  1  0.86907811  0.37605760  0.11833258  1
  O  O431  1  0.87412488  0.36890035  0.61826259  1
  O  O432  1  0.87979766  0.87266986  0.11280230  1
  O  O433  1  0.87832363  0.86632062  0.61767763  1
  O  O434  1  0.13246501  0.13019292  0.37991142  1
  O  O435  1  0.13519242  0.13519875  0.86751405  1
  O  O436  1  0.13054561  0.62906352  0.37981917  1
  O  O437  1  0.13553917  0.62537528  0.87604979  1
  O  O438  1  0.59116866  0.13466068  0.38135279  1
  O  O439  1  0.62977830  0.12942971  0.87831307  1
  O  O440  1  0.63291033  0.63003939  0.37390616  1
  O  O441  1  0.63079976  0.62653566  0.88586406  1
