# generated using pymatgen
data_V93Zn93O256
_symmetry_space_group_name_H-M   'P 1'
_cell_length_a   17.05743064
_cell_length_b   17.05916616
_cell_length_c   17.05362898
_cell_angle_alpha   90.02951300
_cell_angle_beta   90.06907984
_cell_angle_gamma   89.97884453
_symmetry_Int_Tables_number   1
_chemical_formula_structural   V93Zn93O256
_chemical_formula_sum   'V93 Zn93 O256'
_cell_volume   4962.35489509
_cell_formula_units_Z   1
loop_
 _symmetry_equiv_pos_site_id
 _symmetry_equiv_pos_as_xyz
  1  'x, y, z'
loop_
 _atom_site_type_symbol
 _atom_site_label
 _atom_site_symmetry_multiplicity
 _atom_site_fract_x
 _atom_site_fract_y
 _atom_site_fract_z
 _atom_site_occupancy
  V  V0  1  0.12624007  0.87542617  0.24979304  1
  V  V1  1  0.25032398  0.37511721  0.12615008  1
  V  V2  1  0.74954369  0.62460772  0.87353268  1
  V  V3  1  0.25193566  0.50022487  0.25258003  1
  V  V4  1  0.37487594  0.50033593  0.87537230  1
  V  V5  1  0.00029872  0.50062402  -0.00035235  1
  V  V6  1  0.12487742  0.12427240  0.00275026  1
  V  V7  1  0.12338307  -0.00094288  0.62664739  1
  V  V8  1  0.62533770  0.74972468  0.87272168  1
  V  V9  1  0.37480063  0.62768699  0.74466751  1
  V  V10  1  0.49941430  0.24940917  0.75067765  1
  V  V11  1  0.87757357  0.49998566  0.37431713  1
  V  V12  1  0.49915747  0.12406749  0.62375955  1
  V  V13  1  0.50045847  0.50004105  -0.00003562  1
  V  V14  1  0.87520828  0.50036962  0.87421467  1
  V  V15  1  0.25070265  0.24881726  0.50134269  1
  V  V16  1  0.74924686  -0.00024927  0.74854514  1
  V  V17  1  0.12467044  0.25301748  0.37433705  1
  V  V18  1  -0.00077598  0.25034402  0.74661673  1
  V  V19  1  0.12514534  0.50004126  0.12588997  1
  V  V20  1  0.25035847  0.24994633  0.00143321  1
  V  V21  1  0.87509629  0.00141061  0.37642344  1
  V  V22  1  0.24711509  -0.00099741  0.74958687  1
  V  V23  1  0.74934420  0.12569905  0.87449448  1
  V  V24  1  0.37462399  0.12458286  0.75080987  1
  V  V25  1  -0.00020516  0.37577026  0.87545729  1
  V  V26  1  0.37190543  0.86721314  0.00013662  1
  V  V27  1  0.87488566  0.00001215  0.87460979  1
  V  V28  1  0.25084596  0.62730921  0.87800164  1
  V  V29  1  0.74211733  0.74969175  0.49622228  1
  V  V30  1  0.12553648  0.00052188  0.12487224  1
  V  V31  1  0.87481492  0.12645442  0.74888924  1
  V  V32  1  0.49950933  0.87469261  0.87563786  1
  V  V33  1  0.37503483  -0.00120847  0.87645533  1
  V  V34  1  0.62514506  0.87526785  0.74859563  1
  V  V35  1  0.49911035  0.62109340  0.61912177  1
  V  V36  1  -0.00178408  0.74936006  0.24930540  1
  V  V37  1  0.12410518  0.50153072  0.62363483  1
  V  V38  1  0.37643763  0.24936842  0.12574078  1
  V  V39  1  0.62478612  0.00001727  0.62468595  1
  V  V40  1  0.12948353  0.62803185  0.00170263  1
  V  V41  1  0.25108016  0.37488094  0.62668180  1
  V  V42  1  0.25013452  0.12529263  0.87702243  1
  V  V43  1  0.12885129  0.75115649  0.87941879  1
  V  V44  1  0.62167561  0.49985450  0.61794021  1
  V  V45  1  0.12431670  0.25078501  0.87612249  1
  V  V46  1  0.37568285  0.37482962  0.00050213  1
  V  V47  1  -0.00006804  0.87571670  0.87575172  1
  V  V48  1  -0.00125013  0.00098616  0.50073625  1
  V  V49  1  0.50396244  0.24926165  0.25459221  1
  V  V50  1  0.37588502  -0.00258482  0.37606157  1
  V  V51  1  0.62440463  0.62410624  -0.00221500  1
  V  V52  1  0.87471952  0.12636575  0.24974929  1
  V  V53  1  0.62568603  0.87205448  0.25064833  1
  V  V54  1  -0.00192676  0.74981042  0.75127638  1
  V  V55  1  0.37939237  0.37648125  0.50105523  1
  V  V56  1  -0.00053040  0.87662338  0.37628974  1
  V  V57  1  0.37407119  0.24917984  0.62562556  1
  V  V58  1  0.86998890  0.37310809  0.50631673  1
  V  V59  1  0.12416602  0.12503015  0.50073069  1
  V  V60  1  0.74970158  0.87497487  0.12478241  1
  V  V61  1  0.74916827  0.49744358  0.74294992  1
  V  V62  1  0.25148636  0.12342750  0.37590715  1
  V  V63  1  0.50382344  0.74874451  0.25171004  1
  V  V64  1  0.87534506  0.75047208  0.12481829  1
  V  V65  1  0.87680769  0.24964119  0.12528855  1
  V  V66  1  0.75051626  0.50027432  0.24842911  1
  V  V67  1  0.62647875  0.37168191  0.25377251  1
  V  V68  1  0.49971628  0.62534835  0.12458292  1
  V  V69  1  0.87464069  0.87582254  -0.00123599  1
  V  V70  1  0.49954459  -0.00157493  0.49894290  1
  V  V71  1  0.49670402  0.74960032  0.74365478  1
  V  V72  1  0.25121470  0.86715524  0.12253881  1
  V  V73  1  0.12890808  0.74880179  0.37780589  1
  V  V74  1  0.87449668  0.62540263  0.74816065  1
  V  V75  1  0.50309850  0.37541520  0.37893893  1
  V  V76  1  0.74971135  0.25046385  -0.00100318  1
  V  V77  1  0.74579385  0.13361948  0.37605316  1
  V  V78  1  0.25022919  0.49889388  0.75076017  1
  V  V79  1  0.37857741  0.49970645  0.37915349  1
  V  V80  1  0.87453795  0.75101203  0.62174493  1
  V  V81  1  0.75053547  -0.00048799  0.25054606  1
  V  V82  1  0.74990942  0.37497440  0.12471460  1
  V  V83  1  0.50108336  0.12330679  0.12475799  1
  V  V84  1  0.62566385  0.24943125  0.87448705  1
  V  V85  1  0.74338586  0.62875066  0.37394752  1
  V  V86  1  0.25081536  -0.00089741  0.25122323  1
  V  V87  1  0.62448438  0.13013520  0.49435164  1
  V  V88  1  0.50032684  0.37451642  0.87522537  1
  V  V89  1  0.50564003  0.87068434  0.37445602  1
  V  V90  1  0.62472657  -0.00026329  0.12431194  1
  V  V91  1  0.75006382  0.74969114  -0.00110813  1
  V  V92  1  0.62853271  0.37415422  0.74390349  1
  Zn  Zn93  1  0.50055851  -0.00163734  0.00043450  1
  Zn  Zn94  1  0.37619064  0.86420433  0.51075156  1
  Zn  Zn95  1  0.12514744  0.37489045  0.75009567  1
  Zn  Zn96  1  0.12552890  0.87157782  0.75013671  1
  Zn  Zn97  1  0.00050111  0.12373246  0.12601774  1
  Zn  Zn98  1  0.74020277  0.25808402  0.50513461  1
  Zn  Zn99  1  0.62630848  0.49852928  0.12285025  1
  Zn  Zn100  1  0.00066784  0.37616177  0.37432660  1
  Zn  Zn101  1  0.87263323  0.87673182  0.49985192  1
  Zn  Zn102  1  0.12296355  0.37547173  0.25110771  1
  Zn  Zn103  1  0.12522377  0.62522533  0.49877593  1
  Zn  Zn104  1  0.74852333  0.87550432  0.62079722  1
  Zn  Zn105  1  -0.00381443  0.12801413  0.62310756  1
  Zn  Zn106  1  0.25347505  0.62775187  0.37889825  1
  Zn  Zn107  1  0.87410823  0.37697711  0.00046528  1
  Zn  Zn108  1  0.37660705  0.62566189  0.25085724  1
  Zn  Zn109  1  0.87366220  0.62460163  0.24849115  1
  Zn  Zn110  1  -0.00162383  0.62407855  0.12451640  1
  Zn  Zn111  1  0.37557298  0.12502407  0.25032467  1
  Zn  Zn112  1  0.61899757  0.62410077  0.49469714  1
  Zn  Zn113  1  0.25743178  0.74631281  0.51573332  1
  Zn  Zn114  1  0.37189145  0.74656065  0.12352448  1
  Zn  Zn115  1  0.00244954  0.25070542  0.24999708  1
  Zn  Zn116  1  -0.00079248  0.00211104  0.00136237  1
  Zn  Zn117  1  0.25975487  0.86793225  0.62722126  1
  Zn  Zn118  1  0.86192314  0.25425710  0.62839671  1
  Zn  Zn119  1  0.62478362  0.12332153  -0.00138538  1
  Zn  Zn120  1  0.00095737  0.50131913  0.49957970  1
  Zn  Zn121  1  0.00112794  0.62531863  0.62188009  1
  Zn  Zn122  1  0.18930872  0.18591465  0.18939604  1
  Zn  Zn123  1  0.18482642  0.18622859  0.68824577  1
  Zn  Zn124  1  0.18640827  0.68519933  0.19220560  1
  Zn  Zn125  1  0.18585002  0.68526742  0.69208939  1
  Zn  Zn126  1  0.68822632  0.18765786  0.18738226  1
  Zn  Zn127  1  0.68843736  0.18683760  0.68332176  1
  Zn  Zn128  1  0.68623721  0.68673090  0.18651998  1
  Zn  Zn129  1  0.68672199  0.68630032  0.68373593  1
  Zn  Zn130  1  0.31443912  0.31285491  0.31260007  1
  Zn  Zn131  1  0.31204966  0.31234175  0.81354704  1
  Zn  Zn132  1  0.31815611  0.81108809  0.31538351  1
  Zn  Zn133  1  0.31190930  0.81230253  0.81136397  1
  Zn  Zn134  1  0.81417329  0.31379175  0.31407719  1
  Zn  Zn135  1  0.81328835  0.31389200  0.81277795  1
  Zn  Zn136  1  0.81334491  0.81296356  0.31446432  1
  Zn  Zn137  1  0.81215349  0.81388890  0.81043759  1
  Zn  Zn138  1  0.19214452  0.43678879  0.44072037  1
  Zn  Zn139  1  0.18653643  0.43846580  0.93816845  1
  Zn  Zn140  1  0.18885403  0.93276081  0.44191467  1
  Zn  Zn141  1  0.18799567  0.93717487  0.94005780  1
  Zn  Zn142  1  0.69077793  0.43970432  0.43400588  1
  Zn  Zn143  1  0.68784818  0.43669004  0.93495242  1
  Zn  Zn144  1  0.68807718  0.93993483  0.43802144  1
  Zn  Zn145  1  0.68670788  0.93839093  0.93735488  1
  Zn  Zn146  1  0.31375108  0.05819512  0.06324453  1
  Zn  Zn147  1  0.31213166  0.05792690  0.56202369  1
  Zn  Zn148  1  0.31244844  0.56200250  0.06376143  1
  Zn  Zn149  1  0.30853157  0.56438109  0.55944464  1
  Zn  Zn150  1  0.81137295  0.06360317  0.06126278  1
  Zn  Zn151  1  0.81149058  0.06695688  0.56367155  1
  Zn  Zn152  1  0.81400922  0.56343038  0.06299109  1
  Zn  Zn153  1  0.81145970  0.56437073  0.55898831  1
  Zn  Zn154  1  0.43819627  0.43744825  0.18899112  1
  Zn  Zn155  1  0.43878609  0.43887806  0.68788419  1
  Zn  Zn156  1  0.43558059  0.93619837  0.18859307  1
  Zn  Zn157  1  0.43743400  0.93825053  0.68761420  1
  Zn  Zn158  1  0.94041456  0.43465614  0.18998882  1
  Zn  Zn159  1  0.93939981  0.43715951  0.68792827  1
  Zn  Zn160  1  0.93832041  0.93833895  0.18749364  1
  Zn  Zn161  1  0.93818271  0.93643335  0.68782813  1
  Zn  Zn162  1  0.06175590  0.06500266  0.31153908  1
  Zn  Zn163  1  0.06081030  0.06487715  0.81486522  1
  Zn  Zn164  1  0.06329455  0.56525041  0.31190716  1
  Zn  Zn165  1  0.06279648  0.56372361  0.81095363  1
  Zn  Zn166  1  0.56384340  0.05931542  0.31134884  1
  Zn  Zn167  1  0.56229861  0.06184557  0.81233544  1
  Zn  Zn168  1  0.56348204  0.55785293  0.31003852  1
  Zn  Zn169  1  0.56211661  0.56145684  0.80989200  1
  Zn  Zn170  1  0.43751771  0.18759177  0.43699960  1
  Zn  Zn171  1  0.43776268  0.18656794  0.93881335  1
  Zn  Zn172  1  0.43643021  0.68741928  0.43649282  1
  Zn  Zn173  1  0.43836092  0.68800823  0.93442504  1
  Zn  Zn174  1  0.93725474  0.18824096  0.43733267  1
  Zn  Zn175  1  0.93818252  0.18725682  0.93857166  1
  Zn  Zn176  1  0.93812954  0.68374035  0.43894486  1
  Zn  Zn177  1  0.93939675  0.68697354  0.93741735  1
  Zn  Zn178  1  0.06199232  0.31445363  0.06250180  1
  Zn  Zn179  1  0.05975496  0.31923654  0.55933276  1
  Zn  Zn180  1  0.06193460  0.81459225  0.06218961  1
  Zn  Zn181  1  0.06456968  0.81376852  0.56342708  1
  Zn  Zn182  1  0.56488590  0.31126645  0.06411982  1
  Zn  Zn183  1  0.56167170  0.31091451  0.56415906  1
  Zn  Zn184  1  0.56132032  0.81159995  0.06229793  1
  Zn  Zn185  1  0.56093219  0.81214768  0.56245022  1
  O  O186  1  0.12647126  0.11876868  0.11999608  1
  O  O187  1  0.12193048  0.11607181  0.61968795  1
  O  O188  1  0.12466614  0.62023627  0.11670001  1
  O  O189  1  0.12435241  0.61061138  0.62707517  1
  O  O190  1  0.61636306  0.11956167  0.12509217  1
  O  O191  1  0.61738339  0.11848630  0.61677950  1
  O  O192  1  0.61529021  0.62292776  0.11663461  1
  O  O193  1  0.61550868  0.61534763  0.62582513  1
  O  O194  1  0.38353946  0.38003562  0.38024789  1
  O  O195  1  0.38066353  0.37961063  0.88083023  1
  O  O196  1  0.38872079  0.88754513  0.36952968  1
  O  O197  1  0.37872872  0.87844334  0.88143532  1
  O  O198  1  0.87557039  0.38601517  0.38095541  1
  O  O199  1  0.88099050  0.38343565  0.87651854  1
  O  O200  1  0.88185436  0.88401335  0.37570179  1
  O  O201  1  0.87897165  0.88003411  0.87946463  1
  O  O202  1  0.25791551  0.00293035  0.37155071  1
  O  O203  1  0.25383002  0.00603071  0.86824032  1
  O  O204  1  0.26012839  0.49669057  0.36627684  1
  O  O205  1  0.25590074  0.50583139  0.87101927  1
  O  O206  1  0.75581875  0.00771973  0.36872661  1
  O  O207  1  0.75454465  0.00533877  0.86848708  1
  O  O208  1  0.75870640  0.50822425  0.36772151  1
  O  O209  1  0.75377275  0.50563982  0.86455571  1
  O  O210  1  0.24669483  0.49472911  0.13318641  1
  O  O211  1  0.24479715  0.49400313  0.63147597  1
  O  O212  1  0.24567392  0.99104094  0.13192127  1
  O  O213  1  0.24035127  1.00456188  0.63660224  1
  O  O214  1  0.75003875  0.49359333  0.13041583  1
  O  O215  1  0.74091420  0.50814590  0.63808862  1
  O  O216  1  0.74552380  0.99436269  0.13092558  1
  O  O217  1  0.74293649  0.99941020  0.63102855  1
  O  O218  1  0.00574621  0.36854532  0.25640783  1
  O  O219  1  0.00103458  0.36594929  0.75738198  1
  O  O220  1  0.00557985  0.86801012  0.25506009  1
  O  O221  1  0.00179442  0.86818962  0.75875960  1
  O  O222  1  0.50735410  0.36747756  0.25548469  1
  O  O223  1  0.50670768  0.36936429  0.75637113  1
  O  O224  1  0.50552733  0.86781644  0.25431760  1
  O  O225  1  0.50452318  0.86659451  0.75547203  1
  O  O226  1  0.50180079  0.13336208  0.24272003  1
  O  O227  1  0.49404920  0.12988495  0.74459515  1
  O  O228  1  0.50329572  0.63061212  0.24088826  1
  O  O229  1  0.49308637  0.63101807  0.74438163  1
  O  O230  1  0.99071692  0.12962717  0.24723520  1
  O  O231  1  0.99350573  0.13620466  0.75207631  1
  O  O232  1  0.99793021  0.63902723  0.24706325  1
  O  O233  1  0.99113156  0.63201175  0.74915435  1
  O  O234  1  0.37015198  0.25553093  0.00540703  1
  O  O235  1  0.37050240  0.25404277  0.50694108  1
  O  O236  1  0.37883429  0.76275182  -0.00010053  1
  O  O237  1  0.36313473  0.75799812  0.47496782  1
  O  O238  1  0.86846743  0.25144155  0.00894177  1
  O  O239  1  0.87707746  0.26572451  0.49933721  1
  O  O240  1  0.86904911  0.75540715  0.00355760  1
  O  O241  1  0.86712524  0.75043056  0.50872499  1
  O  O242  1  0.13138223  0.24548901  0.49469815  1
  O  O243  1  0.13180751  0.24518779  0.99636277  1
  O  O244  1  0.12096677  0.75268125  0.48355657  1
  O  O245  1  0.11792481  0.74004319  0.99028697  1
  O  O246  1  0.62055223  0.23382503  0.50220086  1
  O  O247  1  0.63112265  0.24887612  0.99218278  1
  O  O248  1  0.63837161  0.74625150  0.50669424  1
  O  O249  1  0.63027932  0.74468199  0.99265535  1
  O  O250  1  0.49653003  0.24279297  0.13320710  1
  O  O251  1  0.49305929  0.24354783  0.63168889  1
  O  O252  1  0.49868547  0.74006977  0.13089270  1
  O  O253  1  0.50692582  0.73967364  0.63850422  1
  O  O254  1  0.98724151  0.24926790  0.12472159  1
  O  O255  1  1.00084849  0.25215424  0.63874585  1
  O  O256  1  0.99478355  0.75267647  0.13444592  1
  O  O257  1  0.99111947  0.75065496  0.63171663  1
  O  O258  1  0.01512437  0.24867518  0.37541783  1
  O  O259  1  0.00436231  0.25554738  0.86800170  1
  O  O260  1  0.00451352  0.75568058  0.36580775  1
  O  O261  1  0.00637525  0.75576675  0.87100885  1
  O  O262  1  0.49345474  0.25916299  0.36248637  1
  O  O263  1  0.50437558  0.25445875  0.86992705  1
  O  O264  1  0.49892037  0.76056258  0.36408711  1
  O  O265  1  0.50647517  0.75377041  0.86438382  1
  O  O266  1  0.24485754  0.12940853  0.49560946  1
  O  O267  1  0.24686273  0.13056356  0.99626337  1
  O  O268  1  0.24321688  0.63003556  0.49496103  1
  O  O269  1  0.23786222  0.61912923  0.99487536  1
  O  O270  1  0.73967740  0.12329777  0.49055367  1
  O  O271  1  0.74762482  0.13223974  0.99202725  1
  O  O272  1  0.74759850  0.63257917  0.49069274  1
  O  O273  1  0.74436558  0.63005289  0.99338082  1
  O  O274  1  0.25656836  0.37009576  0.00534202  1
  O  O275  1  0.25963819  0.36724094  0.50790570  1
  O  O276  1  0.25947539  0.87976787  0.01120216  1
  O  O277  1  0.25482245  0.87251819  0.50679718  1
  O  O278  1  0.75085285  0.36911932  0.00549482  1
  O  O279  1  0.76496241  0.37334927  0.49017178  1
  O  O280  1  0.75442609  0.86853317  0.00436977  1
  O  O281  1  0.75188528  0.86555747  0.49929347  1
  O  O282  1  0.13577570  0.49959191  0.24577055  1
  O  O283  1  0.13298778  0.49798652  0.74384873  1
  O  O284  1  0.13077374  0.99441006  0.24609676  1
  O  O285  1  0.13234115  1.00383729  0.74474036  1
  O  O286  1  0.63156672  0.48797337  0.24532144  1
  O  O287  1  0.63099591  0.49255050  0.74388775  1
  O  O288  1  0.63148078  0.99273569  0.24292349  1
  O  O289  1  0.62911311  0.99507720  0.74450235  1
  O  O290  1  0.37027686  0.00180645  0.25977617  1
  O  O291  1  0.36614978  0.00649883  0.75646209  1
  O  O292  1  0.36743358  0.49770606  0.25851249  1
  O  O293  1  0.37140655  0.50767413  0.75698479  1
  O  O294  1  0.86917412  0.00611521  0.25484274  1
  O  O295  1  0.86934515  0.00548315  0.75526346  1
  O  O296  1  0.86844952  0.50034683  0.25744127  1
  O  O297  1  0.86638100  0.50391626  0.75296204  1
  O  O298  1  0.12808748  0.36284081  0.37736401  1
  O  O299  1  0.11909756  0.36835303  0.87452230  1
  O  O300  1  0.11862849  0.86959850  0.36807307  1
  O  O301  1  0.12016596  0.86617428  0.87724824  1
  O  O302  1  0.61671104  0.38166157  0.36416399  1
  O  O303  1  0.61900178  0.37002759  0.86447079  1
  O  O304  1  0.61255236  0.88490988  0.36661630  1
  O  O305  1  0.61970818  0.86937087  0.86897170  1
  O  O306  1  0.38489532  0.12941223  0.12680839  1
  O  O307  1  0.37953917  0.12901191  0.63038577  1
  O  O308  1  0.38712487  0.62618747  0.12489817  1
  O  O309  1  0.38322550  0.61486746  0.63798212  1
  O  O310  1  0.87265296  0.13438364  0.13071163  1
  O  O311  1  0.87777208  0.13030301  0.63391315  1
  O  O312  1  0.87758783  0.63497473  0.12707181  1
  O  O313  1  0.87476596  0.63520220  0.63015500  1
  O  O314  1  0.25662011  0.25453494  0.12069534  1
  O  O315  1  0.25537909  0.25353320  0.62189132  1
  O  O316  1  0.25130708  0.76347805  0.13430711  1
  O  O317  1  0.22614906  0.76001567  0.62462801  1
  O  O318  1  0.75728076  0.25455647  0.11986104  1
  O  O319  1  0.74928421  0.25114145  0.61854051  1
  O  O320  1  0.75437286  0.75547702  0.11857609  1
  O  O321  1  0.75806209  0.75005004  0.61664951  1
  O  O322  1  0.24604080  0.24435238  0.38173917  1
  O  O323  1  0.24573442  0.24487594  0.88166625  1
  O  O324  1  0.23409614  0.75001052  0.36221544  1
  O  O325  1  0.23738867  0.74370742  0.86859427  1
  O  O326  1  0.75337340  0.23594221  0.37784036  1
  O  O327  1  0.74501432  0.24555064  0.87839788  1
  O  O328  1  0.75720525  0.73958030  0.38325096  1
  O  O329  1  0.74511878  0.74446295  0.87887216  1
  O  O330  1  0.00894239  0.12312519  0.00336287  1
  O  O331  1  0.00647371  0.11906127  0.50112865  1
  O  O332  1  0.01168884  0.61906106  0.00023210  1
  O  O333  1  0.00577916  0.61918457  0.50456100  1
  O  O334  1  0.50199269  0.12363490  0.01304578  1
  O  O335  1  0.50572216  0.11903803  0.50298288  1
  O  O336  1  0.50437111  0.62085374  0.00541005  1
  O  O337  1  0.50146007  0.63301944  0.51497366  1
  O  O338  1  0.49572592  0.36554928  0.48686262  1
  O  O339  1  0.49556793  0.37905805  0.99539801  1
  O  O340  1  0.50183432  0.87997446  0.48933177  1
  O  O341  1  0.49162992  0.87607599  0.99376692  1
  O  O342  1  0.98730759  0.38150024  0.49322092  1
  O  O343  1  0.99797513  0.38295960  0.99309502  1
  O  O344  1  0.99787920  0.88378022  0.49332099  1
  O  O345  1  0.99189515  0.87715339  0.99337296  1
  O  O346  1  0.49043093  0.48621492  0.36655669  1
  O  O347  1  0.49479243  0.49455390  0.87960733  1
  O  O348  1  0.49352315  0.99357394  0.37802917  1
  O  O349  1  0.49290553  0.99277603  0.87424898  1
  O  O350  1  0.98759662  0.50263013  0.37323292  1
  O  O351  1  0.99500864  0.49600412  0.87842775  1
  O  O352  1  0.99514041  0.99675321  0.38011767  1
  O  O353  1  0.99266706  0.99399399  0.87632607  1
  O  O354  1  0.00956254  0.00101957  0.12296033  1
  O  O355  1  0.00699947  0.00372693  0.62107096  1
  O  O356  1  0.00698308  0.50132572  0.11949223  1
  O  O357  1  0.01301727  0.49979559  0.62702187  1
  O  O358  1  0.50496529  0.00913404  0.12806033  1
  O  O359  1  0.50510449  0.00670871  0.61966978  1
  O  O360  1  0.50082301  0.50882700  0.11918543  1
  O  O361  1  0.50963642  0.51015691  0.63203693  1
  O  O362  1  0.25023370  0.38419722  0.24427440  1
  O  O363  1  0.25073101  0.38081267  0.74451380  1
  O  O364  1  0.24631051  0.88113382  0.24289566  1
  O  O365  1  0.24673613  0.89000255  0.75305705  1
  O  O366  1  0.74237870  0.37819993  0.24658982  1
  O  O367  1  0.73845202  0.38491030  0.75593842  1
  O  O368  1  0.74554459  0.87901631  0.24486381  1
  O  O369  1  0.74214209  0.88183693  0.74806246  1
  O  O370  1  0.25342114  0.11703733  0.25783507  1
  O  O371  1  0.25482668  0.11852317  0.75702525  1
  O  O372  1  0.25491543  0.61177710  0.25160275  1
  O  O373  1  0.25937763  0.61912470  0.75687614  1
  O  O374  1  0.75299280  0.11952522  0.25732600  1
  O  O375  1  0.75433666  0.11925196  0.75584209  1
  O  O376  1  0.74994710  0.62054827  0.25667618  1
  O  O377  1  0.75362850  0.61740135  0.75507414  1
  O  O378  1  0.37081545  0.11467862  0.37393600  1
  O  O379  1  0.36996370  0.12016360  0.87091296  1
  O  O380  1  0.37761706  0.61003602  0.37119698  1
  O  O381  1  0.37139673  0.61933761  0.86768586  1
  O  O382  1  0.86620723  0.12057145  0.37022385  1
  O  O383  1  0.86876723  0.12014893  0.86932965  1
  O  O384  1  0.86463201  0.61577885  0.37287918  1
  O  O385  1  0.86890645  0.62031600  0.86857272  1
  O  O386  1  0.13350503  0.38202242  0.12512841  1
  O  O387  1  0.13333001  0.38269100  0.62736301  1
  O  O388  1  0.13347908  0.87948698  0.12888147  1
  O  O389  1  0.12163458  0.89279257  0.62995107  1
  O  O390  1  0.63093663  0.37607822  0.13497851  1
  O  O391  1  0.61423089  0.38349073  0.63749383  1
  O  O392  1  0.63104039  0.87950760  0.12942838  1
  O  O393  1  0.62418204  0.88250927  0.63144698  1
  O  O394  1  0.12861634  0.25105272  0.26240079  1
  O  O395  1  0.11652366  0.25016413  0.75778326  1
  O  O396  1  0.11449845  0.75586744  0.25456760  1
  O  O397  1  0.11573035  0.74903363  0.76471456  1
  O  O398  1  0.61593582  0.26037631  0.24496835  1
  O  O399  1  0.61921657  0.25706144  0.75367692  1
  O  O400  1  0.61301351  0.75696383  0.24300585  1
  O  O401  1  0.61785834  0.75407041  0.75421728  1
  O  O402  1  0.38580580  0.24914901  0.24345987  1
  O  O403  1  0.37956605  0.24393952  0.74582027  1
  O  O404  1  0.39020547  0.74713960  0.24678977  1
  O  O405  1  0.38512484  0.73799664  0.75799770  1
  O  O406  1  0.87249965  0.24441777  0.24000862  1
  O  O407  1  0.88363185  0.24642119  0.75048354  1
  O  O408  1  0.88431911  0.75231645  0.24428580  1
  O  O409  1  0.87711873  0.74512356  0.74199377  1
  O  O410  1  0.36890212  0.49134079  0.48804909  1
  O  O411  1  0.38052183  0.49429862  0.99461153  1
  O  O412  1  0.38210881  1.00066687  0.48853206  1
  O  O413  1  0.37746098  0.98901790  0.99341757  1
  O  O414  1  0.87261587  0.49135958  0.49123971  1
  O  O415  1  0.88170684  0.50097404  0.99219668  1
  O  O416  1  0.88047973  1.00108361  0.49454609  1
  O  O417  1  0.87362208  0.99346538  0.99258431  1
  O  O418  1  0.12557639  0.00716441  0.00699845  1
  O  O419  1  0.11970276  0.00581747  0.50797122  1
  O  O420  1  0.12029539  0.50865377  0.00505704  1
  O  O421  1  0.12633889  0.49807106  0.51213359  1
  O  O422  1  0.62160979  0.00218420  0.00813120  1
  O  O423  1  0.61851861  0.00837371  0.50518412  1
  O  O424  1  0.61818676  0.50574520  -0.00108595  1
  O  O425  1  0.63345928  0.49918165  0.51536343  1
  O  O426  1  0.37133782  0.36958728  0.11920115  1
  O  O427  1  0.37267996  0.36912553  0.62140994  1
  O  O428  1  0.36804678  0.87393731  0.11735924  1
  O  O429  1  0.37394798  0.87707315  0.62404219  1
  O  O430  1  0.86818974  0.36506321  0.12484844  1
  O  O431  1  0.87731674  0.37844308  0.60944386  1
  O  O432  1  0.86820180  0.87084175  0.11920562  1
  O  O433  1  0.87179580  0.86295008  0.62435357  1
  O  O434  1  0.13229813  0.13189012  0.38117545  1
  O  O435  1  0.13140355  0.13108893  0.88239708  1
  O  O436  1  0.12716027  0.63708658  0.37380521  1
  O  O437  1  0.12999948  0.63127954  0.88281539  1
  O  O438  1  0.63351738  0.11660829  0.38325924  1
  O  O439  1  0.63065475  0.13199198  0.87429262  1
  O  O440  1  0.63806393  0.61400646  0.37746110  1
  O  O441  1  0.62938799  0.62975962  0.87799001  1
