# generated using pymatgen
data_V93Zn93O256
_symmetry_space_group_name_H-M   'P 1'
_cell_length_a   17.04990602
_cell_length_b   17.04467975
_cell_length_c   17.04752510
_cell_angle_alpha   90.08982763
_cell_angle_beta   90.05076025
_cell_angle_gamma   90.08927790
_symmetry_Int_Tables_number   1
_chemical_formula_structural   V93Zn93O256
_chemical_formula_sum   'V93 Zn93 O256'
_cell_volume   4954.17041246
_cell_formula_units_Z   1
loop_
 _symmetry_equiv_pos_site_id
 _symmetry_equiv_pos_as_xyz
  1  'x, y, z'
loop_
 _atom_site_type_symbol
 _atom_site_label
 _atom_site_symmetry_multiplicity
 _atom_site_fract_x
 _atom_site_fract_y
 _atom_site_fract_z
 _atom_site_occupancy
  V  V0  1  0.24803038  0.49865977  0.74707863  1
  V  V1  1  0.24974569  0.00126698  0.74880118  1
  V  V2  1  0.12502322  0.24958394  0.37426761  1
  V  V3  1  0.12586031  0.62697509  -0.00192635  1
  V  V4  1  0.50119754  0.00001195  0.50081722  1
  V  V5  1  0.49996761  0.62550559  0.12463442  1
  V  V6  1  0.62458399  0.62374539  0.50049927  1
  V  V7  1  0.50059963  0.87374796  0.37212393  1
  V  V8  1  0.87441135  0.37419566  0.50018705  1
  V  V9  1  0.36768829  0.24290920  0.12757188  1
  V  V10  1  0.75031051  0.62702333  0.87636668  1
  V  V11  1  0.37416929  0.49803979  0.87450722  1
  V  V12  1  0.87177173  0.11873041  0.25130574  1
  V  V13  1  0.37562941  0.62480886  0.75047343  1
  V  V14  1  0.37315640  0.25129751  0.62343885  1
  V  V15  1  0.11811282  0.25084261  0.87005658  1
  V  V16  1  0.87595418  0.00129242  0.87583097  1
  V  V17  1  0.25571999  0.00190737  0.24920006  1
  V  V18  1  0.74846384  0.37335446  0.12545074  1
  V  V19  1  0.87962323  0.13381776  0.75069981  1
  V  V20  1  0.87635678  0.87558625  0.00091759  1
  V  V21  1  0.25128299  0.12510728  0.37280985  1
  V  V22  1  0.62495798  0.37548014  0.74872840  1
  V  V23  1  0.87521854  0.50098840  0.87596008  1
  V  V24  1  0.37616653  0.12585664  0.74986445  1
  V  V25  1  0.75041892  0.11833917  0.37315743  1
  V  V26  1  0.75112272  0.75312086  0.00548882  1
  V  V27  1  0.62612605  0.87551851  0.75138814  1
  V  V28  1  0.00107860  0.74905477  0.24968733  1
  V  V29  1  0.25038660  0.13136402  0.87730601  1
  V  V30  1  0.62434581  0.75014175  0.37472026  1
  V  V31  1  0.12989454  0.13311568  -0.00018289  1
  V  V32  1  0.37532717  0.62483554  0.24882912  1
  V  V33  1  0.62534497  0.24875455  0.37667912  1
  V  V34  1  0.87546862  0.75138584  0.62645057  1
  V  V35  1  0.87508661  0.62579319  0.75035617  1
  V  V36  1  0.12655933  0.87668536  0.74942966  1
  V  V37  1  -0.00068122  0.49905509  -0.00199561  1
  V  V38  1  0.37621712  0.00348335  0.37398024  1
  V  V39  1  -0.00000708  0.62457892  0.12477132  1
  V  V40  1  0.25032599  0.74935010  0.49998181  1
  V  V41  1  0.12687631  0.75009470  0.37477612  1
  V  V42  1  0.74968726  0.12534287  0.87686747  1
  V  V43  1  0.87879736  0.50018854  0.37977976  1
  V  V44  1  0.11606451  0.37187645  0.74775019  1
  V  V45  1  0.75139859  0.00075412  0.75210342  1
  V  V46  1  0.63114192  -0.00365616  0.13184668  1
  V  V47  1  0.62547159  0.00121366  0.62598249  1
  V  V48  1  0.00092350  0.87619032  0.37654766  1
  V  V49  1  0.87694837  0.87665829  0.50051317  1
  V  V50  1  0.74877321  0.50040092  0.75073894  1
  V  V51  1  0.62422310  0.24922389  0.87625812  1
  V  V52  1  0.49834830  0.12325133  0.13091346  1
  V  V53  1  0.12545957  0.49858224  0.12254660  1
  V  V54  1  0.12451545  0.37543407  0.24801875  1
  V  V55  1  0.12092029  0.50169017  0.61784895  1
  V  V56  1  0.37125238  0.86938527  -0.00110315  1
  V  V57  1  0.12474965  0.00112536  0.62385996  1
  V  V58  1  0.87621093  0.62445427  0.24985889  1
  V  V59  1  0.50057283  0.74946614  0.74962565  1
  V  V60  1  0.12724462  0.75051641  0.87746824  1
  V  V61  1  0.49877070  0.87775042  0.87705033  1
  V  V62  1  0.74990303  0.49885954  0.25023913  1
  V  V63  1  0.49901576  0.49995093  0.50047136  1
  V  V64  1  -0.00114707  0.24941159  0.24968219  1
  V  V65  1  0.25028435  0.62475014  0.37291099  1
  V  V66  1  0.00226117  0.87662314  0.87499340  1
  V  V67  1  0.62627354  0.75047729  0.87654707  1
  V  V68  1  0.62346239  0.49822667  0.12535833  1
  V  V69  1  -0.00015177  0.13277933  0.62819799  1
  V  V70  1  0.87344340  0.37565343  0.00113262  1
  V  V71  1  0.00073332  0.62410549  0.61850127  1
  V  V72  1  0.62658456  0.12497688  0.50135057  1
  V  V73  1  0.75127659  0.87568420  0.62647284  1
  V  V74  1  0.12365942  0.12488129  0.49909191  1
  V  V75  1  0.75010824  0.62458054  0.37563446  1
  V  V76  1  0.00043291  0.12643385  0.12592118  1
  V  V77  1  0.00151267  0.00187182  0.00002720  1
  V  V78  1  0.36676159  0.36783045  -0.00063107  1
  V  V79  1  0.62378178  0.37240505  0.25087943  1
  V  V80  1  0.24859843  0.49887008  0.24733617  1
  V  V81  1  0.25116049  0.86831878  0.11996071  1
  V  V82  1  0.00086391  0.75179834  0.75032925  1
  V  V83  1  0.12631874  0.87489383  0.24900823  1
  V  V84  1  0.49813110  0.37381765  0.37441493  1
  V  V85  1  0.74821042  0.24992349  0.00117363  1
  V  V86  1  0.37538904  0.75009334  0.62441683  1
  V  V87  1  0.00021105  0.37879573  0.37858685  1
  V  V88  1  0.12735958  0.00114962  0.12377158  1
  V  V89  1  0.49897227  0.49845164  0.00020627  1
  V  V90  1  0.74969976  0.74966981  0.50161773  1
  V  V91  1  0.49849786  0.37313085  0.87497241  1
  V  V92  1  0.24932491  0.62968935  0.87932430  1
  Zn  Zn93  1  0.37536057  0.87565525  0.50080737  1
  Zn  Zn94  1  -0.00478593  0.37103263  0.87144128  1
  Zn  Zn95  1  0.37421499  0.00189251  0.87672758  1
  Zn  Zn96  1  0.25062897  0.25215103  0.49836342  1
  Zn  Zn97  1  0.87621154  0.25495009  0.62834004  1
  Zn  Zn98  1  -0.00205981  0.00205521  0.49857220  1
  Zn  Zn99  1  0.62297614  0.12154410  0.00122826  1
  Zn  Zn100  1  0.37158621  0.37504045  0.49949691  1
  Zn  Zn101  1  0.50152995  0.12562818  0.62560676  1
  Zn  Zn102  1  0.62580578  0.50055722  0.62525618  1
  Zn  Zn103  1  0.50209897  0.75075236  0.24794116  1
  Zn  Zn104  1  0.75003500  0.24954383  0.50418600  1
  Zn  Zn105  1  0.24996168  0.87633705  0.62423741  1
  Zn  Zn106  1  0.87294120  0.24908943  0.12614667  1
  Zn  Zn107  1  0.12113957  0.62144847  0.49623964  1
  Zn  Zn108  1  0.37215789  0.49697300  0.37472963  1
  Zn  Zn109  1  0.49923994  0.00090112  0.00260268  1
  Zn  Zn110  1  0.50067176  0.24928314  0.74963047  1
  Zn  Zn111  1  0.87579602  0.75199596  0.12721237  1
  Zn  Zn112  1  0.87238130  -0.00381564  0.37304825  1
  Zn  Zn113  1  0.76129395  0.88368107  0.13851519  1
  Zn  Zn114  1  0.37314789  0.74754214  0.12029311  1
  Zn  Zn115  1  0.63713328  0.87632133  0.25456630  1
  Zn  Zn116  1  0.49589281  0.24446839  0.25181623  1
  Zn  Zn117  1  0.24611395  0.36834811  0.11908256  1
  Zn  Zn118  1  0.50200973  0.62347585  0.62586158  1
  Zn  Zn119  1  0.75006449  0.37502125  0.62341118  1
  Zn  Zn120  1  0.62558578  0.62499608  0.00125681  1
  Zn  Zn121  1  0.24727314  0.37436954  0.61972298  1
  Zn  Zn122  1  0.18790784  0.18723786  0.18971332  1
  Zn  Zn123  1  0.18826268  0.18854285  0.68714573  1
  Zn  Zn124  1  0.18624033  0.68602516  0.18640654  1
  Zn  Zn125  1  0.18742634  0.68702313  0.68884658  1
  Zn  Zn126  1  0.68538359  0.18502969  0.18951494  1
  Zn  Zn127  1  0.69219406  0.19044403  0.68713047  1
  Zn  Zn128  1  0.68677265  0.68868121  0.18986559  1
  Zn  Zn129  1  0.68669345  0.68652284  0.68713956  1
  Zn  Zn130  1  0.31216829  0.31188127  0.30804772  1
  Zn  Zn131  1  0.30742573  0.31176620  0.80964404  1
  Zn  Zn132  1  0.31513776  0.81319500  0.31047077  1
  Zn  Zn133  1  0.31241073  0.81284151  0.81144696  1
  Zn  Zn134  1  0.81085805  0.30702227  0.31346105  1
  Zn  Zn135  1  0.80924159  0.31396840  0.81555501  1
  Zn  Zn136  1  0.81396097  0.81146246  0.31367226  1
  Zn  Zn137  1  0.81360675  0.81324235  0.81507024  1
  Zn  Zn138  1  0.18950509  0.43634207  0.43629985  1
  Zn  Zn139  1  0.18588896  0.43804365  0.93389258  1
  Zn  Zn140  1  0.18749810  0.93690659  0.43905494  1
  Zn  Zn141  1  0.18920823  0.94209945  0.93676164  1
  Zn  Zn142  1  0.68765086  0.43731431  0.43757933  1
  Zn  Zn143  1  0.68645176  0.43775905  0.93768153  1
  Zn  Zn144  1  0.68787659  0.93714413  0.43844013  1
  Zn  Zn145  1  0.68685253  0.93917701  0.94401820  1
  Zn  Zn146  1  0.31442614  0.05853322  0.05898369  1
  Zn  Zn147  1  0.31216148  0.06414492  0.56066371  1
  Zn  Zn148  1  0.31242607  0.55841053  0.06137915  1
  Zn  Zn149  1  0.31309101  0.56345688  0.56126749  1
  Zn  Zn150  1  0.81260167  0.06447041  0.06319403  1
  Zn  Zn151  1  0.81346230  0.06308919  0.56217011  1
  Zn  Zn152  1  0.81189423  0.56328054  0.06323772  1
  Zn  Zn153  1  0.81129587  0.56052702  0.56428477  1
  Zn  Zn154  1  0.43476968  0.43428317  0.18580263  1
  Zn  Zn155  1  0.43828201  0.43562044  0.68607108  1
  Zn  Zn156  1  0.43897850  0.93814850  0.18610521  1
  Zn  Zn157  1  0.43731061  0.93787352  0.68842099  1
  Zn  Zn158  1  0.93699383  0.43762748  0.18779297  1
  Zn  Zn159  1  0.93772996  0.44190769  0.68596907  1
  Zn  Zn160  1  0.94042082  0.93818034  0.18803182  1
  Zn  Zn161  1  0.93975838  0.94331490  0.68741486  1
  Zn  Zn162  1  0.06228581  0.06054134  0.31169373  1
  Zn  Zn163  1  0.06281339  0.06373188  0.81103573  1
  Zn  Zn164  1  0.06377072  0.56244854  0.31149764  1
  Zn  Zn165  1  0.06103283  0.56187302  0.80966303  1
  Zn  Zn166  1  0.56320783  0.06275045  0.31107750  1
  Zn  Zn167  1  0.56278589  0.06268725  0.81336235  1
  Zn  Zn168  1  0.56243505  0.56044295  0.31311226  1
  Zn  Zn169  1  0.56230272  0.56276823  0.81458395  1
  Zn  Zn170  1  0.43861416  0.18649955  0.43966935  1
  Zn  Zn171  1  0.43962716  0.18781551  0.94189348  1
  Zn  Zn172  1  0.43707154  0.68570788  0.43651650  1
  Zn  Zn173  1  0.43709095  0.68827979  0.93807942  1
  Zn  Zn174  1  0.93747520  0.18830098  0.43778700  1
  Zn  Zn175  1  0.93724035  0.18900337  0.93954465  1
  Zn  Zn176  1  0.93638377  0.69110577  0.43679623  1
  Zn  Zn177  1  0.93875030  0.68855010  0.93827729  1
  Zn  Zn178  1  0.05973791  0.31222114  0.06078269  1
  Zn  Zn179  1  0.06268355  0.31259173  0.55985306  1
  Zn  Zn180  1  0.06336781  0.81122409  0.06155206  1
  Zn  Zn181  1  0.06398738  0.81242088  0.56233867  1
  Zn  Zn182  1  0.55768436  0.30890197  0.06226554  1
  Zn  Zn183  1  0.55909392  0.31036856  0.56344984  1
  Zn  Zn184  1  0.56290237  0.81406177  0.06232607  1
  Zn  Zn185  1  0.56256117  0.81366543  0.56141387  1
  O  O186  1  0.12254740  0.12166765  0.11745445  1
  O  O187  1  0.11829630  0.12202336  0.62084494  1
  O  O188  1  0.12012954  0.61884842  0.11844791  1
  O  O189  1  0.11701582  0.61910237  0.62531221  1
  O  O190  1  0.61777015  0.11426775  0.12500610  1
  O  O191  1  0.62562738  0.11838113  0.62132088  1
  O  O192  1  0.61526315  0.61737531  0.12580140  1
  O  O193  1  0.62197906  0.62297724  0.61701059  1
  O  O194  1  0.38635597  0.37461581  0.37413900  1
  O  O195  1  0.37712934  0.37756401  0.87929068  1
  O  O196  1  0.38252775  0.88420730  0.37693128  1
  O  O197  1  0.38210392  0.87529963  0.88002572  1
  O  O198  1  0.88103118  0.38175278  0.37884832  1
  O  O199  1  0.87499716  0.38267302  0.88169927  1
  O  O200  1  0.88315699  0.87388156  0.38299143  1
  O  O201  1  0.88278256  0.88169343  0.88033694  1
  O  O202  1  0.25647574  0.00425820  0.36853280  1
  O  O203  1  0.24962872  0.01364243  0.86688743  1
  O  O204  1  0.24995645  0.50679540  0.36604352  1
  O  O205  1  0.25336350  0.50786688  0.86387511  1
  O  O206  1  0.74995909  0.01408492  0.37858866  1
  O  O207  1  0.75614179  0.00461791  0.87216441  1
  O  O208  1  0.75794407  0.50526550  0.36911887  1
  O  O209  1  0.75533358  0.50754943  0.87169358  1
  O  O210  1  0.24191452  0.49770654  0.13009521  1
  O  O211  1  0.24161989  0.50325816  0.63456844  1
  O  O212  1  0.24751204  0.99381162  0.13294957  1
  O  O213  1  0.24351851  1.00017967  0.63056311  1
  O  O214  1  0.74361750  0.49445869  0.13059699  1
  O  O215  1  0.74717488  0.49605382  0.63469786  1
  O  O216  1  0.73507502  1.00093394  0.12022156  1
  O  O217  1  0.74557578  0.99438437  0.63230716  1
  O  O218  1  0.00414890  0.37020665  0.25813194  1
  O  O219  1  0.01227601  0.38267681  0.75233102  1
  O  O220  1  0.00741238  0.86912962  0.25487020  1
  O  O221  1  0.00572699  0.87202404  0.75587851  1
  O  O222  1  0.50560828  0.37684399  0.26043265  1
  O  O223  1  0.50861254  0.37502223  0.75745087  1
  O  O224  1  0.49998865  0.87349203  0.26386873  1
  O  O225  1  0.50539528  0.86965471  0.75855680  1
  O  O226  1  0.49990329  0.12510864  0.23713060  1
  O  O227  1  0.48731203  0.12537861  0.75054248  1
  O  O228  1  0.49155774  0.62100627  0.24112437  1
  O  O229  1  0.49338632  0.63124009  0.75053878  1
  O  O230  1  0.99495678  0.13028942  0.24569534  1
  O  O231  1  0.99017444  0.11943421  0.74157101  1
  O  O232  1  0.99632480  0.62916964  0.24460538  1
  O  O233  1  0.99434203  0.63244036  0.74201801  1
  O  O234  1  0.37862246  0.25969585  0.01086566  1
  O  O235  1  0.37363184  0.24900782  0.51098410  1
  O  O236  1  0.37573130  0.76362160  0.00029234  1
  O  O237  1  0.36781353  0.74898408  0.50788031  1
  O  O238  1  0.86723722  0.25718293  0.00201989  1
  O  O239  1  0.87413804  0.26403066  0.49855136  1
  O  O240  1  0.86758578  0.75628687  0.00074436  1
  O  O241  1  0.86860547  0.75591085  0.50726539  1
  O  O242  1  0.12697170  0.24330835  0.49079205  1
  O  O243  1  0.12212656  0.23881152  0.99182710  1
  O  O244  1  0.13572700  0.74813195  0.49446258  1
  O  O245  1  0.11839601  0.74044509  0.98986004  1
  O  O246  1  0.62395895  0.24276637  0.49423053  1
  O  O247  1  0.63104447  0.24958293  0.99327962  1
  O  O248  1  0.63093904  0.74446146  0.49540319  1
  O  O249  1  0.63506645  0.74999781  0.99515070  1
  O  O250  1  0.49082214  0.24113741  0.12726943  1
  O  O251  1  0.48836556  0.24579608  0.62945924  1
  O  O252  1  0.49985510  0.73689156  0.12589538  1
  O  O253  1  0.49157018  0.74963465  0.63036077  1
  O  O254  1  0.99850073  0.24343962  0.13154782  1
  O  O255  1  0.99814905  0.23698179  0.62151417  1
  O  O256  1  1.00091224  0.74232758  0.13195176  1
  O  O257  1  0.99539718  0.74439700  0.63191957  1
  O  O258  1  0.00550219  0.25884161  0.36868542  1
  O  O259  1  0.01340381  0.25060067  0.87697394  1
  O  O260  1  0.00724548  0.75494897  0.36927052  1
  O  O261  1  0.00565357  0.75681665  0.86889429  1
  O  O262  1  0.50454990  0.25765868  0.37402520  1
  O  O263  1  0.50607962  0.25588424  0.87334061  1
  O  O264  1  0.50489230  0.75873598  0.37654059  1
  O  O265  1  0.50526197  0.75795644  0.86983708  1
  O  O266  1  0.24344547  0.12539535  0.48644863  1
  O  O267  1  0.23943666  0.11737973  0.98973350  1
  O  O268  1  0.24998310  0.63539195  0.49265957  1
  O  O269  1  0.24419547  0.61603143  0.98579890  1
  O  O270  1  0.74445331  0.12686764  0.49220022  1
  O  O271  1  0.74922149  0.13204110  0.99322114  1
  O  O272  1  0.74588216  0.62978974  0.49526499  1
  O  O273  1  0.74977832  0.63544105  0.99506408  1
  O  O274  1  0.26237052  0.38129396  -0.00112689  1
  O  O275  1  0.25385647  0.37048544  0.50168547  1
  O  O276  1  0.25699342  0.88323117  0.00989760  1
  O  O277  1  0.25298426  0.86146348  0.50100200  1
  O  O278  1  0.75396642  0.37061593  0.00586157  1
  O  O279  1  0.76131069  0.37449274  0.49937093  1
  O  O280  1  0.75799074  0.86607759  0.00131311  1
  O  O281  1  0.75512697  0.86893447  0.50712535  1
  O  O282  1  0.12855262  0.49483233  0.24227779  1
  O  O283  1  0.13159866  0.49423719  0.74189559  1
  O  O284  1  0.13461077  0.99400190  0.24384588  1
  O  O285  1  0.13029754  0.99634632  0.74422263  1
  O  O286  1  0.63115300  0.49338498  0.24572017  1
  O  O287  1  0.62951669  0.49132424  0.75233949  1
  O  O288  1  0.62128827  0.99807311  0.23582635  1
  O  O289  1  0.63169703  0.99474265  0.74637055  1
  O  O290  1  0.36427069  -0.00611707  0.25981112  1
  O  O291  1  0.36914723  0.01019054  0.75085523  1
  O  O292  1  0.36833877  0.50959391  0.24849060  1
  O  O293  1  0.36714395  0.50358882  0.75364800  1
  O  O294  1  0.88235547  0.01470280  0.25256141  1
  O  O295  1  0.87009011  0.00820156  0.75728634  1
  O  O296  1  0.86946037  0.50411815  0.25956692  1
  O  O297  1  0.86919926  0.50650006  0.75606611  1
  O  O298  1  0.11664121  0.37184456  0.36891539  1
  O  O299  1  0.12411935  0.36708092  0.86648385  1
  O  O300  1  0.12222329  0.86917175  0.36857394  1
  O  O301  1  0.12138012  0.87163804  0.87036603  1
  O  O302  1  0.61703224  0.36952842  0.37119538  1
  O  O303  1  0.61928847  0.37027460  0.86786736  1
  O  O304  1  0.61598625  0.86998676  0.37655706  1
  O  O305  1  0.61805692  0.87081722  0.87119619  1
  O  O306  1  0.37967865  0.13670645  0.11690576  1
  O  O307  1  0.37457075  0.13179798  0.63449763  1
  O  O308  1  0.38202332  0.62450304  0.13019439  1
  O  O309  1  0.37671918  0.63514469  0.63135673  1
  O  O310  1  0.88154975  0.12606484  0.13366459  1
  O  O311  1  0.88269099  0.12513792  0.63417690  1
  O  O312  1  0.88231009  0.62468563  0.13271135  1
  O  O313  1  0.88146429  0.63041126  0.63009166  1
  O  O314  1  0.26284632  0.24775329  0.12667240  1
  O  O315  1  0.25986273  0.25053986  0.62246554  1
  O  O316  1  0.25027031  0.76508382  0.13107787  1
  O  O317  1  0.25812474  0.74858140  0.61780126  1
  O  O318  1  0.74897375  0.25611546  0.11956838  1
  O  O319  1  0.75760448  0.25726694  0.62216930  1
  O  O320  1  0.75165581  0.75012800  0.11395441  1
  O  O321  1  0.75590698  0.75582748  0.62172585  1
  O  O322  1  0.24510083  0.23893460  0.37015028  1
  O  O323  1  0.23806055  0.23790792  0.87006219  1
  O  O324  1  0.24717109  0.74566937  0.38061490  1
  O  O325  1  0.24441459  0.73642836  0.86630558  1
  O  O326  1  0.74204817  0.23980992  0.37906573  1
  O  O327  1  0.74358999  0.24460192  0.88176534  1
  O  O328  1  0.74548083  0.74282484  0.38329035  1
  O  O329  1  0.74626646  0.74702175  0.88410368  1
  O  O330  1  0.00878721  0.12092684  0.00542535  1
  O  O331  1  0.00552183  0.12364524  0.50794881  1
  O  O332  1  0.00477877  0.61856336  0.00484832  1
  O  O333  1  0.00089255  0.63416355  0.51449456  1
  O  O334  1  0.50224829  0.12226728  0.01285434  1
  O  O335  1  0.50842063  0.11626138  0.50094989  1
  O  O336  1  0.49909362  0.61826683  0.00890810  1
  O  O337  1  0.50558073  0.61509022  0.49829872  1
  O  O338  1  0.49990367  0.38282240  0.49023628  1
  O  O339  1  0.48999501  0.37970801  0.99399098  1
  O  O340  1  0.49932850  0.88130919  0.48909345  1
  O  O341  1  0.49191275  0.87357070  0.98981812  1
  O  O342  1  0.99294910  0.37214189  0.48491430  1
  O  O343  1  0.99222293  0.38202381  0.99748022  1
  O  O344  1  0.99468731  0.87425829  0.49446574  1
  O  O345  1  0.99739739  0.88214469  0.99419507  1
  O  O346  1  0.49941375  0.49044489  0.38320345  1
  O  O347  1  0.49268893  0.49418332  0.87987546  1
  O  O348  1  0.49351655  0.99436198  0.37901087  1
  O  O349  1  0.49871392  0.98669904  0.87491848  1
  O  O350  1  0.99026024  0.49079975  0.36716059  1
  O  O351  1  0.99245699  0.50072381  0.88078218  1
  O  O352  1  0.99956046  0.99022180  0.37717057  1
  O  O353  1  0.99654073  0.99603267  0.88037174  1
  O  O354  1  0.00873510  0.00665957  0.11973494  1
  O  O355  1  0.00757039  0.01155167  0.62256282  1
  O  O356  1  0.00571605  0.50507867  0.11914448  1
  O  O357  1  0.00946295  0.51362449  0.63074405  1
  O  O358  1  0.50669644  0.00681418  0.12444607  1
  O  O359  1  0.50736688  -0.00041156  0.61955497  1
  O  O360  1  0.50340590  0.50621875  0.12031492  1
  O  O361  1  0.50162479  0.50098136  0.61305274  1
  O  O362  1  0.24121988  0.38106726  0.24727658  1
  O  O363  1  0.23943004  0.38636404  0.74776868  1
  O  O364  1  0.24623764  0.88356073  0.24250449  1
  O  O365  1  0.24403551  0.88275465  0.74930311  1
  O  O366  1  0.74443964  0.37905346  0.24616917  1
  O  O367  1  0.73947767  0.38222790  0.75293250  1
  O  O368  1  0.75040548  0.87390498  0.24966140  1
  O  O369  1  0.74608836  0.88043997  0.74671652  1
  O  O370  1  0.24289992  0.11197950  0.26078623  1
  O  O371  1  0.25748941  0.12102887  0.75730289  1
  O  O372  1  0.25685976  0.61999575  0.25246602  1
  O  O373  1  0.25438710  0.61615661  0.75765989  1
  O  O374  1  0.76085576  0.13165543  0.26017722  1
  O  O375  1  0.75906380  0.11908809  0.75687241  1
  O  O376  1  0.75579585  0.61922406  0.25604840  1
  O  O377  1  0.75572917  0.62177902  0.75628179  1
  O  O378  1  0.36602208  0.11320216  0.37967369  1
  O  O379  1  0.36692182  0.12727794  0.86858189  1
  O  O380  1  0.36989817  0.62257381  0.36366553  1
  O  O381  1  0.36780918  0.61942010  0.87082207  1
  O  O382  1  0.86777367  0.12428647  0.36894381  1
  O  O383  1  0.87167136  0.12034059  0.86942619  1
  O  O384  1  0.87166858  0.61779495  0.37124011  1
  O  O385  1  0.87027584  0.62167920  0.86927239  1
  O  O386  1  0.12557000  0.37977240  0.12912268  1
  O  O387  1  0.12286625  0.38383180  0.63087223  1
  O  O388  1  0.13247803  0.88132906  0.12763000  1
  O  O389  1  0.12629058  0.88153741  0.63218754  1
  O  O390  1  0.62787368  0.37914383  0.13062272  1
  O  O391  1  0.62333931  0.37585670  0.63868878  1
  O  O392  1  0.62269722  0.88811230  0.12770695  1
  O  O393  1  0.63151942  0.87985649  0.63158251  1
  O  O394  1  0.11909770  0.25531874  0.25497197  1
  O  O395  1  0.12966856  0.26121307  0.75644709  1
  O  O396  1  0.12114748  0.75521569  0.25528781  1
  O  O397  1  0.12010940  0.75648648  0.75585676  1
  O  O398  1  0.62132504  0.25589407  0.25836416  1
  O  O399  1  0.62518247  0.25950352  0.75712367  1
  O  O400  1  0.62115897  0.75120211  0.26030775  1
  O  O401  1  0.62111629  0.75636923  0.75572820  1
  O  O402  1  0.37838450  0.25549073  0.23166648  1
  O  O403  1  0.37345950  0.24097063  0.74307042  1
  O  O404  1  0.37767688  0.73606619  0.24662272  1
  O  O405  1  0.37979746  0.74497419  0.74278630  1
  O  O406  1  0.88199858  0.23975653  0.24960902  1
  O  O407  1  0.87044132  0.23707082  0.75283419  1
  O  O408  1  0.88370448  0.74108110  0.25019577  1
  O  O409  1  0.88025786  0.74599888  0.74561435  1
  O  O410  1  0.38550905  0.49908950  0.49674262  1
  O  O411  1  0.38032183  0.49061690  0.99370928  1
  O  O412  1  0.38039021  0.99782033  0.49108287  1
  O  O413  1  0.37883518  0.98615673  0.99590206  1
  O  O414  1  0.87044509  0.49320272  0.48627613  1
  O  O415  1  0.87877449  0.49560910  0.99521832  1
  O  O416  1  0.87669920  0.99060099  0.49788439  1
  O  O417  1  0.88197746  0.99696324  0.99503072  1
  O  O418  1  0.12015390  0.01094797  0.00395201  1
  O  O419  1  0.12501010  0.00699373  0.50615439  1
  O  O420  1  0.11894475  0.50556951  0.00278072  1
  O  O421  1  0.13082279  0.50238277  0.51400247  1
  O  O422  1  0.61933903  0.00094301  0.01273579  1
  O  O423  1  0.62101334  0.00482749  0.50709568  1
  O  O424  1  0.61734614  0.50097014  0.00686728  1
  O  O425  1  0.61613822  0.50500225  0.49984802  1
  O  O426  1  0.37324708  0.36403358  0.11596550  1
  O  O427  1  0.37194574  0.36373198  0.62545545  1
  O  O428  1  0.36835932  0.87335481  0.11765481  1
  O  O429  1  0.37301277  0.86221850  0.62442707  1
  O  O430  1  0.86653240  0.37455720  0.11992106  1
  O  O431  1  0.87950842  0.37758912  0.61201410  1
  O  O432  1  0.87782065  0.87354753  0.11661718  1
  O  O433  1  0.87084523  0.87060322  0.62260713  1
  O  O434  1  0.13159394  0.12912715  0.37829935  1
  O  O435  1  0.12997272  0.13185377  0.87973645  1
  O  O436  1  0.13090441  0.63134167  0.37593668  1
  O  O437  1  0.13184460  0.62877862  0.87679429  1
  O  O438  1  0.63126631  0.12839874  0.37981732  1
  O  O439  1  0.63192701  0.13072833  0.87551427  1
  O  O440  1  0.63088438  0.62905220  0.38043077  1
  O  O441  1  0.63147150  0.63269622  0.87761873  1
