# generated using pymatgen
data_V93Zn93O256
_symmetry_space_group_name_H-M   'P 1'
_cell_length_a   17.04528719
_cell_length_b   17.04506505
_cell_length_c   17.04413726
_cell_angle_alpha   90.02459900
_cell_angle_beta   90.07233477
_cell_angle_gamma   89.99250777
_symmetry_Int_Tables_number   1
_chemical_formula_structural   V93Zn93O256
_chemical_formula_sum   'V93 Zn93 O256'
_cell_volume   4951.96559976
_cell_formula_units_Z   1
loop_
 _symmetry_equiv_pos_site_id
 _symmetry_equiv_pos_as_xyz
  1  'x, y, z'
loop_
 _atom_site_type_symbol
 _atom_site_label
 _atom_site_symmetry_multiplicity
 _atom_site_fract_x
 _atom_site_fract_y
 _atom_site_fract_z
 _atom_site_occupancy
  V  V0  1  0.25003150  0.25110349  -0.00012267  1
  V  V1  1  0.75022637  0.12516054  0.37696785  1
  V  V2  1  0.50023096  0.62392890  0.62549748  1
  V  V3  1  0.00076400  0.00637443  0.50400718  1
  V  V4  1  0.87456093  0.50011919  0.37448331  1
  V  V5  1  0.74441396  0.62942733  0.87379073  1
  V  V6  1  0.74760013  0.00306536  0.74571698  1
  V  V7  1  0.87510744  0.37480101  0.50027122  1
  V  V8  1  0.24910746  0.37588139  0.62517299  1
  V  V9  1  0.87683252  0.86889034  0.50514363  1
  V  V10  1  0.49979774  0.49870568  -0.00004576  1
  V  V11  1  0.00022901  0.25139412  0.24959783  1
  V  V12  1  0.61663363  0.11710569  0.50176035  1
  V  V13  1  0.62625452  0.49966180  0.12480160  1
  V  V14  1  0.75126705  0.50019099  0.24864575  1
  V  V15  1  -0.00195311  0.63001086  0.62404186  1
  V  V16  1  0.74813202  -0.00201915  0.24879138  1
  V  V17  1  -0.00088967  0.50117804  0.49897351  1
  V  V18  1  0.37642760  0.75227691  0.62317008  1
  V  V19  1  0.24951862  0.62510841  0.87442411  1
  V  V20  1  0.62621448  0.62366611  0.49882371  1
  V  V21  1  0.12393769  0.37573451  0.25049495  1
  V  V22  1  0.25032356  0.75098753  0.00023567  1
  V  V23  1  0.87471662  0.00004722  0.87212524  1
  V  V24  1  0.37532113  0.87469458  0.00080067  1
  V  V25  1  0.12542440  0.50102951  0.62520292  1
  V  V26  1  0.87405094  0.25081377  0.12351353  1
  V  V27  1  0.24988040  0.25148312  0.49892586  1
  V  V28  1  -0.00042732  0.49964280  -0.00102227  1
  V  V29  1  0.12580297  0.75137930  0.37397449  1
  V  V30  1  0.12178510  0.00587589  0.62581099  1
  V  V31  1  0.37521557  0.62661696  0.24931540  1
  V  V32  1  0.50091067  0.12335694  0.12552292  1
  V  V33  1  -0.00251472  0.75004078  0.74600806  1
  V  V34  1  0.24927990  0.50076268  0.24971534  1
  V  V35  1  0.62497582  0.12402486  -0.00076987  1
  V  V36  1  0.62437214  0.37207650  0.74908184  1
  V  V37  1  0.49987771  0.37524512  0.37561206  1
  V  V38  1  0.62512770  0.24901844  0.87358640  1
  V  V39  1  0.25026208  0.37594019  0.12485291  1
  V  V40  1  0.75020005  0.37231054  0.62453458  1
  V  V41  1  0.25458204  0.75151676  0.50083620  1
  V  V42  1  0.75036594  0.24755663  0.50066491  1
  V  V43  1  0.37470995  -0.00049237  0.87793394  1
  V  V44  1  0.12382441  0.12472640  0.00082048  1
  V  V45  1  0.62601146  0.75049079  0.37414666  1
  V  V46  1  0.12460497  0.87399036  0.74909901  1
  V  V47  1  0.87580968  0.00015548  0.37641917  1
  V  V48  1  0.50030091  0.24685061  0.74796185  1
  V  V49  1  0.62491936  0.62635814  -0.00227948  1
  V  V50  1  0.37404770  0.37541479  -0.00051046  1
  V  V51  1  0.88721539  0.24508314  0.62815332  1
  V  V52  1  0.74945418  0.49901398  0.74937944  1
  V  V53  1  0.75013385  0.37495788  0.12396101  1
  V  V54  1  0.11793429  0.37270367  0.74969800  1
  V  V55  1  0.74505374  0.75074407  -0.00147590  1
  V  V56  1  0.37550988  0.12491047  0.24978218  1
  V  V57  1  0.25050854  0.62644273  0.37497461  1
  V  V58  1  0.50014827  0.62519269  0.12547081  1
  V  V59  1  0.50035012  -0.00061489  0.00100684  1
  V  V60  1  0.87550168  0.49976683  0.87453960  1
  V  V61  1  0.37438988  0.12538267  0.75192031  1
  V  V62  1  0.87452099  0.63020192  0.74373112  1
  V  V63  1  0.50501155  0.74786368  0.75805456  1
  V  V64  1  0.24616837  0.12632872  0.37532743  1
  V  V65  1  -0.00131488  0.63236245  0.12745452  1
  V  V66  1  0.37422282  0.24960748  0.62658100  1
  V  V67  1  0.37750928  -0.00395356  0.38152304  1
  V  V68  1  0.75434337  0.86804251  0.62479488  1
  V  V69  1  0.00083354  0.87165662  0.37233212  1
  V  V70  1  0.49766614  0.87630943  0.38086571  1
  V  V71  1  0.62674819  0.87047454  0.75620568  1
  V  V72  1  0.37532826  0.75002339  0.12500733  1
  V  V73  1  0.37396675  0.49989153  0.87541137  1
  V  V74  1  0.87825748  0.63199371  0.24966309  1
  V  V75  1  0.12416278  0.75024332  0.87477136  1
  V  V76  1  0.87529133  0.12575072  0.25018808  1
  V  V77  1  0.87357899  0.87420735  0.00032833  1
  V  V78  1  0.12358942  0.62607128  -0.00030970  1
  V  V79  1  0.00072097  0.12471643  0.12396782  1
  V  V80  1  0.12504777  0.62604946  0.49972952  1
  V  V81  1  -0.00064532  0.87398972  0.87477391  1
  V  V82  1  0.37450213  0.62457578  0.75034211  1
  V  V83  1  0.62457009  0.49813177  0.62416230  1
  V  V84  1  0.11695906  0.25023677  0.87093854  1
  V  V85  1  0.50148723  0.24983395  0.24997316  1
  V  V86  1  0.24999085  0.12477516  0.87583323  1
  V  V87  1  0.24861990  -0.00039933  0.24862638  1
  V  V88  1  0.25223226  0.87595614  0.62100037  1
  V  V89  1  0.37603087  0.50088182  0.37541835  1
  V  V90  1  0.12251042  0.87242444  0.25002841  1
  V  V91  1  0.74919205  0.24919143  -0.00057639  1
  V  V92  1  0.88921291  0.12668462  0.74524226  1
  Zn  Zn93  1  -0.00023864  0.37489839  0.37468995  1
  Zn  Zn94  1  0.43313775  0.93505772  0.54449749  1
  Zn  Zn95  1  0.75103877  0.12624829  0.87228559  1
  Zn  Zn96  1  0.24895267  -0.00057335  0.75063895  1
  Zn  Zn97  1  0.37560766  0.25034911  0.12350054  1
  Zn  Zn98  1  0.12392811  0.50222094  0.12490873  1
  Zn  Zn99  1  -0.00374774  0.37096386  0.87066215  1
  Zn  Zn100  1  0.50497922  0.87015283  0.88014088  1
  Zn  Zn101  1  0.37583939  0.37746016  0.50194093  1
  Zn  Zn102  1  0.12273807  -0.00118364  0.12349372  1
  Zn  Zn103  1  0.74833431  0.87258477  0.12715150  1
  Zn  Zn104  1  0.24983281  0.49980040  0.74995263  1
  Zn  Zn105  1  0.62625669  0.37495818  0.25060723  1
  Zn  Zn106  1  0.87560099  0.75380135  0.12986233  1
  Zn  Zn107  1  0.12218576  0.25049260  0.37604116  1
  Zn  Zn108  1  0.00004597  -0.00072482  0.00116676  1
  Zn  Zn109  1  0.11886148  0.13011559  0.50605212  1
  Zn  Zn110  1  0.87509212  0.37315259  -0.00241455  1
  Zn  Zn111  1  0.50122185  0.75176650  0.24958846  1
  Zn  Zn112  1  0.62425314  0.87451400  0.24955769  1
  Zn  Zn113  1  0.24925428  0.87461007  0.12583286  1
  Zn  Zn114  1  0.75627548  0.74614087  0.50321327  1
  Zn  Zn115  1  0.62579041  -0.00353334  0.12445636  1
  Zn  Zn116  1  0.49222149  0.11452532  0.62057268  1
  Zn  Zn117  1  0.49844201  0.37361925  0.87410083  1
  Zn  Zn118  1  0.61232140  -0.00799459  0.62069090  1
  Zn  Zn119  1  0.49938680  0.49742115  0.50080249  1
  Zn  Zn120  1  0.62585732  0.25044270  0.37723551  1
  Zn  Zn121  1  0.75092849  0.62627038  0.37350312  1
  Zn  Zn122  1  0.18655264  0.18972766  0.18592782  1
  Zn  Zn123  1  0.18822623  0.18934400  0.69063646  1
  Zn  Zn124  1  0.18697450  0.68878090  0.18631509  1
  Zn  Zn125  1  0.18709606  0.68844334  0.68763744  1
  Zn  Zn126  1  0.68643032  0.18571009  0.18670815  1
  Zn  Zn127  1  0.68816276  0.18547907  0.68235158  1
  Zn  Zn128  1  0.69036429  0.68700506  0.18611308  1
  Zn  Zn129  1  0.68681556  0.68764930  0.68629818  1
  Zn  Zn130  1  0.31433495  0.31345146  0.31158775  1
  Zn  Zn131  1  0.30871407  0.31298993  0.81249407  1
  Zn  Zn132  1  0.31347021  0.81339603  0.31274981  1
  Zn  Zn133  1  0.31375428  0.81247223  0.81148690  1
  Zn  Zn134  1  0.81261736  0.31340338  0.31261394  1
  Zn  Zn135  1  0.81234573  0.30910213  0.80977485  1
  Zn  Zn136  1  0.81122696  0.81281416  0.31763775  1
  Zn  Zn137  1  0.81159455  0.81254508  0.81358018  1
  Zn  Zn138  1  0.18744972  0.43883790  0.43652330  1
  Zn  Zn139  1  0.18651788  0.43735406  0.93595901  1
  Zn  Zn140  1  0.18707238  0.93972216  0.43926147  1
  Zn  Zn141  1  0.18796818  0.93804574  0.93887425  1
  Zn  Zn142  1  0.68835600  0.43695985  0.43546128  1
  Zn  Zn143  1  0.68697138  0.43617938  0.93700217  1
  Zn  Zn144  1  0.68863979  0.93579551  0.43688159  1
  Zn  Zn145  1  0.68855500  0.93974504  0.93551205  1
  Zn  Zn146  1  0.31324065  0.06404127  0.06319803  1
  Zn  Zn147  1  0.30432507  0.06702305  0.56507142  1
  Zn  Zn148  1  0.31159552  0.56222414  0.06266721  1
  Zn  Zn149  1  0.31378222  0.56274957  0.56203452  1
  Zn  Zn150  1  0.81226512  0.06291707  0.06260902  1
  Zn  Zn151  1  0.81195895  0.06097758  0.56452438  1
  Zn  Zn152  1  0.81333649  0.56402699  0.06306707  1
  Zn  Zn153  1  0.81102013  0.56057443  0.56201856  1
  Zn  Zn154  1  0.43687611  0.43795032  0.18753589  1
  Zn  Zn155  1  0.43732669  0.43600932  0.68851409  1
  Zn  Zn156  1  0.43901131  0.93552389  0.19093601  1
  Zn  Zn157  1  0.43834587  0.93703882  0.70418992  1
  Zn  Zn158  1  0.93658033  0.44013712  0.18536386  1
  Zn  Zn159  1  0.93689460  0.43919884  0.68432465  1
  Zn  Zn160  1  0.93650175  0.93922464  0.18645724  1
  Zn  Zn161  1  0.93726655  0.93885873  0.68721614  1
  Zn  Zn162  1  0.06125704  0.06070188  0.31276936  1
  Zn  Zn163  1  0.06388496  0.05956107  0.81474615  1
  Zn  Zn164  1  0.06123659  0.56256267  0.31217676  1
  Zn  Zn165  1  0.06284861  0.56217225  0.81031186  1
  Zn  Zn166  1  0.56273992  0.06154577  0.31645132  1
  Zn  Zn167  1  0.56205150  0.06105828  0.81292816  1
  Zn  Zn168  1  0.56285529  0.56237228  0.31087902  1
  Zn  Zn169  1  0.56117216  0.55921820  0.81237113  1
  Zn  Zn170  1  0.43407740  0.18826277  0.43558745  1
  Zn  Zn171  1  0.43868187  0.18820805  0.93688463  1
  Zn  Zn172  1  0.43996985  0.68884560  0.43839421  1
  Zn  Zn173  1  0.43637087  0.68576732  0.93908427  1
  Zn  Zn174  1  0.93614067  0.19054683  0.43654474  1
  Zn  Zn175  1  0.93486177  0.18360854  0.93631143  1
  Zn  Zn176  1  0.93948876  0.68762429  0.43415858  1
  Zn  Zn177  1  0.93515033  0.68805842  0.93620908  1
  Zn  Zn178  1  0.06274096  0.31297753  0.06174355  1
  Zn  Zn179  1  0.06348117  0.31493978  0.56106551  1
  Zn  Zn180  1  0.06233206  0.81370817  0.06319070  1
  Zn  Zn181  1  0.06433098  0.81411665  0.56188044  1
  Zn  Zn182  1  0.56276409  0.31233703  0.06242767  1
  Zn  Zn183  1  0.56203697  0.30676764  0.56179835  1
  Zn  Zn184  1  0.56445365  0.81367964  0.06525757  1
  Zn  Zn185  1  0.56800617  0.80731990  0.56619503  1
  O  O186  1  0.11829842  0.12519007  0.11897374  1
  O  O187  1  0.13427397  0.10997687  0.62552639  1
  O  O188  1  0.11591185  0.62467965  0.11920745  1
  O  O189  1  0.12002023  0.62060422  0.61908107  1
  O  O190  1  0.61814766  0.12172524  0.11758653  1
  O  O191  1  0.62135806  0.11975385  0.61134383  1
  O  O192  1  0.62018488  0.61935819  0.11787320  1
  O  O193  1  0.62125682  0.61892221  0.61785019  1
  O  O194  1  0.38375555  0.38165757  0.37537396  1
  O  O195  1  0.37400783  0.38178217  0.88120327  1
  O  O196  1  0.38297176  0.88411825  0.37212851  1
  O  O197  1  0.37600972  0.88086551  0.88232422  1
  O  O198  1  0.87635144  0.38178956  0.38229812  1
  O  O199  1  0.87605668  0.38771468  0.87262188  1
  O  O200  1  0.88363974  0.88063134  0.38224488  1
  O  O201  1  0.87951943  0.87930028  0.88122652  1
  O  O202  1  0.25494346  0.00667322  0.36741495  1
  O  O203  1  0.25590134  0.00688680  0.87468448  1
  O  O204  1  0.25537162  0.50706584  0.36968886  1
  O  O205  1  0.25567588  0.50802477  0.87472700  1
  O  O206  1  0.75696548  0.00476420  0.36833677  1
  O  O207  1  0.75641050  -0.00060899  0.86082157  1
  O  O208  1  0.75679538  0.50226589  0.36776456  1
  O  O209  1  0.75796006  0.50774147  0.87017080  1
  O  O210  1  0.24697091  0.49493066  0.13176837  1
  O  O211  1  0.24293199  0.49419149  0.62452159  1
  O  O212  1  0.24923912  1.00031236  0.13936146  1
  O  O213  1  0.24155069  0.99063922  0.62643492  1
  O  O214  1  0.74588998  0.49510999  0.12788896  1
  O  O215  1  0.74438668  0.49266176  0.63068273  1
  O  O216  1  0.75099454  0.99969117  0.13796216  1
  O  O217  1  0.74913846  0.98820671  0.63465806  1
  O  O218  1  0.00876466  0.37174702  0.24794801  1
  O  O219  1  0.01358834  0.38224150  0.75055664  1
  O  O220  1  0.00949340  0.88447065  0.26190727  1
  O  O221  1  0.00378666  0.86936955  0.75508085  1
  O  O222  1  0.49993399  0.36654420  0.25728661  1
  O  O223  1  0.50706799  0.36613272  0.75054215  1
  O  O224  1  0.50340551  0.87191720  0.26403132  1
  O  O225  1  0.50981793  0.86429395  0.75402723  1
  O  O226  1  0.49576120  0.13161202  0.24772779  1
  O  O227  1  0.49239313  0.12930890  0.74696682  1
  O  O228  1  0.49270369  0.62581245  0.24286783  1
  O  O229  1  0.49642026  0.63039123  0.74556920  1
  O  O230  1  0.99496244  0.13035798  0.24544813  1
  O  O231  1  0.98785782  0.11826862  0.75125157  1
  O  O232  1  0.99078994  0.61791070  0.23891203  1
  O  O233  1  0.99204832  0.62917721  0.74483241  1
  O  O234  1  0.36800967  0.25692236  -0.00037444  1
  O  O235  1  0.36336489  0.25056583  0.50546185  1
  O  O236  1  0.36980046  0.75450602  0.00500863  1
  O  O237  1  0.36728378  0.74255688  0.50992495  1
  O  O238  1  0.86816660  0.25054154  0.00510007  1
  O  O239  1  0.86945261  0.25422641  0.50754479  1
  O  O240  1  0.86534295  0.75950711  -0.00249633  1
  O  O241  1  0.87573212  0.76474222  0.49324578  1
  O  O242  1  0.13517729  0.24855388  0.49789357  1
  O  O243  1  0.13071468  0.24586046  0.99193079  1
  O  O244  1  0.13276274  0.74478358  0.49404974  1
  O  O245  1  0.12965433  0.74599094  0.99379705  1
  O  O246  1  0.63293153  0.23730687  0.49997147  1
  O  O247  1  0.62908280  0.24416345  0.99410555  1
  O  O248  1  0.62700357  0.73872611  0.49238735  1
  O  O249  1  0.63647455  0.74319827  1.00259050  1
  O  O250  1  0.49896225  0.24408113  0.13471655  1
  O  O251  1  0.49108083  0.24578773  0.63063789  1
  O  O252  1  0.49387526  0.74224294  0.12605646  1
  O  O253  1  0.49552203  0.74346634  0.63430455  1
  O  O254  1  0.99410739  0.24516937  0.12967139  1
  O  O255  1  0.98607860  0.25334545  0.61883544  1
  O  O256  1  0.99567992  0.73621865  0.11785801  1
  O  O257  1  1.00715327  0.74288698  0.63275144  1
  O  O258  1  0.00226166  0.25359128  0.36647457  1
  O  O259  1  0.01320763  0.25181003  0.88171116  1
  O  O260  1  0.00862348  0.76460722  0.38110979  1
  O  O261  1  0.00506565  0.75415576  0.86829278  1
  O  O262  1  0.49834235  0.25804749  0.36620840  1
  O  O263  1  0.50723422  0.25087981  0.86676086  1
  O  O264  1  0.50853560  0.75684222  0.37352328  1
  O  O265  1  0.49558857  0.74829875  0.86176826  1
  O  O266  1  0.24654899  0.13527976  0.49088464  1
  O  O267  1  0.24439134  0.13093852  0.99557503  1
  O  O268  1  0.24364237  0.63022190  0.49396729  1
  O  O269  1  0.24356140  0.63083678  0.99456073  1
  O  O270  1  0.74329218  0.12807490  0.49566449  1
  O  O271  1  0.74346843  0.13093157  0.99779279  1
  O  O272  1  0.73930429  0.62602134  0.49961519  1
  O  O273  1  0.74669772  0.63110205  0.99201908  1
  O  O274  1  0.25363776  0.37135600  0.00526846  1
  O  O275  1  0.24966566  0.36585307  0.50405257  1
  O  O276  1  0.25600533  0.86847985  0.00290817  1
  O  O277  1  0.24279210  0.86863328  0.51344876  1
  O  O278  1  0.75164998  0.36817847  0.00591204  1
  O  O279  1  0.75546793  0.36929590  0.50503016  1
  O  O280  1  0.75724971  0.86696829  -0.00350854  1
  O  O281  1  0.75982777  0.87641834  0.50811537  1
  O  O282  1  0.13050093  0.49216395  0.24889287  1
  O  O283  1  0.12773972  0.49292603  0.74374637  1
  O  O284  1  0.13383824  0.99125579  0.25152048  1
  O  O285  1  0.12589889  0.99224239  0.74247871  1
  O  O286  1  0.63281933  0.50039091  0.24195552  1
  O  O287  1  0.63037375  0.49345286  0.74393839  1
  O  O288  1  0.63833856  1.00119064  0.25240088  1
  O  O289  1  0.63222087  0.99079070  0.74650849  1
  O  O290  1  0.36570940  0.00458796  0.25939166  1
  O  O291  1  0.37041085  0.00715286  0.76063851  1
  O  O292  1  0.36868553  0.50656482  0.25530066  1
  O  O293  1  0.37354941  0.50678661  0.75656519  1
  O  O294  1  0.86856219  0.00612655  0.25657681  1
  O  O295  1  0.86719052  0.00657132  0.75170008  1
  O  O296  1  0.87038917  0.50799593  0.25460451  1
  O  O297  1  0.87022603  0.50840523  0.75670514  1
  O  O298  1  0.12411000  0.37453927  0.36196694  1
  O  O299  1  0.12400131  0.36747111  0.86669640  1
  O  O300  1  0.11921723  0.87261497  0.36963242  1
  O  O301  1  0.11998054  0.86959590  0.86985340  1
  O  O302  1  0.61389806  0.37248792  0.37215374  1
  O  O303  1  0.62380254  0.36828059  0.86665331  1
  O  O304  1  0.61823400  0.86631333  0.37542411  1
  O  O305  1  0.62672167  0.87601597  0.86024410  1
  O  O306  1  0.38230801  0.12720265  0.13247117  1
  O  O307  1  0.37188573  0.13163270  0.63242024  1
  O  O308  1  0.38029144  0.62983802  0.12934381  1
  O  O309  1  0.38058690  0.62963787  0.63173171  1
  O  O310  1  0.88040020  0.13140215  0.13054609  1
  O  O311  1  0.86946466  0.13335554  0.63281353  1
  O  O312  1  0.88223146  0.62593124  0.13245166  1
  O  O313  1  0.87942869  0.61783766  0.63698476  1
  O  O314  1  0.25216319  0.25736546  0.11818798  1
  O  O315  1  0.25330201  0.25506749  0.61673264  1
  O  O316  1  0.25695211  0.75053967  0.11746542  1
  O  O317  1  0.25525766  0.75740768  0.62122307  1
  O  O318  1  0.75441920  0.25440154  0.11993092  1
  O  O319  1  0.75714333  0.25563371  0.61864186  1
  O  O320  1  0.75513374  0.75010460  0.11166693  1
  O  O321  1  0.74779021  0.76330810  0.62341594  1
  O  O322  1  0.25126399  0.24227539  0.38143217  1
  O  O323  1  0.23985685  0.24455515  0.88095698  1
  O  O324  1  0.24634206  0.74542620  0.38106847  1
  O  O325  1  0.24440038  0.74498102  0.88022931  1
  O  O326  1  0.75024031  0.24325730  0.38167761  1
  O  O327  1  0.74309257  0.24893864  0.88107071  1
  O  O328  1  0.73893577  0.74789803  0.38119525  1
  O  O329  1  0.75483076  0.73740386  0.88286594  1
  O  O330  1  0.00537284  0.12346857  0.00628823  1
  O  O331  1  0.00095444  0.11043753  0.49173209  1
  O  O332  1  0.00268930  0.61838131  0.00486003  1
  O  O333  1  0.00535132  0.62157614  0.50434819  1
  O  O334  1  0.50464298  0.11981574  0.00579690  1
  O  O335  1  0.51323284  0.12955485  0.49760223  1
  O  O336  1  0.50519452  0.61905244  0.00502713  1
  O  O337  1  0.51140754  0.62311157  0.50636205  1
  O  O338  1  0.49833842  0.37345661  0.48835295  1
  O  O339  1  0.49307133  0.38112701  0.99865231  1
  O  O340  1  0.50427042  0.86823516  0.48804370  1
  O  O341  1  0.49431927  0.87984377  0.99879971  1
  O  O342  1  0.99342081  0.38355327  0.49850123  1
  O  O343  1  0.99820940  0.38824170  0.99692463  1
  O  O344  1  0.99527171  0.88368088  0.49307013  1
  O  O345  1  0.98928378  0.87396464  0.99390810  1
  O  O346  1  0.49521437  0.49029900  0.37378290  1
  O  O347  1  0.49262376  0.49799615  0.88223148  1
  O  O348  1  0.48830202  0.99188603  0.37192190  1
  O  O349  1  0.49257869  0.99729971  0.88292326  1
  O  O350  1  0.99303712  0.49962612  0.38212011  1
  O  O351  1  0.99066897  0.50340786  0.88244665  1
  O  O352  1  0.99678757  0.99060585  0.38361035  1
  O  O353  1  0.99242198  0.99122081  0.87705027  1
  O  O354  1  0.00130451  0.00962705  0.12289880  1
  O  O355  1  0.01068326  -0.00816856  0.61487159  1
  O  O356  1  -0.00056550  0.51011779  0.11296247  1
  O  O357  1  0.00552670  0.50866290  0.61816659  1
  O  O358  1  0.50050293  0.00611944  0.11973947  1
  O  O359  1  0.49435104  -0.00372243  0.62269911  1
  O  O360  1  0.50539655  0.50548997  0.11960358  1
  O  O361  1  0.50693417  0.50533608  0.62442418  1
  O  O362  1  0.24327071  0.38008102  0.24572594  1
  O  O363  1  0.23843084  0.37702037  0.74296432  1
  O  O364  1  0.24159613  0.88500185  0.25187322  1
  O  O365  1  0.24412922  0.87322783  0.73789686  1
  O  O366  1  0.74911996  0.38147260  0.24244357  1
  O  O367  1  0.74436724  0.37998981  0.74409524  1
  O  O368  1  0.75194198  0.88684664  0.25158926  1
  O  O369  1  0.74626403  0.87977701  0.74399757  1
  O  O370  1  0.25346776  0.11943592  0.25707551  1
  O  O371  1  0.25682460  0.12423909  0.75878007  1
  O  O372  1  0.25420174  0.62058260  0.25561348  1
  O  O373  1  0.25632125  0.62546282  0.75664964  1
  O  O374  1  0.75586391  0.11879855  0.25603108  1
  O  O375  1  0.75239803  0.11248053  0.74818049  1
  O  O376  1  0.76063991  0.61726402  0.24947180  1
  O  O377  1  0.75529793  0.62075052  0.75494134  1
  O  O378  1  0.36497716  0.11756850  0.36984532  1
  O  O379  1  0.36912077  0.12002760  0.87220205  1
  O  O380  1  0.37013218  0.62128822  0.36946125  1
  O  O381  1  0.36886523  0.61970804  0.87047556  1
  O  O382  1  0.87021877  0.11941683  0.36976901  1
  O  O383  1  0.87139342  0.11906499  0.86384359  1
  O  O384  1  0.87519019  0.61954115  0.36668204  1
  O  O385  1  0.86642153  0.61620085  0.86633669  1
  O  O386  1  0.13037500  0.37764479  0.13486903  1
  O  O387  1  0.12908987  0.38021305  0.63158284  1
  O  O388  1  0.12593487  0.87685499  0.13633359  1
  O  O389  1  0.13240504  0.88259760  0.63053856  1
  O  O390  1  0.63156799  0.38198507  0.12636506  1
  O  O391  1  0.63033765  0.37788765  0.62887094  1
  O  O392  1  0.63051393  0.87875387  0.13158410  1
  O  O393  1  0.63454217  0.87584504  0.63392087  1
  O  O394  1  0.11987636  0.26046014  0.25064072  1
  O  O395  1  0.12923034  0.25951118  0.75983979  1
  O  O396  1  0.13370488  0.76437096  0.25779399  1
  O  O397  1  0.11858702  0.75469518  0.75618815  1
  O  O398  1  0.61269117  0.24977661  0.25345191  1
  O  O399  1  0.62117908  0.25268319  0.75255301  1
  O  O400  1  0.62576520  0.74776842  0.26290590  1
  O  O401  1  0.61550747  0.75690774  0.74442259  1
  O  O402  1  0.38539049  0.24398167  0.24913476  1
  O  O403  1  0.37898569  0.24494222  0.74654719  1
  O  O404  1  0.37483944  0.74329390  0.24335042  1
  O  O405  1  0.38402244  0.74473892  0.74340867  1
  O  O406  1  0.87993213  0.24485674  0.24373988  1
  O  O407  1  0.86897463  0.23886913  0.74027730  1
  O  O408  1  0.86890388  0.73639601  0.25103538  1
  O  O409  1  0.88026344  0.73673883  0.75749911  1
  O  O410  1  0.37865353  0.49845400  0.49164191  1
  O  O411  1  0.38017239  0.49566852  0.99512352  1
  O  O412  1  0.36458707  1.00475156  0.48644778  1
  O  O413  1  0.38003038  0.99478429  0.99686790  1
  O  O414  1  0.87934355  0.49507950  0.49548231  1
  O  O415  1  0.88163206  0.50192424  0.98942488  1
  O  O416  1  0.88275481  0.99190810  0.49608535  1
  O  O417  1  0.87205543  0.98925427  0.99221049  1
  O  O418  1  0.12258162  0.00804853  0.00256643  1
  O  O419  1  0.11754150  0.00155669  0.50812839  1
  O  O420  1  0.11492345  0.50714730  -0.00134764  1
  O  O421  1  0.11962926  0.50664410  0.50422319  1
  O  O422  1  0.61895647  0.00591895  -0.00044787  1
  O  O423  1  0.62926603  0.01353087  0.49965681  1
  O  O424  1  0.62011028  0.50565482  0.00491631  1
  O  O425  1  0.62450491  0.50799198  0.50524530  1
  O  O426  1  0.36805706  0.37434647  0.11820126  1
  O  O427  1  0.36723223  0.36823735  0.62410202  1
  O  O428  1  0.37351116  0.86839320  0.11964497  1
  O  O429  1  0.36757886  0.87262975  0.62687024  1
  O  O430  1  0.86865757  0.36858921  0.12213018  1
  O  O431  1  0.86910899  0.36822172  0.62088346  1
  O  O432  1  0.87331001  0.87341109  0.11379354  1
  O  O433  1  0.86794905  0.87995396  0.61546063  1
  O  O434  1  0.13771936  0.12544851  0.37514023  1
  O  O435  1  0.12914872  0.13212240  0.87920807  1
  O  O436  1  0.13003763  0.63103900  0.37905158  1
  O  O437  1  0.12889089  0.63112962  0.87955254  1
  O  O438  1  0.63063252  0.12648419  0.38694924  1
  O  O439  1  0.62715170  0.13112445  0.88084105  1
  O  O440  1  0.62430162  0.63138775  0.38330591  1
  O  O441  1  0.63820335  0.61582408  0.87966831  1
