# generated using pymatgen
data_V93Zn93O256
_symmetry_space_group_name_H-M   'P 1'
_cell_length_a   17.05623520
_cell_length_b   17.06044366
_cell_length_c   17.05473045
_cell_angle_alpha   90.02304194
_cell_angle_beta   89.94213101
_cell_angle_gamma   89.98714312
_symmetry_Int_Tables_number   1
_chemical_formula_structural   V93Zn93O256
_chemical_formula_sum   'V93 Zn93 O256'
_cell_volume   4962.70076161
_cell_formula_units_Z   1
loop_
 _symmetry_equiv_pos_site_id
 _symmetry_equiv_pos_as_xyz
  1  'x, y, z'
loop_
 _atom_site_type_symbol
 _atom_site_label
 _atom_site_symmetry_multiplicity
 _atom_site_fract_x
 _atom_site_fract_y
 _atom_site_fract_z
 _atom_site_occupancy
  V  V0  1  0.37615741  0.12637016  0.75129174  1
  V  V1  1  0.12852406  0.50283844  0.12939841  1
  V  V2  1  0.74919758  0.37511732  0.62566064  1
  V  V3  1  0.87509302  0.87440298  0.00108220  1
  V  V4  1  0.12917920  0.87590866  0.74378029  1
  V  V5  1  0.62915452  0.74201585  0.37462917  1
  V  V6  1  0.37669277  0.23393653  0.12305522  1
  V  V7  1  0.62442275  0.25043133  0.87450586  1
  V  V8  1  0.62423586  0.24913371  0.37394041  1
  V  V9  1  0.87310192  0.75006571  0.12564049  1
  V  V10  1  0.00188455  0.12522009  0.62491834  1
  V  V11  1  -0.00012034  0.37471972  0.37323061  1
  V  V12  1  0.50045350  0.87393323  0.37599523  1
  V  V13  1  0.88154758  0.12524166  0.24757266  1
  V  V14  1  0.62257528  0.37299589  0.24892714  1
  V  V15  1  0.74832400  0.37556615  0.12618805  1
  V  V16  1  0.49880489  0.62418398  0.12411071  1
  V  V17  1  0.12623724  0.24931907  0.37430140  1
  V  V18  1  0.25057945  0.37361509  0.62562304  1
  V  V19  1  0.37480334  0.75159324  0.12513957  1
  V  V20  1  0.87506788  0.00048288  0.37404519  1
  V  V21  1  0.12417161  0.37355550  0.75487031  1
  V  V22  1  0.62615339  0.12495829  0.50011123  1
  V  V23  1  0.75077658  0.12393449  0.87443281  1
  V  V24  1  0.37546425  0.00043325  0.87519435  1
  V  V25  1  0.49878715  0.37384249  0.87562267  1
  V  V26  1  0.75028724  0.87515503  0.62503782  1
  V  V27  1  0.62180740  0.00289803  0.12555090  1
  V  V28  1  0.87260796  0.37669586  0.00139933  1
  V  V29  1  0.25107459  0.62451755  0.37488022  1
  V  V30  1  0.49876341  0.50001406  0.00149412  1
  V  V31  1  0.37396851  0.49861638  0.87533805  1
  V  V32  1  0.00427744  0.24992064  0.75471684  1
  V  V33  1  0.24986505  -0.00209814  0.74378134  1
  V  V34  1  0.50137596  -0.00089748  0.49931366  1
  V  V35  1  0.37468143  0.62516919  0.74922744  1
  V  V36  1  0.37475160  0.49989704  0.37368936  1
  V  V37  1  0.00120785  0.37415789  0.87534327  1
  V  V38  1  0.00195928  0.00478904  0.00430560  1
  V  V39  1  0.37358168  0.87512782  0.50472642  1
  V  V40  1  0.50070957  0.75009145  0.24997553  1
  V  V41  1  0.87262426  0.50109474  0.87576504  1
  V  V42  1  0.49993463  0.87392725  0.87340950  1
  V  V43  1  0.87526533  0.87503257  0.49946460  1
  V  V44  1  0.49558917  0.23494807  0.24555721  1
  V  V45  1  0.12595712  0.12345337  0.50007607  1
  V  V46  1  0.25849492  0.12394186  0.37321700  1
  V  V47  1  0.50074488  0.00082567  0.00090656  1
  V  V48  1  0.87487061  0.74904235  0.62496985  1
  V  V49  1  0.00071066  0.87618834  0.87461340  1
  V  V50  1  -0.00059224  0.62469147  0.62597396  1
  V  V51  1  0.23664951  0.13104740  0.88054620  1
  V  V52  1  0.12599271  0.62534996  0.50039415  1
  V  V53  1  0.74833751  0.50225266  0.25825606  1
  V  V54  1  0.87465817  0.62511775  0.75045254  1
  V  V55  1  0.00039220  0.49925827  0.50013000  1
  V  V56  1  0.86973193  0.62562793  0.25752661  1
  V  V57  1  0.37447671  0.87543525  -0.00018112  1
  V  V58  1  0.12420876  0.62720498  -0.00022642  1
  V  V59  1  0.12507967  0.49938892  0.62580680  1
  V  V60  1  0.25177863  0.75420590  0.50677352  1
  V  V61  1  0.75126711  -0.00129978  0.74933678  1
  V  V62  1  0.74990900  0.74256876  0.49600975  1
  V  V63  1  0.25770129  0.00216814  0.25063104  1
  V  V64  1  0.12585750  0.75078064  0.37519310  1
  V  V65  1  0.49952829  0.49976073  0.49973924  1
  V  V66  1  0.49974005  0.62517072  0.62437511  1
  V  V67  1  0.00146199  0.87511281  0.37510528  1
  V  V68  1  0.62598076  0.87493507  0.24952922  1
  V  V69  1  0.87564779  0.37475892  0.49985259  1
  V  V70  1  0.75060881  0.00026655  0.24992708  1
  V  V71  1  0.49787008  0.37359795  0.37262707  1
  V  V72  1  -0.00231642  0.62737977  0.12609046  1
  V  V73  1  0.24827589  0.62521816  0.87498158  1
  V  V74  1  0.74939390  0.75039169  -0.00065561  1
  V  V75  1  0.12225408  0.00547226  0.12320027  1
  V  V76  1  0.12578504  0.75105827  0.87550250  1
  V  V77  1  0.00065367  0.00043139  0.50089962  1
  V  V78  1  0.37458045  0.62456158  0.25062755  1
  V  V79  1  0.74919712  0.62544895  0.87494269  1
  V  V80  1  0.50000278  0.74983616  0.74918137  1
  V  V81  1  0.87639966  0.25010460  0.62486117  1
  V  V82  1  0.50100877  0.12534684  0.62564338  1
  V  V83  1  0.24891953  0.49926484  0.75098644  1
  V  V84  1  0.74960271  0.24970153  0.49942545  1
  V  V85  1  0.87902832  0.24679849  0.12595479  1
  V  V86  1  0.37336345  0.37420413  0.50053956  1
  V  V87  1  0.62488745  0.49925251  0.62662823  1
  V  V88  1  -0.00253706  0.50355899  0.00066358  1
  V  V89  1  0.25034646  0.87590231  0.12429173  1
  V  V90  1  0.12503002  0.87426833  0.25074968  1
  V  V91  1  0.62100596  0.12453278  0.00408707  1
  V  V92  1  0.62449329  0.74975421  0.87461564  1
  Zn  Zn93  1  0.37936210  0.00232786  0.37162619  1
  Zn  Zn94  1  0.25225412  0.36977373  0.12630727  1
  Zn  Zn95  1  0.87570582  0.00088791  0.87774046  1
  Zn  Zn96  1  0.22790480  0.25103106  -0.00040685  1
  Zn  Zn97  1  0.36759771  0.37001899  0.00301957  1
  Zn  Zn98  1  -0.00199116  0.75015478  0.25110683  1
  Zn  Zn99  1  0.49976630  0.25116528  0.74930083  1
  Zn  Zn100  1  0.00322839  0.24847128  0.24599643  1
  Zn  Zn101  1  0.12853142  -0.00363692  0.62172972  1
  Zn  Zn102  1  0.75117511  0.12549605  0.37541497  1
  Zn  Zn103  1  0.62645170  0.37379858  0.75060001  1
  Zn  Zn104  1  0.25106343  0.49715947  0.25010416  1
  Zn  Zn105  1  0.62692804  -0.00165848  0.62394091  1
  Zn  Zn106  1  0.25266007  0.24761015  0.50170092  1
  Zn  Zn107  1  0.24999544  0.75155141  -0.00036356  1
  Zn  Zn108  1  0.74959991  0.87462784  0.12376170  1
  Zn  Zn109  1  0.37412332  0.25060202  0.62487699  1
  Zn  Zn110  1  0.87064652  0.50454661  0.37906452  1
  Zn  Zn111  1  0.62418752  0.87479233  0.74763054  1
  Zn  Zn112  1  0.74923750  0.24988205  0.00065699  1
  Zn  Zn113  1  0.87694107  0.12489307  0.74985778  1
  Zn  Zn114  1  0.12728775  0.37677091  0.25131495  1
  Zn  Zn115  1  0.00077283  0.75144110  0.74857930  1
  Zn  Zn116  1  0.74912484  0.49844517  0.75133331  1
  Zn  Zn117  1  0.62759232  0.62177629  0.49656214  1
  Zn  Zn118  1  0.06021932  0.16723749  0.06344005  1
  Zn  Zn119  1  0.62471881  0.62535401  0.00117646  1
  Zn  Zn120  1  0.37405408  0.75289679  0.62691060  1
  Zn  Zn121  1  0.62252658  0.50059988  0.12578478  1
  Zn  Zn122  1  0.19530699  0.18844151  0.19207788  1
  Zn  Zn123  1  0.18770795  0.18690191  0.68841616  1
  Zn  Zn124  1  0.18874024  0.68815359  0.18813713  1
  Zn  Zn125  1  0.18626191  0.68807441  0.68877345  1
  Zn  Zn126  1  0.69029844  0.18709157  0.18985515  1
  Zn  Zn127  1  0.68778835  0.18726172  0.68779659  1
  Zn  Zn128  1  0.68683837  0.68551317  0.18512479  1
  Zn  Zn129  1  0.68728353  0.68673172  0.68730175  1
  Zn  Zn130  1  0.31277953  0.31165976  0.30568031  1
  Zn  Zn131  1  0.31124712  0.31054479  0.81388993  1
  Zn  Zn132  1  0.31270948  0.81393214  0.31531217  1
  Zn  Zn133  1  0.31223164  0.81218522  0.81224465  1
  Zn  Zn134  1  0.81254810  0.31277319  0.31245376  1
  Zn  Zn135  1  0.81383367  0.31298593  0.81057879  1
  Zn  Zn136  1  0.81145323  0.81380549  0.31233926  1
  Zn  Zn137  1  0.81356086  0.81213082  0.81246862  1
  Zn  Zn138  1  0.18868274  0.43710719  0.43834088  1
  Zn  Zn139  1  0.18652157  0.43570064  0.94120540  1
  Zn  Zn140  1  0.18965468  0.93801939  0.43676028  1
  Zn  Zn141  1  0.18774049  0.94242326  0.93586646  1
  Zn  Zn142  1  0.68457417  0.43393476  0.43868463  1
  Zn  Zn143  1  0.68595295  0.43874282  0.93934083  1
  Zn  Zn144  1  0.68812797  0.93489749  0.43701929  1
  Zn  Zn145  1  0.68694457  0.93568863  0.93620361  1
  Zn  Zn146  1  0.30959635  0.06208415  0.06069921  1
  Zn  Zn147  1  0.31512497  0.06203592  0.56011758  1
  Zn  Zn148  1  0.31252026  0.56393958  0.06068864  1
  Zn  Zn149  1  0.31272039  0.56241643  0.56254418  1
  Zn  Zn150  1  0.81088482  0.06151833  0.06274429  1
  Zn  Zn151  1  0.81453356  0.06392728  0.56293336  1
  Zn  Zn152  1  0.81038330  0.56420978  0.06540575  1
  Zn  Zn153  1  0.81304663  0.56129382  0.56390788  1
  Zn  Zn154  1  0.43332540  0.43028133  0.18571935  1
  Zn  Zn155  1  0.43758226  0.43768573  0.68850702  1
  Zn  Zn156  1  0.44005693  0.93792614  0.18617246  1
  Zn  Zn157  1  0.43786893  0.93876405  0.68649090  1
  Zn  Zn158  1  0.93661240  0.44023393  0.18960826  1
  Zn  Zn159  1  0.93652300  0.43755598  0.68864575  1
  Zn  Zn160  1  0.93830839  0.93669735  0.18705721  1
  Zn  Zn161  1  0.93713032  0.93863423  0.68766786  1
  Zn  Zn162  1  0.06570849  0.06155429  0.31153997  1
  Zn  Zn163  1  0.06180778  0.06021060  0.81114376  1
  Zn  Zn164  1  0.05900028  0.56532134  0.31289748  1
  Zn  Zn165  1  0.06026577  0.56150733  0.81311089  1
  Zn  Zn166  1  0.56553694  0.06103737  0.31574808  1
  Zn  Zn167  1  0.56459012  0.06056331  0.81289260  1
  Zn  Zn168  1  0.56102087  0.56074524  0.31016301  1
  Zn  Zn169  1  0.56247622  0.56338147  0.81228026  1
  Zn  Zn170  1  0.43898697  0.19001499  0.43831990  1
  Zn  Zn171  1  0.43579712  0.18638751  0.93924300  1
  Zn  Zn172  1  0.43871262  0.68779220  0.43793630  1
  Zn  Zn173  1  0.43595362  0.68728213  0.93720410  1
  Zn  Zn174  1  0.93799979  0.18685559  0.43633132  1
  Zn  Zn175  1  0.93347811  0.19102119  0.93575084  1
  Zn  Zn176  1  0.93885884  0.68842843  0.43816275  1
  Zn  Zn177  1  0.93685038  0.68945080  0.93689414  1
  Zn  Zn178  1  0.06317336  0.32833451  0.06129506  1
  Zn  Zn179  1  0.06461544  0.31121407  0.56293003  1
  Zn  Zn180  1  0.06245758  0.81430007  0.06367315  1
  Zn  Zn181  1  0.06195682  0.81129968  0.56174784  1
  Zn  Zn182  1  0.55799339  0.31008895  0.06355481  1
  Zn  Zn183  1  0.56131024  0.31220030  0.56135381  1
  Zn  Zn184  1  0.56296350  0.81390206  0.06184577  1
  Zn  Zn185  1  0.56427264  0.81240119  0.56276850  1
  O  O186  1  0.12611258  0.10985748  0.13616262  1
  O  O187  1  0.11925025  0.12345985  0.61775046  1
  O  O188  1  0.11813938  0.62209783  0.12028280  1
  O  O189  1  0.11971540  0.61923719  0.62010227  1
  O  O190  1  0.63386450  0.11665098  0.11376798  1
  O  O191  1  0.61643030  0.12386793  0.61982200  1
  O  O192  1  0.61436428  0.62143133  0.12216845  1
  O  O193  1  0.61943931  0.61452978  0.62301818  1
  O  O194  1  0.37926071  0.37995969  0.37929977  1
  O  O195  1  0.38373099  0.37912253  0.87658987  1
  O  O196  1  0.38357578  0.87505053  0.38536582  1
  O  O197  1  0.37997999  0.88089559  0.87999139  1
  O  O198  1  0.88517830  0.37467377  0.38144431  1
  O  O199  1  0.87865207  0.38118860  0.88156823  1
  O  O200  1  0.88143879  0.88030276  0.37993203  1
  O  O201  1  0.88637398  0.87505746  0.88058712  1
  O  O202  1  0.25137890  0.00663358  0.36655215  1
  O  O203  1  0.25611414  0.01079307  0.86592652  1
  O  O204  1  0.25669536  0.50775389  0.37557113  1
  O  O205  1  0.25401755  0.50510318  0.86985273  1
  O  O206  1  0.75764424  -0.00045517  0.36842448  1
  O  O207  1  0.74975171  0.00774789  0.86799263  1
  O  O208  1  0.75005766  0.49229464  0.36266290  1
  O  O209  1  0.75479100  0.50637478  0.87490313  1
  O  O210  1  0.23697302  0.50569648  0.12562031  1
  O  O211  1  0.24426781  0.49494587  0.63157964  1
  O  O212  1  0.24281067  0.99588860  0.13150845  1
  O  O213  1  0.24992504  1.00683792  0.64004082  1
  O  O214  1  0.74902335  0.48866689  0.13387995  1
  O  O215  1  0.73998929  0.49430040  0.62424906  1
  O  O216  1  0.73865718  0.99741457  0.13028056  1
  O  O217  1  0.75195984  0.99506430  0.63333718  1
  O  O218  1  0.00151134  0.37445758  0.26257737  1
  O  O219  1  0.00394438  0.36851194  0.75459656  1
  O  O220  1  0.00630512  0.87341957  0.25773446  1
  O  O221  1  0.00810906  0.87693840  0.75997563  1
  O  O222  1  0.50544835  0.36774745  0.25582477  1
  O  O223  1  0.50205313  0.37370789  0.76376778  1
  O  O224  1  0.50612699  0.86899364  0.25522128  1
  O  O225  1  0.49961956  0.86917562  0.75586664  1
  O  O226  1  0.50494212  0.13621781  0.25486793  1
  O  O227  1  0.49253159  0.12178066  0.74310573  1
  O  O228  1  0.49379201  0.63081015  0.24431800  1
  O  O229  1  0.49351266  0.62946340  0.74522498  1
  O  O230  1  0.98563770  0.12528439  0.25413340  1
  O  O231  1  0.99929452  0.13312528  0.74602402  1
  O  O232  1  0.98793278  0.62750641  0.24429785  1
  O  O233  1  0.99372463  0.62725888  0.74374013  1
  O  O234  1  0.37943256  0.24915587  0.01468749  1
  O  O235  1  0.37340702  0.25903651  0.50329052  1
  O  O236  1  0.37396214  0.75736935  0.00660677  1
  O  O237  1  0.36799729  0.75679427  0.50037958  1
  O  O238  1  0.87150603  0.25690209  0.00998168  1
  O  O239  1  0.87050595  0.25537229  0.50501464  1
  O  O240  1  0.86948468  0.75512936  0.00532848  1
  O  O241  1  0.86809672  0.75481929  0.50362531  1
  O  O242  1  0.12721423  0.24354048  0.48894140  1
  O  O243  1  0.11498460  0.24627081  1.00872106  1
  O  O244  1  0.13329278  0.74604779  0.49580364  1
  O  O245  1  0.12635773  0.74508236  0.99392175  1
  O  O246  1  0.62943320  0.24534106  0.49398918  1
  O  O247  1  0.62520434  0.24148717  0.99200472  1
  O  O248  1  0.63326345  0.74872609  0.49134791  1
  O  O249  1  0.63035286  0.74925803  0.99259318  1
  O  O250  1  0.48897602  0.25106679  0.13303131  1
  O  O251  1  0.49909106  0.23727378  0.62755452  1
  O  O252  1  0.49467015  0.74585310  0.13052516  1
  O  O253  1  0.49981904  0.74264693  0.63109086  1
  O  O254  1  0.98729818  0.25227463  0.12579985  1
  O  O255  1  0.99563166  0.24562409  0.63234991  1
  O  O256  1  0.99204033  0.74484595  0.12674060  1
  O  O257  1  0.99289780  0.74230308  0.62458215  1
  O  O258  1  0.00866086  0.25862671  0.37560619  1
  O  O259  1  -0.00950961  0.25815817  0.86266167  1
  O  O260  1  0.00838722  0.75747049  0.37592438  1
  O  O261  1  0.00625026  0.76165760  0.87445617  1
  O  O262  1  0.50409973  0.25489577  0.36677550  1
  O  O263  1  0.50814806  0.25732060  0.87652531  1
  O  O264  1  0.50888954  0.75450702  0.36962541  1
  O  O265  1  0.50378919  0.75431091  0.86917225  1
  O  O266  1  0.24389203  0.12397379  0.49126122  1
  O  O267  1  0.25167896  0.12321095  0.98285512  1
  O  O268  1  0.24550385  0.63217457  0.49447939  1
  O  O269  1  0.24264001  0.62690582  0.99184358  1
  O  O270  1  0.74452100  0.13248241  0.50009216  1
  O  O271  1  0.73981893  0.12456595  0.98994423  1
  O  O272  1  0.74980684  0.63900655  0.50406492  1
  O  O273  1  0.74843783  0.63180621  0.99353406  1
  O  O274  1  0.24974288  0.36753534  0.00390458  1
  O  O275  1  0.25613381  0.37437826  0.50766262  1
  O  O276  1  0.25700920  0.87697335  0.00536991  1
  O  O277  1  0.26011959  0.86526990  0.49256459  1
  O  O278  1  0.75404116  0.37534630  0.01053233  1
  O  O279  1  0.75544623  0.36920255  0.50567504  1
  O  O280  1  0.75740208  0.86852222  -0.00097497  1
  O  O281  1  0.75692816  0.86655665  0.50522373  1
  O  O282  1  0.12505969  0.50533250  0.23990053  1
  O  O283  1  0.12950549  0.49502959  0.74471072  1
  O  O284  1  0.13292458  0.99279917  0.24344178  1
  O  O285  1  0.13314178  0.99206124  0.74825552  1
  O  O286  1  0.63158311  0.49268666  0.24807373  1
  O  O287  1  0.62527976  0.49790455  0.73786884  1
  O  O288  1  0.62942256  0.99639783  0.24292548  1
  O  O289  1  0.63895273  0.99825137  0.74821933  1
  O  O290  1  0.36184722  -0.00756524  0.25096839  1
  O  O291  1  0.36882734  0.00678233  0.75443871  1
  O  O292  1  0.37585876  0.50724422  0.25657759  1
  O  O293  1  0.36849044  0.50520843  0.75617994  1
  O  O294  1  0.87096688  0.00663191  0.25280666  1
  O  O295  1  0.86413404  0.00291288  0.75453730  1
  O  O296  1  0.86562432  0.50769885  0.25295111  1
  O  O297  1  0.87323609  0.50670395  0.75717420  1
  O  O298  1  0.11718742  0.36643098  0.37735085  1
  O  O299  1  0.11345747  0.38503412  0.86712753  1
  O  O300  1  0.12081816  0.87029734  0.37067921  1
  O  O301  1  0.11788458  0.87222553  0.86807171  1
  O  O302  1  0.61739520  0.36787080  0.36931914  1
  O  O303  1  0.61800193  0.36609197  0.87637824  1
  O  O304  1  0.61950266  0.86546356  0.36920807  1
  O  O305  1  0.61726433  0.86811254  0.87259911  1
  O  O306  1  0.37407166  0.13418024  0.12240036  1
  O  O307  1  0.38402252  0.12405866  0.63397325  1
  O  O308  1  0.37956872  0.63168340  0.13032134  1
  O  O309  1  0.38189740  0.62456899  0.63222310  1
  O  O310  1  0.86612760  0.13703194  0.13312598  1
  O  O311  1  0.88372066  0.13292169  0.62555821  1
  O  O312  1  0.87891428  0.63024080  0.13381766  1
  O  O313  1  0.88021817  0.62944135  0.63008861  1
  O  O314  1  0.26375067  0.24626578  0.12289023  1
  O  O315  1  0.25202169  0.25787299  0.62388825  1
  O  O316  1  0.25699116  0.75793790  0.12374574  1
  O  O317  1  0.25187212  0.74362623  0.61051563  1
  O  O318  1  0.75769204  0.26162830  0.12588951  1
  O  O319  1  0.75515421  0.25514721  0.61974345  1
  O  O320  1  0.75502074  0.75131347  0.11726740  1
  O  O321  1  0.75518766  0.75496213  0.61673426  1
  O  O322  1  0.24190915  0.24099943  0.37418931  1
  O  O323  1  0.25310285  0.23424381  0.87592507  1
  O  O324  1  0.24538308  0.74399484  0.38439573  1
  O  O325  1  0.24357919  0.74290595  0.87607134  1
  O  O326  1  0.74247913  0.25110221  0.38173539  1
  O  O327  1  0.74155034  0.24256815  0.87603878  1
  O  O328  1  0.74043862  0.75719208  0.38459464  1
  O  O329  1  0.74521472  0.74499063  0.87972827  1
  O  O330  1  -0.00894922  0.10945393  -0.00605533  1
  O  O331  1  0.00606866  0.11960159  0.50401234  1
  O  O332  1  0.00383718  0.62160165  0.00527145  1
  O  O333  1  0.00600237  0.61952370  0.50552010  1
  O  O334  1  0.51491218  0.11661480  -0.00929592  1
  O  O335  1  0.50453277  0.12016822  0.50753517  1
  O  O336  1  0.49825820  0.61520818  0.00459649  1
  O  O337  1  0.50163453  0.61716398  0.50613158  1
  O  O338  1  0.49420581  0.38014870  0.49340013  1
  O  O339  1  0.49962927  0.38312973  0.98956610  1
  O  O340  1  0.49475471  0.87888298  0.49499612  1
  O  O341  1  0.49410530  0.88113118  0.99360080  1
  O  O342  1  0.99601340  0.37917465  0.49335642  1
  O  O343  1  0.99037602  0.38549473  0.99454320  1
  O  O344  1  0.99474175  0.88026246  0.49511716  1
  O  O345  1  0.99593605  0.88277254  0.99199694  1
  O  O346  1  0.49488860  0.49373231  0.37973635  1
  O  O347  1  0.49509318  0.49312193  0.88138371  1
  O  O348  1  0.49969445  0.99252711  0.38071618  1
  O  O349  1  0.49563858  0.99357360  0.87987632  1
  O  O350  1  1.00044775  0.49027322  0.38245249  1
  O  O351  1  0.99143789  0.49613567  0.88150042  1
  O  O352  1  0.99547047  0.99448779  0.38100408  1
  O  O353  1  1.00045406  0.99064257  0.88359227  1
  O  O354  1  0.00949301  -0.00620820  0.11591097  1
  O  O355  1  0.00095195  0.00705729  0.61832981  1
  O  O356  1  0.00533974  0.50751552  0.12036196  1
  O  O357  1  0.00547555  0.50447218  0.61967461  1
  O  O358  1  0.51417707  -0.00410380  0.11896576  1
  O  O359  1  0.50248886  0.01083403  0.61967012  1
  O  O360  1  0.49727414  0.50379449  0.11572721  1
  O  O361  1  0.50738164  0.50352134  0.62030305  1
  O  O362  1  0.24404915  0.38023790  0.24606299  1
  O  O363  1  0.24451094  0.38039322  0.74718991  1
  O  O364  1  0.24475604  0.88246011  0.24570429  1
  O  O365  1  0.24093932  0.88623166  0.75879952  1
  O  O366  1  0.74471900  0.38124875  0.24314766  1
  O  O367  1  0.74717347  0.37744391  0.74164647  1
  O  O368  1  0.74333230  0.88242743  0.24803435  1
  O  O369  1  0.75112375  0.88326570  0.74485820  1
  O  O370  1  0.24527006  0.11223873  0.26222423  1
  O  O371  1  0.25816163  0.11892501  0.75851777  1
  O  O372  1  0.25798398  0.62536672  0.25789537  1
  O  O373  1  0.25377311  0.61868796  0.75504783  1
  O  O374  1  0.76062194  0.11842305  0.25333216  1
  O  O375  1  0.75055104  0.11764162  0.75823760  1
  O  O376  1  0.75773811  0.61318120  0.24281516  1
  O  O377  1  0.75710331  0.62331227  0.75652032  1
  O  O378  1  0.36227764  0.12311324  0.38206622  1
  O  O379  1  0.37391015  0.11863895  0.86510537  1
  O  O380  1  0.37163771  0.61980212  0.37020652  1
  O  O381  1  0.36876619  0.61892941  0.86877744  1
  O  O382  1  0.87286637  0.11901996  0.36697424  1
  O  O383  1  0.86048746  0.12420503  0.87419596  1
  O  O384  1  0.87936885  0.62438516  0.36228275  1
  O  O385  1  0.86959649  0.62082149  0.87048897  1
  O  O386  1  0.12452907  0.39262177  0.13047484  1
  O  O387  1  0.12978306  0.38121287  0.63194095  1
  O  O388  1  0.13095980  0.88272369  0.13091949  1
  O  O389  1  0.11870994  0.87531644  0.63957372  1
  O  O390  1  0.63352665  0.37375572  0.12954723  1
  O  O391  1  0.62849940  0.38341756  0.62524655  1
  O  O392  1  0.62672880  0.88423654  0.13102873  1
  O  O393  1  0.63425333  0.87780341  0.62716343  1
  O  O394  1  0.12202165  0.24922758  0.26269050  1
  O  O395  1  0.11145337  0.25708434  0.74430337  1
  O  O396  1  0.12423347  0.75647052  0.25742277  1
  O  O397  1  0.12388109  0.75920539  0.75632313  1
  O  O398  1  0.61810042  0.25408018  0.25353830  1
  O  O399  1  0.62182424  0.24937675  0.76337018  1
  O  O400  1  0.62148660  0.75427570  0.25622144  1
  O  O401  1  0.61795927  0.75102951  0.75659402  1
  O  O402  1  0.38367734  0.25100003  0.23703631  1
  O  O403  1  0.37813849  0.23700202  0.74885725  1
  O  O404  1  0.38141118  0.74590973  0.24556947  1
  O  O405  1  0.38021442  0.74374115  0.74792716  1
  O  O406  1  0.87571854  0.24281276  0.24283054  1
  O  O407  1  0.88564427  0.24974949  0.74239105  1
  O  O408  1  0.87249165  0.74170143  0.24500512  1
  O  O409  1  0.87731755  0.74389949  0.74263215  1
  O  O410  1  0.38049033  0.49430370  0.49376997  1
  O  O411  1  0.38434386  0.49895090  0.99321557  1
  O  O412  1  0.38202935  0.99113101  0.49694004  1
  O  O413  1  0.38133615  0.99527229  0.99532848  1
  O  O414  1  0.88123747  0.49390701  0.49843772  1
  O  O415  1  0.87831325  0.49669227  0.99647039  1
  O  O416  1  0.88052258  0.99451119  0.49412674  1
  O  O417  1  0.88301739  0.99250931  1.00074656  1
  O  O418  1  0.11556221  -0.00497801  0.01115209  1
  O  O419  1  0.11934482  0.00429510  0.50139734  1
  O  O420  1  0.11700467  0.50800352  0.00868289  1
  O  O421  1  0.12052437  0.50595010  0.50653673  1
  O  O422  1  0.62178394  0.00530040  0.00663796  1
  O  O423  1  0.61970982  0.00605709  0.50065679  1
  O  O424  1  0.61062526  0.50199458  0.00200320  1
  O  O425  1  0.61922653  0.50035437  0.50872914  1
  O  O426  1  0.37117231  0.36367447  0.12067651  1
  O  O427  1  0.36920706  0.37527824  0.62010425  1
  O  O428  1  0.37063916  0.87099421  0.11924699  1
  O  O429  1  0.38143622  0.87315209  0.60951115  1
  O  O430  1  0.86738207  0.36851572  0.12273538  1
  O  O431  1  0.87040714  0.37026056  0.61860084  1
  O  O432  1  0.87302365  0.86791104  0.11920313  1
  O  O433  1  0.87113576  0.86892375  0.61879265  1
  O  O434  1  0.13161787  0.13177980  0.38039559  1
  O  O435  1  0.13863676  0.12093433  0.86989770  1
  O  O436  1  0.12929591  0.63053886  0.38192906  1
  O  O437  1  0.12809204  0.63025048  0.87963819  1
  O  O438  1  0.62822881  0.13181656  0.38289099  1
  O  O439  1  0.63236141  0.13135337  0.88162818  1
  O  O440  1  0.61990618  0.63824889  0.37482417  1
  O  O441  1  0.63077605  0.63151078  0.87666930  1
