# generated using pymatgen
data_V93Zn93O256
_symmetry_space_group_name_H-M   'P 1'
_cell_length_a   17.05431270
_cell_length_b   17.04759666
_cell_length_c   17.05934067
_cell_angle_alpha   89.88458463
_cell_angle_beta   90.01611794
_cell_angle_gamma   90.05510546
_symmetry_Int_Tables_number   1
_chemical_formula_structural   V93Zn93O256
_chemical_formula_sum   'V93 Zn93 O256'
_cell_volume   4959.73561527
_cell_formula_units_Z   1
loop_
 _symmetry_equiv_pos_site_id
 _symmetry_equiv_pos_as_xyz
  1  'x, y, z'
loop_
 _atom_site_type_symbol
 _atom_site_label
 _atom_site_symmetry_multiplicity
 _atom_site_fract_x
 _atom_site_fract_y
 _atom_site_fract_z
 _atom_site_occupancy
  V  V0  1  0.87456518  -0.00016072  0.87570129  1
  V  V1  1  0.50199317  0.12595662  0.12434517  1
  V  V2  1  0.24998856  0.74918103  -0.00175235  1
  V  V3  1  0.50096812  0.25062562  0.25303219  1
  V  V4  1  0.00049412  0.50041669  -0.00038178  1
  V  V5  1  0.25025549  0.49828510  0.74939051  1
  V  V6  1  -0.00398418  0.24185926  0.74932841  1
  V  V7  1  0.62495423  0.50087081  0.12499521  1
  V  V8  1  0.62468887  0.37121121  0.75454934  1
  V  V9  1  0.24937274  0.25015105  -0.00002806  1
  V  V10  1  0.75148967  0.37355535  0.62286309  1
  V  V11  1  0.37532623  0.49877839  0.87426178  1
  V  V12  1  0.62710155  0.62522324  -0.00197960  1
  V  V13  1  -0.00035593  0.24940192  0.24880740  1
  V  V14  1  0.62455051  0.50051258  0.62400769  1
  V  V15  1  0.49936670  0.49926600  0.49937072  1
  V  V16  1  0.25000387  0.49972667  0.24968577  1
  V  V17  1  0.74532070  0.75200238  0.49383025  1
  V  V18  1  0.62652346  0.00073381  0.12566970  1
  V  V19  1  -0.00042467  0.62421669  0.12398852  1
  V  V20  1  -0.00096896  0.37385701  0.87425850  1
  V  V21  1  0.87495523  0.49961684  0.37404807  1
  V  V22  1  0.12345499  0.24853227  0.37605521  1
  V  V23  1  0.12441408  0.37412760  0.74984913  1
  V  V24  1  -0.00055284  0.49953629  0.49906403  1
  V  V25  1  0.74628779  0.62832782  0.37348569  1
  V  V26  1  0.12386847  0.49999186  0.62386915  1
  V  V27  1  0.37519497  0.49629405  0.37564939  1
  V  V28  1  0.50002476  0.12503282  0.62745518  1
  V  V29  1  0.12432143  0.50037675  0.12354921  1
  V  V30  1  0.00327330  0.87218132  0.86745107  1
  V  V31  1  0.86987301  0.24870130  0.12209644  1
  V  V32  1  0.75615518  0.00559314  0.75003173  1
  V  V33  1  0.00075910  -0.00100554  0.50095197  1
  V  V34  1  0.87529535  0.24226353  0.62744794  1
  V  V35  1  0.37368778  0.12277690  0.75070476  1
  V  V36  1  0.37438252  0.12416216  0.25040621  1
  V  V37  1  0.37629967  0.62335828  0.74874805  1
  V  V38  1  0.24994799  0.12330952  0.87580676  1
  V  V39  1  0.62496436  0.12613336  0.50133630  1
  V  V40  1  0.62563253  0.00021672  0.62785834  1
  V  V41  1  0.37566535  -0.00142249  0.37594984  1
  V  V42  1  0.87033149  0.37047678  -0.00059901  1
  V  V43  1  0.50224314  0.87549662  0.87632776  1
  V  V44  1  0.24981172  0.24904689  0.50141571  1
  V  V45  1  0.12500596  -0.00500808  0.63219376  1
  V  V46  1  0.12465081  0.37401198  0.24945709  1
  V  V47  1  0.49927518  0.50042169  0.00004783  1
  V  V48  1  0.62658367  0.74994295  0.87467596  1
  V  V49  1  0.50036320  0.62644674  0.12418801  1
  V  V50  1  0.50368041  0.00377242  -0.00049660  1
  V  V51  1  0.74907829  0.12601214  0.37529957  1
  V  V52  1  0.24996709  0.74918465  0.49976310  1
  V  V53  1  0.62394443  0.37580754  0.25132589  1
  V  V54  1  0.50599771  0.75280281  0.25616072  1
  V  V55  1  -0.00028030  0.75010728  0.24980119  1
  V  V56  1  0.75644648  0.87480003  0.11863905  1
  V  V57  1  0.87502254  0.74899323  0.62374422  1
  V  V58  1  0.49936913  0.00044687  0.50248367  1
  V  V59  1  0.74827935  0.37274463  0.12287069  1
  V  V60  1  0.37673168  0.87557919  0.00008937  1
  V  V61  1  0.37546624  0.74877941  0.62522510  1
  V  V62  1  -0.00584453  -0.00863012  0.00213452  1
  V  V63  1  0.12649537  0.87472388  0.25180167  1
  V  V64  1  0.12415472  0.00025308  0.12530903  1
  V  V65  1  0.87549873  0.00138983  0.37478709  1
  V  V66  1  0.37652488  0.74979737  0.12471352  1
  V  V67  1  0.87492048  0.50016217  0.87419034  1
  V  V68  1  0.24829118  0.62542701  0.37532813  1
  V  V69  1  0.24888781  0.62478914  0.87517675  1
  V  V70  1  0.74749668  0.13383292  0.87986329  1
  V  V71  1  0.24633927  0.87351067  0.63331840  1
  V  V72  1  0.12401436  0.24920893  0.87469224  1
  V  V73  1  0.87459418  0.62634507  0.24771688  1
  V  V74  1  0.24960043  0.37318154  0.62487616  1
  V  V75  1  0.50283927  0.37181411  0.87736723  1
  V  V76  1  0.12357360  0.12316618  0.50165468  1
  V  V77  1  0.74946366  0.50135963  0.24923350  1
  V  V78  1  0.75007328  0.62545099  0.87453223  1
  V  V79  1  0.74996839  0.50062166  0.74927574  1
  V  V80  1  0.62642820  0.87633433  0.75190723  1
  V  V81  1  0.62486976  0.62864846  0.49631194  1
  V  V82  1  0.50331444  0.24849776  0.75496007  1
  V  V83  1  -0.00089256  0.62355459  0.62436171  1
  V  V84  1  -0.00073987  0.12502579  0.12352757  1
  V  V85  1  0.37541569  0.87533558  0.50117609  1
  V  V86  1  0.87469991  0.87437925  0.49977320  1
  V  V87  1  0.87612800  0.62645037  0.74878505  1
  V  V88  1  0.24923733  0.37458227  0.12414952  1
  V  V89  1  0.25007605  0.87484616  0.12455436  1
  V  V90  1  -0.00134156  0.37501479  0.37473197  1
  V  V91  1  0.49993818  0.62498705  0.62471402  1
  V  V92  1  0.37352268  0.37514757  0.00040820  1
  Zn  Zn93  1  0.37786611  0.37195601  0.50258409  1
  Zn  Zn94  1  0.13020561  0.75566091  0.86798157  1
  Zn  Zn95  1  0.00775382  0.75472572  0.74306533  1
  Zn  Zn96  1  0.12338408  0.62664077  0.50044092  1
  Zn  Zn97  1  -0.00373564  0.11937204  0.62945001  1
  Zn  Zn98  1  0.37443460  -0.00138400  0.87635809  1
  Zn  Zn99  1  0.75605732  0.75611829  -0.00480212  1
  Zn  Zn100  1  0.75024962  0.87480570  0.62629361  1
  Zn  Zn101  1  0.75059975  -0.00073913  0.24916000  1
  Zn  Zn102  1  0.87336296  0.12601448  0.24987972  1
  Zn  Zn103  1  0.12337651  0.62870826  -0.00275543  1
  Zn  Zn104  1  0.37538853  0.62549838  0.24856846  1
  Zn  Zn105  1  0.37509512  0.24980106  0.62442177  1
  Zn  Zn106  1  0.00064077  0.87413871  0.37521654  1
  Zn  Zn107  1  0.50223335  0.37399027  0.37843066  1
  Zn  Zn108  1  0.12494166  0.75062592  0.37661577  1
  Zn  Zn109  1  0.87980404  0.75731527  0.11747721  1
  Zn  Zn110  1  0.50809068  0.86759139  0.38165249  1
  Zn  Zn111  1  0.50163211  0.75052171  0.74983424  1
  Zn  Zn112  1  0.25016754  0.00002421  0.25039716  1
  Zn  Zn113  1  0.62667792  0.25255408  0.37854348  1
  Zn  Zn114  1  0.37328508  0.24999214  0.12585474  1
  Zn  Zn115  1  0.24837614  0.12379404  0.37471198  1
  Zn  Zn116  1  0.87447087  0.37374763  0.49872804  1
  Zn  Zn117  1  0.63760285  0.15955092  0.00097863  1
  Zn  Zn118  1  0.12341321  0.12391699  0.00017615  1
  Zn  Zn119  1  0.75071596  0.25011935  0.50020753  1
  Zn  Zn120  1  0.63182870  0.87114486  0.25611979  1
  Zn  Zn121  1  0.24559254  -0.00612118  0.75568935  1
  Zn  Zn122  1  0.18703913  0.18644226  0.18699480  1
  Zn  Zn123  1  0.18424060  0.18435404  0.68726993  1
  Zn  Zn124  1  0.18713222  0.68714707  0.18654230  1
  Zn  Zn125  1  0.18497753  0.68737987  0.68975588  1
  Zn  Zn126  1  0.68598428  0.18552459  0.18905798  1
  Zn  Zn127  1  0.68889189  0.18659257  0.69111872  1
  Zn  Zn128  1  0.68711080  0.68950581  0.18565407  1
  Zn  Zn129  1  0.68813182  0.68961824  0.68555370  1
  Zn  Zn130  1  0.31139047  0.31155512  0.31403600  1
  Zn  Zn131  1  0.31441237  0.31013214  0.81258659  1
  Zn  Zn132  1  0.31696834  0.81173175  0.31160792  1
  Zn  Zn133  1  0.31727769  0.80945020  0.81367655  1
  Zn  Zn134  1  0.81219909  0.31206223  0.30971897  1
  Zn  Zn135  1  0.81427809  0.31307593  0.80903766  1
  Zn  Zn136  1  0.81213707  0.81587009  0.30873161  1
  Zn  Zn137  1  0.81670923  0.81574790  0.81311546  1
  Zn  Zn138  1  0.18589693  0.43622048  0.43835595  1
  Zn  Zn139  1  0.18627509  0.43787684  0.93672130  1
  Zn  Zn140  1  0.18926668  0.93686069  0.44039335  1
  Zn  Zn141  1  0.18385752  0.93779041  0.94084765  1
  Zn  Zn142  1  0.68600419  0.44058112  0.43608707  1
  Zn  Zn143  1  0.68707684  0.43516336  0.93863296  1
  Zn  Zn144  1  0.68644899  0.93775563  0.43794310  1
  Zn  Zn145  1  0.68780387  0.94203714  0.93709415  1
  Zn  Zn146  1  0.31352526  0.06122310  0.06342353  1
  Zn  Zn147  1  0.31030732  0.06166277  0.56478010  1
  Zn  Zn148  1  0.31252009  0.56366664  0.06170127  1
  Zn  Zn149  1  0.31184729  0.56130997  0.56122186  1
  Zn  Zn150  1  0.81302163  0.06200962  0.05891693  1
  Zn  Zn151  1  0.81103721  0.06198269  0.56121686  1
  Zn  Zn152  1  0.81423813  0.56293875  0.06129528  1
  Zn  Zn153  1  0.81260139  0.56297961  0.55989681  1
  Zn  Zn154  1  0.43649971  0.43718399  0.18785926  1
  Zn  Zn155  1  0.43685747  0.43531167  0.68582135  1
  Zn  Zn156  1  0.43889298  0.93688691  0.18646091  1
  Zn  Zn157  1  0.43681972  0.93672477  0.68919580  1
  Zn  Zn158  1  0.93662547  0.43710690  0.18707658  1
  Zn  Zn159  1  0.93714257  0.43548805  0.68743172  1
  Zn  Zn160  1  0.93755882  0.93885508  0.19015231  1
  Zn  Zn161  1  0.93471785  0.93685019  0.68726591  1
  Zn  Zn162  1  0.06069929  0.06371689  0.31235976  1
  Zn  Zn163  1  0.06204009  0.06014013  0.81529076  1
  Zn  Zn164  1  0.06291976  0.56209922  0.31143094  1
  Zn  Zn165  1  0.06346938  0.56499999  0.81134337  1
  Zn  Zn166  1  0.56365904  0.05874048  0.31522343  1
  Zn  Zn167  1  0.56839026  0.06431620  0.81632536  1
  Zn  Zn168  1  0.56179201  0.56550272  0.31237807  1
  Zn  Zn169  1  0.56262416  0.56071221  0.81165250  1
  Zn  Zn170  1  0.43674963  0.18531969  0.43709960  1
  Zn  Zn171  1  0.43738165  0.18831644  0.93868924  1
  Zn  Zn172  1  0.43456245  0.68441012  0.43798720  1
  Zn  Zn173  1  0.43806191  0.68816595  0.93622856  1
  Zn  Zn174  1  0.93644455  0.18783024  0.44268337  1
  Zn  Zn175  1  0.93430377  0.18178187  0.93707298  1
  Zn  Zn176  1  0.93507101  0.68658093  0.43645961  1
  Zn  Zn177  1  0.93445036  0.68987669  0.93990181  1
  Zn  Zn178  1  0.06095095  0.31184243  0.06096878  1
  Zn  Zn179  1  0.06092726  0.31226399  0.56294662  1
  Zn  Zn180  1  0.06465322  0.81198510  0.05990271  1
  Zn  Zn181  1  0.06308185  0.81194053  0.56089928  1
  Zn  Zn182  1  0.55982311  0.31293158  0.06668580  1
  Zn  Zn183  1  0.56258052  0.31103374  0.56433874  1
  Zn  Zn184  1  0.56784643  0.81394150  0.06410732  1
  Zn  Zn185  1  0.56353134  0.81388646  0.56512065  1
  O  O186  1  0.11786409  0.11812564  0.12467414  1
  O  O187  1  0.12345665  0.11326926  0.61843245  1
  O  O188  1  0.11816405  0.61758577  0.12307677  1
  O  O189  1  0.11789509  0.61613769  0.62336760  1
  O  O190  1  0.62094197  0.11969502  0.11752655  1
  O  O191  1  0.61939739  0.11984914  0.62249068  1
  O  O192  1  0.62080397  0.61919417  0.11818313  1
  O  O193  1  0.62013753  0.61944912  0.61852908  1
  O  O194  1  0.37530017  0.38650139  0.37750257  1
  O  O195  1  0.38108950  0.37988619  0.87992103  1
  O  O196  1  0.37898487  0.88365088  0.38157217  1
  O  O197  1  0.38308047  0.87717849  0.88206693  1
  O  O198  1  0.88060888  0.38152850  0.37404257  1
  O  O199  1  0.87841586  0.37935766  0.88151981  1
  O  O200  1  0.87527967  0.88634042  0.38032617  1
  O  O201  1  0.88596086  0.88922546  0.87404279  1
  O  O202  1  0.26358399  0.00111687  0.37448679  1
  O  O203  1  0.25015031  0.00980980  0.87489413  1
  O  O204  1  0.25578653  0.50513190  0.37098559  1
  O  O205  1  0.25629784  0.50297749  0.86877269  1
  O  O206  1  0.76046991  0.00990025  0.37718451  1
  O  O207  1  0.75771379  0.00412787  0.86898144  1
  O  O208  1  0.75555327  0.50650911  0.36813314  1
  O  O209  1  0.75534276  0.50444857  0.86796904  1
  O  O210  1  0.24470322  0.49475670  0.12970805  1
  O  O211  1  0.24447871  0.49390224  0.63019530  1
  O  O212  1  0.24325151  0.99284041  0.12645139  1
  O  O213  1  0.24226362  0.99013565  0.62655052  1
  O  O214  1  0.74457966  0.49443752  0.13042173  1
  O  O215  1  0.74535557  0.49257811  0.62944193  1
  O  O216  1  0.74305710  0.99368388  0.12378827  1
  O  O217  1  0.74489254  1.00042849  0.63391257  1
  O  O218  1  0.00557774  0.36969060  0.25449618  1
  O  O219  1  0.00552734  0.36726794  0.75565315  1
  O  O220  1  0.00885038  0.86667879  0.24989214  1
  O  O221  1  -0.00351610  0.87623299  0.76403876  1
  O  O222  1  0.50434384  0.36609873  0.25098153  1
  O  O223  1  0.50624088  0.36812978  0.75447161  1
  O  O224  1  0.49886153  0.85920449  0.24781205  1
  O  O225  1  0.50740449  0.87563602  0.75818644  1
  O  O226  1  0.49334119  0.13163137  0.24617279  1
  O  O227  1  0.49482017  0.13074200  0.74925585  1
  O  O228  1  0.49832459  0.63545628  0.24326163  1
  O  O229  1  0.49398081  0.62393196  0.74253227  1
  O  O230  1  0.99742759  0.13214246  0.24225867  1
  O  O231  1  1.00505800  0.13841442  0.74988342  1
  O  O232  1  0.99613935  0.63216095  0.24502324  1
  O  O233  1  0.99108573  0.62287314  0.74190530  1
  O  O234  1  0.36807102  0.25730019  0.00206813  1
  O  O235  1  0.36299924  0.24929514  0.50111115  1
  O  O236  1  0.37115823  0.75615337  0.00535629  1
  O  O237  1  0.36997494  0.75467379  0.50601449  1
  O  O238  1  0.88244576  0.26069338  0.00955179  1
  O  O239  1  0.87218952  0.25580666  0.51193622  1
  O  O240  1  0.86707134  0.74484123  0.00722213  1
  O  O241  1  0.86659044  0.75419429  0.50391493  1
  O  O242  1  0.13061440  0.24410075  0.49607422  1
  O  O243  1  0.13043592  0.24838319  0.99226759  1
  O  O244  1  0.13366364  0.74738476  0.49541996  1
  O  O245  1  0.13501841  0.74961620  0.99351982  1
  O  O246  1  0.62751072  0.24143278  0.49923521  1
  O  O247  1  0.62101918  0.26689889  0.99114869  1
  O  O248  1  0.63693305  0.74529499  0.50599618  1
  O  O249  1  0.62964459  0.74268409  0.99307309  1
  O  O250  1  0.49531810  0.24509036  0.13854179  1
  O  O251  1  0.49757320  0.24375448  0.63746174  1
  O  O252  1  0.49602423  0.74511812  0.13096424  1
  O  O253  1  0.49342469  0.74257501  0.62570617  1
  O  O254  1  0.99163145  0.24604446  0.12902442  1
  O  O255  1  0.99278749  0.24918101  0.63283980  1
  O  O256  1  1.00195110  0.74488523  0.13479895  1
  O  O257  1  0.99235376  0.74235294  0.62208016  1
  O  O258  1  0.00393750  0.25457926  0.36997974  1
  O  O259  1  0.00254699  0.25365124  0.86853530  1
  O  O260  1  0.00153117  0.74998897  0.36182200  1
  O  O261  1  -0.00366947  0.76710838  0.87710174  1
  O  O262  1  0.50125445  0.25025369  0.36401275  1
  O  O263  1  0.49348496  0.25556670  0.86166301  1
  O  O264  1  0.49204655  0.74806825  0.35986564  1
  O  O265  1  0.50815588  0.75705898  0.87384151  1
  O  O266  1  0.24353081  0.13403605  0.50016167  1
  O  O267  1  0.25069153  0.13013898  0.99077031  1
  O  O268  1  0.24938049  0.63001063  0.49098923  1
  O  O269  1  0.25018211  0.63131775  0.99290648  1
  O  O270  1  0.74313808  0.12584714  0.49172981  1
  O  O271  1  0.75115175  0.12336921  0.98539088  1
  O  O272  1  0.74540174  0.63289056  0.49400363  1
  O  O273  1  0.74216513  0.61997253  0.99109374  1
  O  O274  1  0.25420247  0.37018557  0.00398910  1
  O  O275  1  0.24822440  0.36371201  0.50592320  1
  O  O276  1  0.25624232  0.87030103  0.00479122  1
  O  O277  1  0.25696247  0.86886255  0.50929139  1
  O  O278  1  0.76408430  0.38268045  0.00578240  1
  O  O279  1  0.74733548  0.37472501  0.51343943  1
  O  O280  1  0.74364100  0.87759063  0.01515936  1
  O  O281  1  0.75514128  0.86714058  0.50104896  1
  O  O282  1  0.12996765  0.49318413  0.24393786  1
  O  O283  1  0.13065283  0.49314692  0.74441001  1
  O  O284  1  0.12467091  0.99018411  0.24514654  1
  O  O285  1  0.12606262  1.00474282  0.73624107  1
  O  O286  1  0.62982593  0.49695156  0.24405205  1
  O  O287  1  0.62970007  0.49214006  0.74272734  1
  O  O288  1  0.62416317  1.00524840  0.23299645  1
  O  O289  1  0.63294530  0.99507981  0.74647381  1
  O  O290  1  0.37757822  0.00748732  0.25803218  1
  O  O291  1  0.37332346  0.01249593  0.75371643  1
  O  O292  1  0.36897905  0.50123008  0.25898255  1
  O  O293  1  0.37002597  0.50292329  0.75489849  1
  O  O294  1  0.87558837  0.00407358  0.26369497  1
  O  O295  1  0.86415924  -0.00301076  0.75691739  1
  O  O296  1  0.86900402  0.50527575  0.25424344  1
  O  O297  1  0.86904630  0.50397051  0.75477854  1
  O  O298  1  0.11886215  0.36914300  0.36834280  1
  O  O299  1  0.11881304  0.36906819  0.86935524  1
  O  O300  1  0.12497762  0.87455319  0.36358530  1
  O  O301  1  0.10760927  0.87916203  0.87748776  1
  O  O302  1  0.62333972  0.37369040  0.36665117  1
  O  O303  1  0.61963728  0.38394911  0.85999115  1
  O  O304  1  0.61485399  0.89682410  0.36468002  1
  O  O305  1  0.62155920  0.87042760  0.87128595  1
  O  O306  1  0.38130892  0.12465632  0.13626563  1
  O  O307  1  0.38032689  0.12475863  0.63544812  1
  O  O308  1  0.38250234  0.63086144  0.12494327  1
  O  O309  1  0.37979229  0.62848213  0.62908055  1
  O  O310  1  0.87916904  0.13438386  0.12468908  1
  O  O311  1  0.87560041  0.13775651  0.62119486  1
  O  O312  1  0.88244096  0.62316215  0.13313598  1
  O  O313  1  0.87930790  0.62858212  0.62930967  1
  O  O314  1  0.25022698  0.25666255  0.11853615  1
  O  O315  1  0.24752540  0.25384862  0.61612246  1
  O  O316  1  0.25584113  0.75484091  0.11915178  1
  O  O317  1  0.25540005  0.75529480  0.62003482  1
  O  O318  1  0.76230417  0.25571794  0.13230728  1
  O  O319  1  0.75744767  0.25792111  0.62874177  1
  O  O320  1  0.74809977  0.76695484  0.12559124  1
  O  O321  1  0.75746484  0.75029687  0.61311102  1
  O  O322  1  0.24216678  0.24935075  0.38526259  1
  O  O323  1  0.24462945  0.24236983  0.87934506  1
  O  O324  1  0.25313357  0.74004901  0.37949581  1
  O  O325  1  0.25319652  0.74281346  0.88125758  1
  O  O326  1  0.75024113  0.23906511  0.37667275  1
  O  O327  1  0.76042798  0.23144174  0.86483869  1
  O  O328  1  0.75758545  0.74481793  0.38598768  1
  O  O329  1  0.74480663  0.74327161  0.87349365  1
  O  O330  1  0.00195684  0.11480668  0.00600829  1
  O  O331  1  0.00672842  0.11729599  0.50386284  1
  O  O332  1  0.00110208  0.61726059  0.00554311  1
  O  O333  1  -0.00000397  0.61751758  0.50526582  1
  O  O334  1  0.49741266  0.11612186  0.00594405  1
  O  O335  1  0.50405219  0.12035548  0.50776425  1
  O  O336  1  0.50642623  0.61912271  0.00353566  1
  O  O337  1  0.50487402  0.61991047  0.50518199  1
  O  O338  1  0.49868953  0.38216178  0.49880008  1
  O  O339  1  0.49153786  0.38307795  0.99650259  1
  O  O340  1  0.49304380  0.88210885  0.50181366  1
  O  O341  1  0.49656228  0.88322626  0.99674693  1
  O  O342  1  0.99922482  0.38133300  0.49200914  1
  O  O343  1  0.99032980  0.37994671  0.99413998  1
  O  O344  1  0.99322916  0.88042946  0.49604491  1
  O  O345  1  1.00234323  0.88616864  0.99374093  1
  O  O346  1  0.48961700  0.50142062  0.37960606  1
  O  O347  1  0.49455884  0.49321681  0.88026656  1
  O  O348  1  0.48629714  1.00464431  0.38393843  1
  O  O349  1  0.50158460  0.99579490  0.88566361  1
  O  O350  1  0.99483391  0.49505383  0.37806984  1
  O  O351  1  0.99427432  0.49348923  0.87850312  1
  O  O352  1  0.99032802  1.00021525  0.38164454  1
  O  O353  1  0.99435380  0.99391442  0.88152800  1
  O  O354  1  0.00265816  0.00387401  0.11928649  1
  O  O355  1  0.00754679  -0.00164080  0.61994890  1
  O  O356  1  0.00491368  0.50382165  0.12030667  1
  O  O357  1  0.00384974  0.50292230  0.61933368  1
  O  O358  1  0.50670339  0.00519931  0.11840006  1
  O  O359  1  0.50489611  0.00603844  0.62193295  1
  O  O360  1  0.50485469  0.50568313  0.12013569  1
  O  O361  1  0.50472821  0.50488414  0.61953317  1
  O  O362  1  0.24400230  0.37919560  0.24476461  1
  O  O363  1  0.24442378  0.37821830  0.74597946  1
  O  O364  1  0.24189356  0.87460948  0.24411533  1
  O  O365  1  0.25847520  0.87533346  0.73708336  1
  O  O366  1  0.74422587  0.38177403  0.24337574  1
  O  O367  1  0.74274122  0.37949339  0.74268571  1
  O  O368  1  0.74767103  0.88079776  0.23863677  1
  O  O369  1  0.74404782  0.88602842  0.75002266  1
  O  O370  1  0.26175172  0.12297754  0.25130784  1
  O  O371  1  0.25779486  0.12588299  0.75908002  1
  O  O372  1  0.25133640  0.61868625  0.25814828  1
  O  O373  1  0.25763346  0.61661275  0.75429714  1
  O  O374  1  0.75203900  0.12128727  0.26199870  1
  O  O375  1  0.74352707  0.11195617  0.76104195  1
  O  O376  1  0.75404764  0.62124378  0.25298120  1
  O  O377  1  0.75519176  0.61912252  0.75398889  1
  O  O378  1  0.37305523  0.11692169  0.36616075  1
  O  O379  1  0.36555096  0.12455607  0.86776677  1
  O  O380  1  0.36412764  0.61351405  0.37401785  1
  O  O381  1  0.37080072  0.61795458  0.86911438  1
  O  O382  1  0.86716062  0.11788742  0.37768969  1
  O  O383  1  0.86569200  0.11011219  0.87693242  1
  O  O384  1  0.86783656  0.61909094  0.36684843  1
  O  O385  1  0.87027832  0.61840018  0.86835826  1
  O  O386  1  0.12926177  0.37976394  0.13013917  1
  O  O387  1  0.12960245  0.38002583  0.63100708  1
  O  O388  1  0.12989809  0.87955135  0.13414048  1
  O  O389  1  0.13587838  0.88291946  0.61869103  1
  O  O390  1  0.62922811  0.38299630  0.13281126  1
  O  O391  1  0.63223342  0.37967752  0.63468060  1
  O  O392  1  0.63336175  0.88520645  0.13021756  1
  O  O393  1  0.62695673  0.88310197  0.63317841  1
  O  O394  1  0.11981067  0.25474491  0.25551672  1
  O  O395  1  0.11693006  0.25520752  0.75463764  1
  O  O396  1  0.11766372  0.75857048  0.25054477  1
  O  O397  1  0.11940959  0.74666200  0.75556459  1
  O  O398  1  0.61509518  0.25531587  0.25098647  1
  O  O399  1  0.61506053  0.26030528  0.74500170  1
  O  O400  1  0.60903092  0.74945263  0.24640024  1
  O  O401  1  0.62445120  0.75727669  0.75568745  1
  O  O402  1  0.38181028  0.24084130  0.25177217  1
  O  O403  1  0.38274351  0.23872292  0.74837613  1
  O  O404  1  0.38456335  0.74740054  0.24150033  1
  O  O405  1  0.37874955  0.74105859  0.74262332  1
  O  O406  1  0.88226536  0.25054339  0.23857759  1
  O  O407  1  0.88713082  0.25763131  0.73947221  1
  O  O408  1  0.88525858  0.74605183  0.24522558  1
  O  O409  1  0.87797235  0.74387824  0.74184305  1
  O  O410  1  0.37994553  0.49819383  0.49104373  1
  O  O411  1  0.37956328  0.49512172  0.99362587  1
  O  O412  1  0.37898746  0.99641128  0.49493099  1
  O  O413  1  0.38689523  0.99429282  1.00072033  1
  O  O414  1  0.88043955  0.49746291  0.49178372  1
  O  O415  1  0.88155497  0.49108799  0.99430811  1
  O  O416  1  0.88002958  0.99498696  0.49403317  1
  O  O417  1  0.88635387  1.00253035  0.99206915  1
  O  O418  1  0.11436673  0.00222506  0.00870066  1
  O  O419  1  0.12042337  0.00343695  0.50771506  1
  O  O420  1  0.11749303  0.49858683  0.00656536  1
  O  O421  1  0.11794374  0.50102641  0.50624909  1
  O  O422  1  0.61324320  -0.00207847  0.01018225  1
  O  O423  1  0.61885916  0.00697985  0.50892899  1
  O  O424  1  0.61825930  0.50354808  0.00538291  1
  O  O425  1  0.61941620  0.50705598  0.50585693  1
  O  O426  1  0.36665721  0.37497590  0.11865631  1
  O  O427  1  0.36557906  0.37065937  0.62327728  1
  O  O428  1  0.36957698  0.87050018  0.11919103  1
  O  O429  1  0.36788700  0.86982446  0.62015067  1
  O  O430  1  0.87041391  0.36842714  0.11759443  1
  O  O431  1  0.86382821  0.36854907  0.62516885  1
  O  O432  1  0.85985048  0.87981626  0.12889685  1
  O  O433  1  0.87275739  0.86800775  0.61706913  1
  O  O434  1  0.12655872  0.13021659  0.38193785  1
  O  O435  1  0.13551595  0.12990905  0.87523579  1
  O  O436  1  0.13807410  0.62479864  0.37546013  1
  O  O437  1  0.13537369  0.62394234  0.87784334  1
  O  O438  1  0.63417727  0.12358814  0.38198502  1
  O  O439  1  0.64225674  0.12104848  0.88114798  1
  O  O440  1  0.63385819  0.61890410  0.38368477  1
  O  O441  1  0.62999398  0.62893578  0.87803829  1
