# generated using pymatgen
data_V93Zn93O256
_symmetry_space_group_name_H-M   'P 1'
_cell_length_a   17.05140937
_cell_length_b   17.04937685
_cell_length_c   17.05229759
_cell_angle_alpha   90.02846246
_cell_angle_beta   89.99017485
_cell_angle_gamma   89.92598063
_symmetry_Int_Tables_number   1
_chemical_formula_structural   V93Zn93O256
_chemical_formula_sum   'V93 Zn93 O256'
_cell_volume   4957.36929110
_cell_formula_units_Z   1
loop_
 _symmetry_equiv_pos_site_id
 _symmetry_equiv_pos_as_xyz
  1  'x, y, z'
loop_
 _atom_site_type_symbol
 _atom_site_label
 _atom_site_symmetry_multiplicity
 _atom_site_fract_x
 _atom_site_fract_y
 _atom_site_fract_z
 _atom_site_occupancy
  V  V0  1  -0.00061738  0.24977288  0.75171200  1
  V  V1  1  0.12577806  0.74992106  0.87503853  1
  V  V2  1  0.00212469  0.62242505  0.62391356  1
  V  V3  1  0.87342064  0.12521005  0.75061526  1
  V  V4  1  0.74900240  0.13108496  0.37797858  1
  V  V5  1  0.12423525  0.24861701  0.87429216  1
  V  V6  1  0.87550753  0.74991585  0.62459689  1
  V  V7  1  0.00102844  0.50085625  0.50047340  1
  V  V8  1  0.49984556  0.74814893  0.74824638  1
  V  V9  1  0.74860304  0.87769999  0.12541774  1
  V  V10  1  0.25152508  0.49415335  0.74123551  1
  V  V11  1  0.62356747  0.50127067  0.62396995  1
  V  V12  1  0.37591704  0.49840562  0.87399060  1
  V  V13  1  0.62275185  0.37579007  0.25361246  1
  V  V14  1  0.62468322  0.12988651  0.50077195  1
  V  V15  1  0.37354278  -0.00227474  0.87515196  1
  V  V16  1  0.50242676  0.49175422  0.48964765  1
  V  V17  1  0.37483071  0.87430161  0.49994592  1
  V  V18  1  0.50153997  0.24708188  0.75377764  1
  V  V19  1  0.00059365  0.74883388  0.74973459  1
  V  V20  1  0.12506758  0.12435071  0.50083448  1
  V  V21  1  0.00013358  0.87536983  0.87548728  1
  V  V22  1  0.74888305  0.75021229  0.49928666  1
  V  V23  1  0.37435223  0.24950274  0.12639932  1
  V  V24  1  0.87710342  0.37479942  0.00010486  1
  V  V25  1  0.74281252  0.24869196  -0.00637125  1
  V  V26  1  0.12545440  0.87434399  0.74997208  1
  V  V27  1  0.24919846  0.87192724  0.62387909  1
  V  V28  1  0.12934351  0.87727552  0.25036127  1
  V  V29  1  -0.00076229  -0.00003298  0.00161074  1
  V  V30  1  0.50050338  0.00064640  0.00323229  1
  V  V31  1  0.62497635  0.87512293  0.74938682  1
  V  V32  1  0.75025401  0.37454033  0.12587968  1
  V  V33  1  0.37589065  0.74324248  0.12845924  1
  V  V34  1  0.62514819  0.74954049  0.87447142  1
  V  V35  1  0.24917832  0.25007302  -0.00074516  1
  V  V36  1  0.49788225  0.25565083  0.25407712  1
  V  V37  1  0.24929478  0.12044453  0.37154400  1
  V  V38  1  0.62438231  0.87795873  0.24914814  1
  V  V39  1  0.37390454  0.87400688  0.00035503  1
  V  V40  1  0.87231291  0.24920048  0.62169831  1
  V  V41  1  0.87396292  0.87560925  0.00002635  1
  V  V42  1  0.87381937  0.00158454  0.37582280  1
  V  V43  1  0.36684322  0.37225977  0.49774506  1
  V  V44  1  0.12939482  0.37287242  0.74291737  1
  V  V45  1  0.74828261  0.00207076  0.25045459  1
  V  V46  1  -0.00030223  0.74812224  0.24880468  1
  V  V47  1  0.87540853  0.75063694  0.12557073  1
  V  V48  1  0.75008185  0.37091539  0.62047001  1
  V  V49  1  0.62486019  0.62432169  0.00078023  1
  V  V50  1  0.87489685  0.87590375  0.49986324  1
  V  V51  1  0.87434557  0.37356142  0.50039718  1
  V  V52  1  0.26036235  0.62378108  0.37071129  1
  V  V53  1  0.12688008  0.74906512  0.37517912  1
  V  V54  1  0.50265438  0.37188570  0.87493441  1
  V  V55  1  -0.00068177  0.25080085  0.24987478  1
  V  V56  1  0.74979135  0.87633824  0.62578614  1
  V  V57  1  0.37484515  0.12354247  0.74574382  1
  V  V58  1  0.24880921  0.37541825  0.12564599  1
  V  V59  1  0.75106340  0.62506913  0.87514391  1
  V  V60  1  0.12310579  -0.00054864  0.62526014  1
  V  V61  1  0.00021364  0.37554324  0.37469815  1
  V  V62  1  0.37165332  0.11966949  0.25090424  1
  V  V63  1  0.25668908  0.50328536  0.24977696  1
  V  V64  1  0.12992894  -0.00014833  0.12948514  1
  V  V65  1  0.62503878  0.50089471  0.12550938  1
  V  V66  1  0.74938246  0.75094745  0.00055723  1
  V  V67  1  0.25055238  0.62335042  0.87375456  1
  V  V68  1  0.12668052  0.37551628  0.25049393  1
  V  V69  1  0.49941399  0.87570342  0.37518039  1
  V  V70  1  0.74865479  -0.00014945  0.75105475  1
  V  V71  1  0.62238279  0.25485910  0.37741115  1
  V  V72  1  0.37503087  0.37388317  -0.00082837  1
  V  V73  1  0.24879066  0.12458815  0.87560653  1
  V  V74  1  0.75070013  0.49932612  0.74960642  1
  V  V75  1  -0.00025835  0.87586320  0.37549995  1
  V  V76  1  0.49750187  0.74450310  0.24950022  1
  V  V77  1  0.25021268  0.87629448  0.12844265  1
  V  V78  1  0.37646505  0.62358422  0.74896205  1
  V  V79  1  0.87313311  0.00172579  0.87466342  1
  V  V80  1  0.12542007  0.24966953  0.37652410  1
  V  V81  1  0.50104082  0.49952954  -0.00023772  1
  V  V82  1  0.62493395  0.36965531  0.75439014  1
  V  V83  1  0.87617305  0.62399203  0.75001868  1
  V  V84  1  0.25153647  0.74814823  0.49852614  1
  V  V85  1  0.12369162  0.62200179  0.00159052  1
  V  V86  1  0.25109399  0.74894260  0.00043313  1
  V  V87  1  0.49784065  0.00194898  0.50003809  1
  V  V88  1  0.62662439  0.75171245  0.37565054  1
  V  V89  1  0.75091162  0.50115574  0.25121372  1
  V  V90  1  0.87488700  0.50081738  0.37338492  1
  V  V91  1  0.87688927  0.49954157  0.87607615  1
  V  V92  1  -0.00146835  0.12540512  0.12703306  1
  Zn  Zn93  1  0.36700803  0.26437268  0.63170691  1
  Zn  Zn94  1  0.61663077  0.13138615  -0.00335964  1
  Zn  Zn95  1  0.62491118  0.00526387  0.12380092  1
  Zn  Zn96  1  0.38420728  0.49580811  0.36646099  1
  Zn  Zn97  1  0.12869465  0.62201039  0.50057726  1
  Zn  Zn98  1  0.87272389  0.12836807  0.25249517  1
  Zn  Zn99  1  0.12407568  0.12493981  0.00006346  1
  Zn  Zn100  1  0.12354201  0.50016580  0.12590558  1
  Zn  Zn101  1  0.12936836  0.49624802  0.62086429  1
  Zn  Zn102  1  0.75190340  0.62672228  0.37535809  1
  Zn  Zn103  1  -0.00159626  0.12453457  0.62414444  1
  Zn  Zn104  1  0.24529493  0.25474998  0.50832462  1
  Zn  Zn105  1  0.37511752  0.74782346  0.62441430  1
  Zn  Zn106  1  0.62379787  0.00294018  0.62690417  1
  Zn  Zn107  1  0.24980784  -0.00203858  0.75050094  1
  Zn  Zn108  1  0.50133760  0.12574492  0.12675496  1
  Zn  Zn109  1  0.00236880  0.37613279  0.87575225  1
  Zn  Zn110  1  -0.00158449  -0.00027840  0.49984014  1
  Zn  Zn111  1  0.87377485  0.62500199  0.24919397  1
  Zn  Zn112  1  0.00132429  0.49920711  0.00151646  1
  Zn  Zn113  1  0.49718998  0.62248237  0.12714353  1
  Zn  Zn114  1  0.49880595  0.62391772  0.62109498  1
  Zn  Zn115  1  -0.00131213  0.62264871  0.12428177  1
  Zn  Zn116  1  0.87320887  0.24969914  0.12629565  1
  Zn  Zn117  1  0.49935742  0.87406571  0.87468389  1
  Zn  Zn118  1  0.36912280  -0.00281923  0.37081803  1
  Zn  Zn119  1  0.74041586  0.13010369  0.87120883  1
  Zn  Zn120  1  0.62429339  0.62596378  0.49792754  1
  Zn  Zn121  1  0.49850497  0.12778455  0.62393466  1
  Zn  Zn122  1  0.18696583  0.18811366  0.18822085  1
  Zn  Zn123  1  0.19100402  0.18735968  0.68690449  1
  Zn  Zn124  1  0.18844945  0.68775138  0.18819153  1
  Zn  Zn125  1  0.18806376  0.68412957  0.68589845  1
  Zn  Zn126  1  0.68478626  0.18693771  0.18399743  1
  Zn  Zn127  1  0.68732573  0.18653679  0.68686783  1
  Zn  Zn128  1  0.68679201  0.68767641  0.18867985  1
  Zn  Zn129  1  0.68853200  0.68749340  0.68650221  1
  Zn  Zn130  1  0.31266013  0.31277060  0.31915536  1
  Zn  Zn131  1  0.31251428  0.31102916  0.81288945  1
  Zn  Zn132  1  0.31369071  0.81211711  0.31233732  1
  Zn  Zn133  1  0.31219433  0.81130804  0.81116614  1
  Zn  Zn134  1  0.81176250  0.31286425  0.31215071  1
  Zn  Zn135  1  0.81338742  0.31350593  0.81221436  1
  Zn  Zn136  1  0.81237228  0.81507675  0.31265897  1
  Zn  Zn137  1  0.81275780  0.81313119  0.81248375  1
  Zn  Zn138  1  0.18829300  0.44041621  0.43472275  1
  Zn  Zn139  1  0.18828189  0.43610560  0.93224925  1
  Zn  Zn140  1  0.18737441  0.93751795  0.43763288  1
  Zn  Zn141  1  0.18688607  0.93768479  0.94185186  1
  Zn  Zn142  1  0.68980172  0.43701471  0.43721709  1
  Zn  Zn143  1  0.68964972  0.43676718  0.93789509  1
  Zn  Zn144  1  0.68630483  0.94037815  0.43775619  1
  Zn  Zn145  1  0.68515145  0.93854370  0.93503115  1
  Zn  Zn146  1  0.31267704  0.06449707  0.06314061  1
  Zn  Zn147  1  0.30824467  0.06076556  0.56109772  1
  Zn  Zn148  1  0.31099300  0.56059622  0.06218538  1
  Zn  Zn149  1  0.31833103  0.56328154  0.55931316  1
  Zn  Zn150  1  0.81285617  0.06403965  0.06347044  1
  Zn  Zn151  1  0.80943445  0.06274777  0.56223748  1
  Zn  Zn152  1  0.81332792  0.56324573  0.06497599  1
  Zn  Zn153  1  0.81295454  0.56292271  0.56046720  1
  Zn  Zn154  1  0.43792154  0.43542328  0.18513171  1
  Zn  Zn155  1  0.43881463  0.43711873  0.68340191  1
  Zn  Zn156  1  0.43710497  0.93440081  0.18669070  1
  Zn  Zn157  1  0.43806360  0.93604734  0.68522108  1
  Zn  Zn158  1  0.93934657  0.43967886  0.18506603  1
  Zn  Zn159  1  0.94081891  0.43578347  0.68873286  1
  Zn  Zn160  1  0.93673073  0.93860780  0.19018987  1
  Zn  Zn161  1  0.93757609  0.93765520  0.68824790  1
  Zn  Zn162  1  0.06143216  0.06236513  0.31218603  1
  Zn  Zn163  1  0.06035348  0.06351488  0.81143905  1
  Zn  Zn164  1  0.06825371  0.56270841  0.31459080  1
  Zn  Zn165  1  0.06387003  0.55889781  0.81294462  1
  Zn  Zn166  1  0.55963810  0.06553610  0.31293700  1
  Zn  Zn167  1  0.56387958  0.06374400  0.81822685  1
  Zn  Zn168  1  0.56837856  0.56687965  0.31272385  1
  Zn  Zn169  1  0.56333612  0.56096776  0.81254456  1
  Zn  Zn170  1  0.43691901  0.18947428  0.43506261  1
  Zn  Zn171  1  0.43622703  0.18593336  0.93507702  1
  Zn  Zn172  1  0.44071926  0.68449898  0.43891657  1
  Zn  Zn173  1  0.43819963  0.68609075  0.93693017  1
  Zn  Zn174  1  0.93881074  0.18808285  0.43879429  1
  Zn  Zn175  1  0.93458607  0.18747771  0.93804783  1
  Zn  Zn176  1  0.93720750  0.68623857  0.43665927  1
  Zn  Zn177  1  0.93814943  0.68792030  0.93761956  1
  Zn  Zn178  1  0.06331034  0.31169657  0.06297804  1
  Zn  Zn179  1  0.05900639  0.31115005  0.56340868  1
  Zn  Zn180  1  0.06331010  0.81237725  0.06285113  1
  Zn  Zn181  1  0.06292850  0.81038207  0.56029334  1
  Zn  Zn182  1  0.56135074  0.31409106  0.06748382  1
  Zn  Zn183  1  0.55601896  0.31154172  0.56665476  1
  Zn  Zn184  1  0.56150979  0.81526469  0.06301919  1
  Zn  Zn185  1  0.56342959  0.81440641  0.56333525  1
  O  O186  1  0.11658451  0.11671487  0.12580853  1
  O  O187  1  0.12442772  0.11542993  0.61784635  1
  O  O188  1  0.12616834  0.62624792  0.11160246  1
  O  O189  1  0.11678352  0.62037402  0.62246075  1
  O  O190  1  0.61961648  0.12237123  0.11561925  1
  O  O191  1  0.62248296  0.12534476  0.61324276  1
  O  O192  1  0.62368419  0.61878840  0.11758639  1
  O  O193  1  0.62692448  0.61065233  0.62444518  1
  O  O194  1  0.37627133  0.37933671  0.38956764  1
  O  O195  1  0.38157762  0.37940455  0.88033705  1
  O  O196  1  0.38073193  0.87740198  0.38094773  1
  O  O197  1  0.37297858  0.88333051  0.88059695  1
  O  O198  1  0.88023141  0.37932475  0.38092190  1
  O  O199  1  0.87495944  0.38149634  0.88400252  1
  O  O200  1  0.87948699  0.88165733  0.38085131  1
  O  O201  1  0.88108842  0.87999365  0.88024634  1
  O  O202  1  0.24964701  0.01480285  0.37793399  1
  O  O203  1  0.25918962  0.00384357  0.87695853  1
  O  O204  1  0.25221864  0.50837073  0.36586322  1
  O  O205  1  0.25760688  0.50443192  0.86525200  1
  O  O206  1  0.75359005  0.00971365  0.37018056  1
  O  O207  1  0.75796117  -0.00130042  0.86827577  1
  O  O208  1  0.75704957  0.49965363  0.36882275  1
  O  O209  1  0.75576859  0.50588095  0.86903844  1
  O  O210  1  0.24827853  0.49389735  0.13278905  1
  O  O211  1  0.25119035  0.50588480  0.63851437  1
  O  O212  1  0.23730743  0.99402340  0.11772213  1
  O  O213  1  0.23743036  0.99197881  0.62587707  1
  O  O214  1  0.74393092  0.49430250  0.13053003  1
  O  O215  1  0.74385316  0.49111976  0.62996787  1
  O  O216  1  0.74960178  0.99475859  0.13138085  1
  O  O217  1  0.74810136  0.99346642  0.63273564  1
  O  O218  1  0.00626013  0.37070151  0.25547986  1
  O  O219  1  0.00918855  0.36800278  0.75365467  1
  O  O220  1  0.00694546  0.86634484  0.25517641  1
  O  O221  1  0.00528472  0.86850505  0.75586653  1
  O  O222  1  0.50591340  0.36397613  0.24616940  1
  O  O223  1  0.50654344  0.36805366  0.75411744  1
  O  O224  1  0.50479032  0.86751941  0.25552935  1
  O  O225  1  0.50478673  0.86475372  0.75114634  1
  O  O226  1  0.49021527  0.13676310  0.24970271  1
  O  O227  1  0.49249411  0.13128751  0.75142343  1
  O  O228  1  0.50566465  0.64069931  0.24797490  1
  O  O229  1  0.49592539  0.63214883  0.74984965  1
  O  O230  1  0.99937329  0.13140381  0.24244681  1
  O  O231  1  0.99145022  0.13130458  0.74687850  1
  O  O232  1  1.00275001  0.63948299  0.24968758  1
  O  O233  1  0.99537330  0.62950467  0.74562962  1
  O  O234  1  0.36954435  0.25512421  0.00453853  1
  O  O235  1  0.37915699  0.26526919  0.49934437  1
  O  O236  1  0.37081248  0.75459099  0.00613871  1
  O  O237  1  0.37045125  0.75651267  0.50107414  1
  O  O238  1  0.86693967  0.26103394  0.00297473  1
  O  O239  1  0.88163650  0.25679820  0.51354778  1
  O  O240  1  0.86911985  0.75629593  0.00419989  1
  O  O241  1  0.86990078  0.75637150  0.50551604  1
  O  O242  1  0.12209119  0.24050113  0.49541685  1
  O  O243  1  0.13175153  0.24872652  0.99281476  1
  O  O244  1  0.13337633  0.74916354  0.49183542  1
  O  O245  1  0.13118323  0.74344040  0.99437398  1
  O  O246  1  0.61238126  0.24016470  0.49106754  1
  O  O247  1  0.64018711  0.25662426  1.00447339  1
  O  O248  1  0.63074546  0.75166992  0.49383659  1
  O  O249  1  0.62992327  0.74556139  0.99470395  1
  O  O250  1  0.49197743  0.24963575  0.13503359  1
  O  O251  1  0.49159551  0.24817038  0.64016109  1
  O  O252  1  0.49251767  0.75049678  0.13212902  1
  O  O253  1  0.50108138  0.74728445  0.63739449  1
  O  O254  1  1.00128193  0.23979334  0.13057828  1
  O  O255  1  0.98812431  0.24886190  0.63304696  1
  O  O256  1  0.99473350  0.75170547  0.13428551  1
  O  O257  1  0.99489456  0.74435778  0.63058254  1
  O  O258  1  0.00523211  0.25603263  0.37006647  1
  O  O259  1  0.00569726  0.24973632  0.86877022  1
  O  O260  1  0.00509127  0.75598136  0.36728583  1
  O  O261  1  0.00537258  0.75592002  0.86923680  1
  O  O262  1  0.51073575  0.24524206  0.36393536  1
  O  O263  1  0.49449666  0.25641528  0.86270992  1
  O  O264  1  0.50471128  0.75579061  0.36801503  1
  O  O265  1  0.50597678  0.74965109  0.86461437  1
  O  O266  1  0.23773966  0.12482484  0.49208442  1
  O  O267  1  0.24861233  0.13240237  0.99356758  1
  O  O268  1  0.25073429  0.62935287  0.49018910  1
  O  O269  1  0.24351811  0.62936451  0.99334231  1
  O  O270  1  0.73676526  0.11949432  0.48907798  1
  O  O271  1  0.75476873  0.14333433  1.00203832  1
  O  O272  1  0.74767930  0.63462531  0.49867329  1
  O  O273  1  0.74510158  0.63121316  0.99479813  1
  O  O274  1  0.25583888  0.37015559  0.00382573  1
  O  O275  1  0.26308389  0.37762281  0.49766407  1
  O  O276  1  0.25413105  0.86746420  0.00733717  1
  O  O277  1  0.25512565  0.86871241  0.50342055  1
  O  O278  1  0.75709809  0.36752313  0.00455731  1
  O  O279  1  0.75641873  0.37993254  0.51414114  1
  O  O280  1  0.75468128  0.87036632  0.00447699  1
  O  O281  1  0.75520060  0.87143563  0.50593007  1
  O  O282  1  0.13646598  0.49265900  0.24993386  1
  O  O283  1  0.13472085  0.49039182  0.74998604  1
  O  O284  1  0.11783851  0.99185243  0.23786469  1
  O  O285  1  0.12525459  0.99351415  0.74166889  1
  O  O286  1  0.62966523  0.49493390  0.24563766  1
  O  O287  1  0.62929522  0.49113009  0.74156633  1
  O  O288  1  0.62937683  0.99527268  0.25008600  1
  O  O289  1  0.62959035  0.99290246  0.74966543  1
  O  O290  1  0.38281879  0.01519233  0.25143839  1
  O  O291  1  0.37527692  0.00430025  0.76009876  1
  O  O292  1  0.36206291  0.49271078  0.24980900  1
  O  O293  1  0.37050481  0.50196853  0.75464705  1
  O  O294  1  0.86716695  0.00284507  0.25847397  1
  O  O295  1  0.86968106  0.00484680  0.75482421  1
  O  O296  1  0.86889616  0.49936359  0.25598641  1
  O  O297  1  0.87017973  0.50434273  0.75507019  1
  O  O298  1  0.11958140  0.36918788  0.37064581  1
  O  O299  1  0.12425662  0.36662178  0.86429397  1
  O  O300  1  0.12085189  0.87018423  0.36931534  1
  O  O301  1  0.12007456  0.87003465  0.87118361  1
  O  O302  1  0.63366156  0.36205345  0.36987766  1
  O  O303  1  0.62063103  0.38268576  0.86078727  1
  O  O304  1  0.61898986  0.87088847  0.36965249  1
  O  O305  1  0.62296297  0.86647191  0.86728522  1
  O  O306  1  0.37256409  0.13265720  0.13541726  1
  O  O307  1  0.37527618  0.11584350  0.64052421  1
  O  O308  1  0.37628457  0.63943046  0.11787318  1
  O  O309  1  0.37899490  0.62750601  0.63421116  1
  O  O310  1  0.88833889  0.12510702  0.12894293  1
  O  O311  1  0.87335910  0.13405816  0.62918775  1
  O  O312  1  0.87781647  0.63507057  0.12778781  1
  O  O313  1  0.88053114  0.63025974  0.63109682  1
  O  O314  1  0.25443750  0.25577501  0.11959058  1
  O  O315  1  0.25732498  0.24377476  0.61945271  1
  O  O316  1  0.25807324  0.75483744  0.12044105  1
  O  O317  1  0.25021701  0.75489810  0.61742486  1
  O  O318  1  0.75247105  0.25768205  0.11695268  1
  O  O319  1  0.76006923  0.26102346  0.63203329  1
  O  O320  1  0.75486884  0.75728839  0.11987530  1
  O  O321  1  0.75657949  0.75604196  0.62072597  1
  O  O322  1  0.24213990  0.24000727  0.38233576  1
  O  O323  1  0.24496981  0.24389800  0.87999936  1
  O  O324  1  0.24715609  0.74241574  0.37778109  1
  O  O325  1  0.24538372  0.74390400  0.88023125  1
  O  O326  1  0.73877557  0.23947886  0.36970399  1
  O  O327  1  0.75387724  0.25290908  0.89027762  1
  O  O328  1  0.74415825  0.75354489  0.38173533  1
  O  O329  1  0.74570614  0.74460097  0.88045652  1
  O  O330  1  0.00027236  0.11933362  0.01040359  1
  O  O331  1  0.01287531  0.12185409  0.50116244  1
  O  O332  1  0.01248016  0.62605094  -0.00036634  1
  O  O333  1  0.00080410  0.61858457  0.50612973  1
  O  O334  1  0.49383524  0.11365027  0.00271820  1
  O  O335  1  0.50502586  0.11764743  0.49930433  1
  O  O336  1  0.50751014  0.61702194  -0.00030449  1
  O  O337  1  0.50389455  0.61139017  0.50346114  1
  O  O338  1  0.50028203  0.38874493  0.49930617  1
  O  O339  1  0.49530792  0.37947012  0.99532713  1
  O  O340  1  0.49559510  0.88256654  0.49533310  1
  O  O341  1  0.49135466  0.88201911  0.99719923  1
  O  O342  1  0.99418351  0.38048337  0.49407994  1
  O  O343  1  0.98880837  0.37477605  0.99862030  1
  O  O344  1  0.99294636  0.87482115  0.49302229  1
  O  O345  1  0.99402061  0.87920879  0.99503742  1
  O  O346  1  0.50384161  0.50479753  0.38627771  1
  O  O347  1  0.49536798  0.49276771  0.87989465  1
  O  O348  1  0.49815016  0.99504274  0.38542917  1
  O  O349  1  0.48640911  0.99763697  0.88337365  1
  O  O350  1  0.99572423  0.49416190  0.37919968  1
  O  O351  1  0.99164850  0.49785772  0.87913830  1
  O  O352  1  0.99296907  0.99355620  0.37563982  1
  O  O353  1  0.99429278  0.99452667  0.88076441  1
  O  O354  1  0.00679049  0.00627001  0.12159109  1
  O  O355  1  0.01138473  0.00036422  0.62324485  1
  O  O356  1  0.00616757  0.50520138  0.12013324  1
  O  O357  1  -0.00061479  0.50552200  0.61840412  1
  O  O358  1  0.49754461  0.00047807  0.11397665  1
  O  O359  1  0.50214586  0.00160891  0.61207446  1
  O  O360  1  0.50598343  0.50123344  0.11850754  1
  O  O361  1  0.51236895  0.49945665  0.61666736  1
  O  O362  1  0.24540237  0.38061028  0.24646865  1
  O  O363  1  0.24290335  0.38340990  0.75546836  1
  O  O364  1  0.24046786  0.86821228  0.24260378  1
  O  O365  1  0.24262167  0.87496888  0.74342821  1
  O  O366  1  0.74348963  0.38087713  0.24497607  1
  O  O367  1  0.74310720  0.37930176  0.74215695  1
  O  O368  1  0.74416100  0.88196277  0.24511503  1
  O  O369  1  0.74548477  0.87933348  0.74489010  1
  O  O370  1  0.25966827  0.13364709  0.26003202  1
  O  O371  1  0.25900703  0.12032053  0.75797941  1
  O  O372  1  0.24476014  0.61505925  0.25764447  1
  O  O373  1  0.25567286  0.61678150  0.75593718  1
  O  O374  1  0.74902634  0.12079717  0.26051272  1
  O  O375  1  0.75549507  0.11874223  0.75050653  1
  O  O376  1  0.75155243  0.61648717  0.25217264  1
  O  O377  1  0.75649086  0.61970258  0.75499903  1
  O  O378  1  0.36564729  0.12583874  0.36822153  1
  O  O379  1  0.36933156  0.11576170  0.86640331  1
  O  O380  1  0.36382588  0.62137752  0.37681159  1
  O  O381  1  0.37012540  0.61787980  0.86971526  1
  O  O382  1  0.86461505  0.12224552  0.37785523  1
  O  O383  1  0.87038769  0.11857745  0.86844911  1
  O  O384  1  0.87348049  0.61657581  0.37073877  1
  O  O385  1  0.86973720  0.62099845  0.86968077  1
  O  O386  1  0.13247916  0.37486576  0.13190042  1
  O  O387  1  0.12068142  0.37474368  0.63912334  1
  O  O388  1  0.12959817  0.88165114  0.12981114  1
  O  O389  1  0.12835596  0.88089594  0.62916429  1
  O  O390  1  0.63021887  0.38225442  0.13308289  1
  O  O391  1  0.63188964  0.38116458  0.63210679  1
  O  O392  1  0.63177585  0.87805933  0.13127831  1
  O  O393  1  0.63271492  0.87704195  0.63213018  1
  O  O394  1  0.11952868  0.25573422  0.25689988  1
  O  O395  1  0.12069715  0.25466873  0.75449053  1
  O  O396  1  0.11755702  0.75714299  0.25425534  1
  O  O397  1  0.12010350  0.75410880  0.75570392  1
  O  O398  1  0.61664753  0.25480773  0.25679086  1
  O  O399  1  0.61621833  0.26091086  0.74258819  1
  O  O400  1  0.61758737  0.75858770  0.25437608  1
  O  O401  1  0.61889372  0.75314701  0.75468597  1
  O  O402  1  0.38156308  0.24574682  0.24780911  1
  O  O403  1  0.38182533  0.23941433  0.75196867  1
  O  O404  1  0.38566396  0.75714456  0.23940079  1
  O  O405  1  0.38471698  0.74345971  0.75087446  1
  O  O406  1  0.88358201  0.24927230  0.24728772  1
  O  O407  1  0.87868978  0.24599214  0.74242608  1
  O  O408  1  0.88503120  0.75263023  0.24498341  1
  O  O409  1  0.88080293  0.74437097  0.74502856  1
  O  O410  1  0.39016465  0.49252921  0.49821252  1
  O  O411  1  0.38031337  0.49370116  0.99428605  1
  O  O412  1  0.38294900  0.99479561  0.49796074  1
  O  O413  1  0.37909625  0.99471258  0.99351766  1
  O  O414  1  0.88083620  0.49313528  0.49422651  1
  O  O415  1  0.87231491  0.49040517  0.99450224  1
  O  O416  1  0.87566898  0.99412756  0.49453994  1
  O  O417  1  0.87944926  0.99428236  0.99522663  1
  O  O418  1  0.11676459  0.00042981  0.01123565  1
  O  O419  1  0.12319712  0.00642290  0.50856300  1
  O  O420  1  0.12731562  0.51116653  -0.00229396  1
  O  O421  1  0.11684458  0.49986224  0.50218509  1
  O  O422  1  0.60913249  -0.00441976  0.00008272  1
  O  O423  1  0.61466011  0.01093479  0.49913576  1
  O  O424  1  0.62106617  0.50362680  0.00512266  1
  O  O425  1  0.61727294  0.49778130  0.50653571  1
  O  O426  1  0.36846144  0.36879055  0.11792552  1
  O  O427  1  0.38208461  0.37857851  0.60521524  1
  O  O428  1  0.36906201  0.86612522  0.11973965  1
  O  O429  1  0.36694855  0.87276234  0.61840269  1
  O  O430  1  0.86889642  0.37599483  0.11502423  1
  O  O431  1  0.86775407  0.36872201  0.62258185  1
  O  O432  1  0.86919950  0.87128262  0.11927294  1
  O  O433  1  0.87050252  0.86917187  0.62071866  1
  O  O434  1  0.12989084  0.12843093  0.38093173  1
  O  O435  1  0.13097942  0.12966881  0.87582502  1
  O  O436  1  0.13662287  0.63232202  0.37780465  1
  O  O437  1  0.13068889  0.63059897  0.88119590  1
  O  O438  1  0.63028349  0.13387916  0.38138709  1
  O  O439  1  0.62890018  0.12337030  0.88462771  1
  O  O440  1  0.63064693  0.63740196  0.37745740  1
  O  O441  1  0.63219486  0.62882596  0.88000097  1
