# generated using pymatgen
data_V93Zn93O256
_symmetry_space_group_name_H-M   'P 1'
_cell_length_a   17.05573888
_cell_length_b   17.05638774
_cell_length_c   17.05372898
_cell_angle_alpha   90.05465627
_cell_angle_beta   89.95687617
_cell_angle_gamma   90.03325489
_symmetry_Int_Tables_number   1
_chemical_formula_structural   V93Zn93O256
_chemical_formula_sum   'V93 Zn93 O256'
_cell_volume   4961.08378761
_cell_formula_units_Z   1
loop_
 _symmetry_equiv_pos_site_id
 _symmetry_equiv_pos_as_xyz
  1  'x, y, z'
loop_
 _atom_site_type_symbol
 _atom_site_label
 _atom_site_symmetry_multiplicity
 _atom_site_fract_x
 _atom_site_fract_y
 _atom_site_fract_z
 _atom_site_occupancy
  V  V0  1  0.75116320  0.25032193  0.00261056  1
  V  V1  1  0.25073642  0.37644356  0.62446680  1
  V  V2  1  0.12615182  0.12593069  -0.00108642  1
  V  V3  1  0.24832049  0.74968886  0.49957114  1
  V  V4  1  0.24937153  0.00091328  0.24813477  1
  V  V5  1  0.62575137  0.25013032  0.87518292  1
  V  V6  1  0.75025213  0.24263569  0.50200410  1
  V  V7  1  0.49977871  0.50081370  0.49959530  1
  V  V8  1  0.38180752  0.24643478  0.62324203  1
  V  V9  1  0.24743743  0.00049458  0.74242632  1
  V  V10  1  0.87875999  0.12371291  0.74966972  1
  V  V11  1  0.49408851  0.74703973  0.25011878  1
  V  V12  1  0.87565008  0.37371686  0.00072070  1
  V  V13  1  0.74826519  0.61783854  0.37190864  1
  V  V14  1  0.75154172  0.12395747  0.87539152  1
  V  V15  1  0.37478131  0.50011111  0.87339342  1
  V  V16  1  0.87033174  0.87575775  0.50503439  1
  V  V17  1  0.12650249  0.37592375  0.74897140  1
  V  V18  1  0.86975998  0.61995384  0.25088478  1
  V  V19  1  0.62429197  0.75120145  0.87543089  1
  V  V20  1  0.37588762  0.37397635  -0.00124524  1
  V  V21  1  -0.00146708  0.49986440  0.49841711  1
  V  V22  1  0.38265305  0.12473437  0.74610511  1
  V  V23  1  0.12455837  0.87824781  0.74258382  1
  V  V24  1  0.01146552  0.00303370  0.50449814  1
  V  V25  1  0.00063347  0.12491701  0.12546748  1
  V  V26  1  0.37552320  0.87630952  -0.00126422  1
  V  V27  1  0.62522609  0.62543397  0.00050239  1
  V  V28  1  -0.00262913  0.62841609  0.12563258  1
  V  V29  1  0.37399604  0.75081617  0.62337130  1
  V  V30  1  0.50000849  -0.00018688  -0.00138618  1
  V  V31  1  0.25130170  0.25068086  -0.00084613  1
  V  V32  1  0.87288391  0.00121659  0.37669931  1
  V  V33  1  0.62572039  0.62600091  0.50130729  1
  V  V34  1  0.75174653  0.49936324  0.75101659  1
  V  V35  1  0.37629009  0.25159997  0.12319427  1
  V  V36  1  0.62509350  -0.00048813  0.12647493  1
  V  V37  1  0.24958655  0.75109931  -0.00162176  1
  V  V38  1  0.37323057  0.50713635  0.36824139  1
  V  V39  1  0.62588775  0.12430391  0.00012344  1
  V  V40  1  -0.00056824  0.37405937  0.37531290  1
  V  V41  1  0.75166825  0.37324500  0.62566789  1
  V  V42  1  0.49729017  0.87609604  0.37687661  1
  V  V43  1  0.50062356  0.12549488  0.12445099  1
  V  V44  1  0.62658755  0.87648673  0.25105251  1
  V  V45  1  0.62507821  0.50044943  0.62635063  1
  V  V46  1  0.87495220  0.12433775  0.25239418  1
  V  V47  1  0.87564680  -0.00066504  0.87569158  1
  V  V48  1  0.12666886  0.25052440  0.87571775  1
  V  V49  1  0.74919078  0.75161110  0.50304652  1
  V  V50  1  0.24937471  0.87486121  0.12328857  1
  V  V51  1  0.12424579  0.62426319  0.49688752  1
  V  V52  1  0.24315581  0.12679046  0.37690942  1
  V  V53  1  -0.00152772  0.49947924  -0.00063276  1
  V  V54  1  0.74993721  0.62433785  0.87500868  1
  V  V55  1  0.50051172  0.50000724  -0.00053195  1
  V  V56  1  0.00096259  0.25059675  0.25034295  1
  V  V57  1  -0.00075294  0.87519662  0.37560610  1
  V  V58  1  0.00010259  0.00021048  -0.00092320  1
  V  V59  1  0.63071707  0.49775902  0.13285222  1
  V  V60  1  0.37584439  0.00013917  0.87324032  1
  V  V61  1  0.49872435  0.37437045  0.37450212  1
  V  V62  1  0.25087281  0.62451542  0.87291449  1
  V  V63  1  0.87416622  0.87312103  0.00249087  1
  V  V64  1  0.87494291  0.37389358  0.50024978  1
  V  V65  1  0.50151262  0.37398263  0.87312705  1
  V  V66  1  0.49856291  0.75133881  0.75005146  1
  V  V67  1  0.87492370  0.24915587  0.12562668  1
  V  V68  1  0.37374484  0.12576874  0.24791040  1
  V  V69  1  0.50157605  0.25035440  0.25018752  1
  V  V70  1  0.49424001  0.62432396  0.12743895  1
  V  V71  1  0.37373822  0.87515212  0.49967855  1
  V  V72  1  0.62353367  0.75067097  0.37723673  1
  V  V73  1  0.12492413  0.50052192  0.12460261  1
  V  V74  1  0.00054547  0.37560966  0.87436873  1
  V  V75  1  0.12548518  -0.00001238  0.12295832  1
  V  V76  1  0.00141457  0.24855810  0.74882206  1
  V  V77  1  0.75194608  -0.00738458  0.74256324  1
  V  V78  1  0.61870555  -0.00289142  0.62154786  1
  V  V79  1  0.49936346  0.62571523  0.62475203  1
  V  V80  1  0.12252013  0.75107211  0.37435493  1
  V  V81  1  0.12546794  0.74995940  0.87285975  1
  V  V82  1  0.37335008  0.74844182  0.12613197  1
  V  V83  1  0.24398951  0.24755799  0.49922279  1
  V  V84  1  0.12729021  0.37735673  0.25035955  1
  V  V85  1  0.37320985  -0.00036160  0.37479754  1
  V  V86  1  0.62344126  0.24223029  0.37768030  1
  V  V87  1  0.12322858  0.87410224  0.24937446  1
  V  V88  1  -0.00005135  0.74938748  0.75008064  1
  V  V89  1  0.01494946  0.12116853  0.62292470  1
  V  V90  1  0.62659778  0.37434695  0.75193582  1
  V  V91  1  0.87550444  0.62447447  0.75008917  1
  V  V92  1  0.87006924  0.75229175  0.62625900  1
  Zn  Zn93  1  0.25371919  0.63036414  0.36597866  1
  Zn  Zn94  1  0.12296060  0.62612094  -0.00076798  1
  Zn  Zn95  1  0.49486998  0.00584492  0.50360854  1
  Zn  Zn96  1  0.74914523  0.00196457  0.25101455  1
  Zn  Zn97  1  0.25077508  0.12496977  0.87311202  1
  Zn  Zn98  1  0.25042939  0.50130187  0.74699772  1
  Zn  Zn99  1  0.24539675  0.87878612  0.62093342  1
  Zn  Zn100  1  -0.00045825  0.62346690  0.62467876  1
  Zn  Zn101  1  0.87554886  0.50004662  0.87510920  1
  Zn  Zn102  1  0.25301907  0.37733109  0.12491081  1
  Zn  Zn103  1  0.86851883  0.75050743  0.12845564  1
  Zn  Zn104  1  0.74692379  0.12257423  0.37855713  1
  Zn  Zn105  1  0.37365875  0.37627298  0.50032452  1
  Zn  Zn106  1  0.12633736  0.50114182  0.62397559  1
  Zn  Zn107  1  -0.00369740  0.75114729  0.25072529  1
  Zn  Zn108  1  0.87784005  0.24733374  0.62462780  1
  Zn  Zn109  1  0.00160610  0.87479942  0.87486861  1
  Zn  Zn110  1  0.63439657  0.37780611  0.25698613  1
  Zn  Zn111  1  0.50120434  0.87585272  0.87410163  1
  Zn  Zn112  1  0.74961663  0.87403718  0.12567348  1
  Zn  Zn113  1  0.12316447  0.24768097  0.37725933  1
  Zn  Zn114  1  0.50516820  0.24620971  0.74354856  1
  Zn  Zn115  1  0.25949792  0.50795701  0.24138444  1
  Zn  Zn116  1  0.63228757  0.87145903  0.74540120  1
  Zn  Zn117  1  0.75624639  0.37893427  0.13421656  1
  Zn  Zn118  1  0.58735033  0.14869454  0.53777247  1
  Zn  Zn119  1  0.37317863  0.62378830  0.74644648  1
  Zn  Zn120  1  0.86656127  0.49458243  0.36999436  1
  Zn  Zn121  1  0.74989661  0.75023252  0.00308884  1
  Zn  Zn122  1  0.18837107  0.19004910  0.18591278  1
  Zn  Zn123  1  0.19309868  0.18874700  0.68917853  1
  Zn  Zn124  1  0.18658434  0.68617352  0.18981914  1
  Zn  Zn125  1  0.18630840  0.68872478  0.68503996  1
  Zn  Zn126  1  0.68970720  0.18779528  0.19135436  1
  Zn  Zn127  1  0.69195318  0.18351693  0.69035969  1
  Zn  Zn128  1  0.68591182  0.68893860  0.18773527  1
  Zn  Zn129  1  0.68816992  0.68699390  0.68916983  1
  Zn  Zn130  1  0.31187500  0.31534702  0.31062506  1
  Zn  Zn131  1  0.31384392  0.31119517  0.81047736  1
  Zn  Zn132  1  0.30977183  0.81257317  0.31259194  1
  Zn  Zn133  1  0.31192687  0.81469766  0.81025527  1
  Zn  Zn134  1  0.81067462  0.31194244  0.31315812  1
  Zn  Zn135  1  0.81482390  0.31111201  0.81380564  1
  Zn  Zn136  1  0.81231008  0.80759029  0.31579876  1
  Zn  Zn137  1  0.81427599  0.81219340  0.81658265  1
  Zn  Zn138  1  0.18840030  0.43584473  0.43772619  1
  Zn  Zn139  1  0.18815418  0.43752194  0.93822847  1
  Zn  Zn140  1  0.18975308  0.93585356  0.43545110  1
  Zn  Zn141  1  0.18870434  0.93760995  0.93109239  1
  Zn  Zn142  1  0.68589920  0.43328687  0.44107977  1
  Zn  Zn143  1  0.68949763  0.43779211  0.94141659  1
  Zn  Zn144  1  0.68640688  0.93809357  0.44121173  1
  Zn  Zn145  1  0.68924727  0.93668252  0.93539126  1
  Zn  Zn146  1  0.31261544  0.06379897  0.06055524  1
  Zn  Zn147  1  0.31228993  0.06511197  0.56120246  1
  Zn  Zn148  1  0.31182141  0.56281134  0.05795618  1
  Zn  Zn149  1  0.31325665  0.56350731  0.55561366  1
  Zn  Zn150  1  0.81096461  0.06000812  0.06519861  1
  Zn  Zn151  1  0.81808513  0.06209352  0.56786815  1
  Zn  Zn152  1  0.81260287  0.56351199  0.06098540  1
  Zn  Zn153  1  0.81299538  0.56304060  0.56236876  1
  Zn  Zn154  1  0.44359108  0.43522680  0.18764109  1
  Zn  Zn155  1  0.43662942  0.43633679  0.68937164  1
  Zn  Zn156  1  0.43780813  0.93664768  0.18731290  1
  Zn  Zn157  1  0.43671157  0.93566460  0.68698652  1
  Zn  Zn158  1  0.93775465  0.43832871  0.18810577  1
  Zn  Zn159  1  0.93821020  0.43683620  0.68563117  1
  Zn  Zn160  1  0.93738935  0.93813729  0.18767716  1
  Zn  Zn161  1  0.94068209  0.93816688  0.68654957  1
  Zn  Zn162  1  0.06037402  0.05968923  0.31306082  1
  Zn  Zn163  1  0.06385360  0.06197149  0.81251671  1
  Zn  Zn164  1  0.05936115  0.56289246  0.31139507  1
  Zn  Zn165  1  0.06396221  0.56163930  0.81090088  1
  Zn  Zn166  1  0.55834239  0.06259113  0.31482543  1
  Zn  Zn167  1  0.56560469  0.06051042  0.80958334  1
  Zn  Zn168  1  0.56049177  0.56467577  0.31293325  1
  Zn  Zn169  1  0.56214022  0.56362155  0.81184248  1
  Zn  Zn170  1  0.42920503  0.18799575  0.43661143  1
  Zn  Zn171  1  0.43825264  0.18646313  0.93342521  1
  Zn  Zn172  1  0.43768900  0.68829675  0.43891142  1
  Zn  Zn173  1  0.43678676  0.68665352  0.93865265  1
  Zn  Zn174  1  0.93994588  0.18615187  0.44053839  1
  Zn  Zn175  1  0.93888062  0.18788976  0.93675676  1
  Zn  Zn176  1  0.93554954  0.68665449  0.43591359  1
  Zn  Zn177  1  0.93749523  0.68824301  0.93714938  1
  Zn  Zn178  1  0.06240659  0.31298865  0.06282893  1
  Zn  Zn179  1  0.06295039  0.31059356  0.56421434  1
  Zn  Zn180  1  0.06193049  0.81213223  0.06022263  1
  Zn  Zn181  1  0.05689674  0.81168018  0.56191288  1
  Zn  Zn182  1  0.56308095  0.31373002  0.06101592  1
  Zn  Zn183  1  0.56353897  0.31990170  0.56119165  1
  Zn  Zn184  1  0.56159807  0.81314092  0.06310604  1
  Zn  Zn185  1  0.56247160  0.81853552  0.56478923  1
  O  O186  1  0.12037908  0.11973344  0.11948881  1
  O  O187  1  0.11394658  0.12856671  0.63108057  1
  O  O188  1  0.11461947  0.61607872  0.12399205  1
  O  O189  1  0.12278347  0.62414434  0.60952249  1
  O  O190  1  0.61958099  0.12021964  0.12066796  1
  O  O191  1  0.62984651  0.10810122  0.63216641  1
  O  O192  1  0.61483477  0.61665784  0.12134166  1
  O  O193  1  0.62003794  0.61968693  0.62031233  1
  O  O194  1  0.38695181  0.38095265  0.37574471  1
  O  O195  1  0.38122453  0.37946658  0.87900154  1
  O  O196  1  0.37739445  0.88006269  0.37956515  1
  O  O197  1  0.37733575  0.88099087  0.88125530  1
  O  O198  1  0.88123343  0.37633308  0.38166306  1
  O  O199  1  0.88303433  0.37572071  0.88219325  1
  O  O200  1  0.87958254  0.88202504  0.38261148  1
  O  O201  1  0.87870622  0.88085868  0.88570667  1
  O  O202  1  0.25358514  0.00728426  0.36784735  1
  O  O203  1  0.25858940  0.00138501  0.86344633  1
  O  O204  1  0.26850104  0.49623292  0.37683388  1
  O  O205  1  0.25533451  0.50955727  0.87589222  1
  O  O206  1  0.76138886  0.00189560  0.37686199  1
  O  O207  1  0.75582117  0.00688662  0.86855694  1
  O  O208  1  0.74650299  0.51383748  0.38348056  1
  O  O209  1  0.75104299  0.50595973  0.86888171  1
  O  O210  1  0.23825578  0.49930835  0.12193416  1
  O  O211  1  0.25122437  0.48814590  0.62184400  1
  O  O212  1  0.24507041  0.99496361  0.12841977  1
  O  O213  1  0.25470174  0.99930314  0.63838623  1
  O  O214  1  0.73289246  0.50245188  0.12090679  1
  O  O215  1  0.74426006  0.49451955  0.63016307  1
  O  O216  1  0.74074097  0.99573532  0.13052782  1
  O  O217  1  0.74606356  1.00275007  0.63697487  1
  O  O218  1  0.00676922  0.37051969  0.25534705  1
  O  O219  1  0.00621956  0.36932828  0.75381175  1
  O  O220  1  0.00581005  0.87519498  0.25685234  1
  O  O221  1  0.00765030  0.86907831  0.75212505  1
  O  O222  1  0.50633291  0.36849451  0.26016075  1
  O  O223  1  0.50932031  0.37335775  0.75614676  1
  O  O224  1  0.50774846  0.86718845  0.25501760  1
  O  O225  1  0.50133087  0.85998942  0.75167015  1
  O  O226  1  0.49307702  0.13041619  0.24429455  1
  O  O227  1  0.48697737  0.12609173  0.75315988  1
  O  O228  1  0.50545572  0.63754551  0.24059867  1
  O  O229  1  0.49912335  0.63538379  0.74325154  1
  O  O230  1  0.99603532  0.12994362  0.24476391  1
  O  O231  1  0.99773099  0.12844626  0.74384222  1
  O  O232  1  0.99095948  0.62681786  0.24146682  1
  O  O233  1  0.99416559  0.63066978  0.74735205  1
  O  O234  1  0.37213144  0.25442650  0.00366676  1
  O  O235  1  0.36355998  0.25392724  0.50748108  1
  O  O236  1  0.36956895  0.75630416  0.00582799  1
  O  O237  1  0.36892520  0.75526730  0.50277807  1
  O  O238  1  0.87117037  0.25350611  0.00590960  1
  O  O239  1  0.86682927  0.25683569  0.50023721  1
  O  O240  1  0.87440006  0.76160255  0.00146002  1
  O  O241  1  0.87086616  0.75648233  0.50689429  1
  O  O242  1  0.13980784  0.25535316  0.49673225  1
  O  O243  1  0.13046337  0.24604765  0.99579912  1
  O  O244  1  0.12688433  0.74328664  0.49473192  1
  O  O245  1  0.13212485  0.74955417  0.99193150  1
  O  O246  1  0.63149673  0.24910576  0.49666406  1
  O  O247  1  0.63057974  0.24383424  0.99564404  1
  O  O248  1  0.62816825  0.74617566  0.49687207  1
  O  O249  1  0.62233638  0.74446720  0.99039217  1
  O  O250  1  0.49663758  0.24462425  0.12911915  1
  O  O251  1  0.48745236  0.25704677  0.62287926  1
  O  O252  1  0.49523701  0.74293531  0.13146999  1
  O  O253  1  0.49586572  0.74526280  0.63152759  1
  O  O254  1  0.99493780  0.24368284  0.13003198  1
  O  O255  1  0.99927651  0.24123855  0.63090618  1
  O  O256  1  0.99961591  0.73696461  0.12511378  1
  O  O257  1  0.98702344  0.74684301  0.63057312  1
  O  O258  1  0.00334407  0.25522471  0.36931109  1
  O  O259  1  0.00724837  0.25568432  0.86946552  1
  O  O260  1  0.00491497  0.75808085  0.37562510  1
  O  O261  1  0.00742221  0.75024298  0.86759108  1
  O  O262  1  0.50424112  0.25709245  0.37187570  1
  O  O263  1  0.50870734  0.25680083  0.87327049  1
  O  O264  1  0.50317588  0.75457384  0.36798319  1
  O  O265  1  0.50766958  0.74698080  0.86687056  1
  O  O266  1  0.25586388  0.13417717  0.48743571  1
  O  O267  1  0.24364323  0.13208607  0.99801211  1
  O  O268  1  0.23972566  0.62984256  0.49190527  1
  O  O269  1  0.24812419  0.63222026  0.98906975  1
  O  O270  1  0.75700420  0.13846910  0.50107484  1
  O  O271  1  0.74529207  0.12925197  0.99523175  1
  O  O272  1  0.74385875  0.63165660  0.49367949  1
  O  O273  1  0.74313424  0.62694470  0.99260354  1
  O  O274  1  0.25825385  0.36879555  0.00125987  1
  O  O275  1  0.25238831  0.36724134  0.50795041  1
  O  O276  1  0.25534632  0.87095082  0.00441189  1
  O  O277  1  0.25461929  0.86803652  0.50155716  1
  O  O278  1  0.75720877  0.36790255  0.00549518  1
  O  O279  1  0.75422377  0.36521208  0.50612851  1
  O  O280  1  0.76194606  0.87495019  0.00061462  1
  O  O281  1  0.76352398  0.86749580  0.49253200  1
  O  O282  1  0.12000031  0.49104774  0.23992948  1
  O  O283  1  0.12888212  0.49199699  0.74456513  1
  O  O284  1  0.12970406  0.99437457  0.24261575  1
  O  O285  1  0.13511228  0.98956173  0.75766319  1
  O  O286  1  0.61733176  0.50093035  0.23538638  1
  O  O287  1  0.63126715  0.49489530  0.74548132  1
  O  O288  1  0.62271368  0.99086191  0.24750121  1
  O  O289  1  0.63413660  0.99633376  0.74277716  1
  O  O290  1  0.36822125  0.00482666  0.25334322  1
  O  O291  1  0.36944287  0.00577070  0.75281844  1
  O  O292  1  0.37902665  0.49397476  0.26440678  1
  O  O293  1  0.37208444  0.50366763  0.75774609  1
  O  O294  1  0.87536668  0.00400099  0.26191312  1
  O  O295  1  0.87087228  0.00349075  0.75558273  1
  O  O296  1  0.87858294  0.51425216  0.25231196  1
  O  O297  1  0.86938033  0.50581160  0.75027032  1
  O  O298  1  0.11989028  0.37547807  0.36401062  1
  O  O299  1  0.12016009  0.37014109  0.86975342  1
  O  O300  1  0.11881146  0.87079674  0.36864810  1
  O  O301  1  0.12445619  0.86700692  0.86376455  1
  O  O302  1  0.61423343  0.36475790  0.37826721  1
  O  O303  1  0.62190278  0.37006978  0.87154089  1
  O  O304  1  0.61793117  0.87061319  0.37017888  1
  O  O305  1  0.62236386  0.86232444  0.87337097  1
  O  O306  1  0.38124673  0.13094757  0.12852764  1
  O  O307  1  0.36832555  0.13641541  0.63371839  1
  O  O308  1  0.38741145  0.63028195  0.11737319  1
  O  O309  1  0.38171512  0.63170429  0.62266293  1
  O  O310  1  0.88169973  0.12841097  0.13141176  1
  O  O311  1  0.88583833  0.12726955  0.63500886  1
  O  O312  1  0.88144587  0.62488621  0.13228144  1
  O  O313  1  0.87618978  0.63449076  0.63077192  1
  O  O314  1  0.25853412  0.25327363  0.11776778  1
  O  O315  1  0.25756834  0.25713089  0.61773679  1
  O  O316  1  0.25362229  0.75527876  0.11908434  1
  O  O317  1  0.25703859  0.75013513  0.61642785  1
  O  O318  1  0.75787307  0.24794852  0.11834541  1
  O  O319  1  0.75108597  0.25518889  0.61787833  1
  O  O320  1  0.74955755  0.75533636  0.12084593  1
  O  O321  1  0.76189858  0.74512134  0.62019698  1
  O  O322  1  0.25104596  0.24387494  0.38116327  1
  O  O323  1  0.24426688  0.24962177  0.88131928  1
  O  O324  1  0.24129332  0.75071779  0.38163059  1
  O  O325  1  0.24689457  0.74269144  0.87823948  1
  O  O326  1  0.73891221  0.24976498  0.38623684  1
  O  O327  1  0.74547486  0.24382689  0.88206555  1
  O  O328  1  0.74213523  0.74058513  0.38342462  1
  O  O329  1  0.73836243  0.74328077  0.87481199  1
  O  O330  1  0.00611128  0.12046937  0.00631227  1
  O  O331  1  -0.00436667  0.11526674  0.51038278  1
  O  O332  1  -0.00056612  0.61871637  0.00903806  1
  O  O333  1  0.00574910  0.61624661  0.49875965  1
  O  O334  1  0.50617093  0.11988607  0.00503683  1
  O  O335  1  0.49265630  0.11817364  0.49341163  1
  O  O336  1  0.50538170  0.62060099  0.00835792  1
  O  O337  1  0.50741384  0.62139285  0.50528154  1
  O  O338  1  0.49866928  0.38213933  0.48970633  1
  O  O339  1  0.49530560  0.38012145  0.99248632  1
  O  O340  1  0.49196945  0.87805937  0.49281015  1
  O  O341  1  0.49298140  0.88216586  0.99996688  1
  O  O342  1  0.99659602  0.38052189  0.49543135  1
  O  O343  1  0.99530768  0.37894888  0.99412252  1
  O  O344  1  0.98915394  0.88206102  0.49558665  1
  O  O345  1  0.99184082  0.88208741  0.99923020  1
  O  O346  1  0.49422402  0.49358097  0.37817254  1
  O  O347  1  0.49588624  0.49522037  0.88012888  1
  O  O348  1  0.48942921  0.99192295  0.37352645  1
  O  O349  1  0.49495666  0.99840425  0.88074327  1
  O  O350  1  0.99771475  0.49333998  0.38542675  1
  O  O351  1  0.99990634  0.49346272  0.88141705  1
  O  O352  1  0.99042804  0.99612126  0.38337202  1
  O  O353  1  0.99356511  0.99959772  0.88227543  1
  O  O354  1  0.00660217  0.00601341  0.11952676  1
  O  O355  1  -0.00435553  0.00865731  0.61576821  1
  O  O356  1  0.00644568  0.50841673  0.11997653  1
  O  O357  1  0.00290371  0.50010393  0.61036081  1
  O  O358  1  0.50449411  0.00650493  0.11968747  1
  O  O359  1  0.51410255  -0.00295704  0.62640520  1
  O  O360  1  0.50591653  0.50819988  0.11965191  1
  O  O361  1  0.50503759  0.50480457  0.62059389  1
  O  O362  1  0.23978640  0.38185474  0.24658487  1
  O  O363  1  0.24536125  0.37456266  0.73989824  1
  O  O364  1  0.24369726  0.88127358  0.24314227  1
  O  O365  1  0.24244947  0.88220142  0.74627208  1
  O  O366  1  0.74607979  0.37248697  0.24647608  1
  O  O367  1  0.74627032  0.37913853  0.74602962  1
  O  O368  1  0.73477812  0.87428814  0.25461459  1
  O  O369  1  0.75151690  0.88833165  0.75849097  1
  O  O370  1  0.25534741  0.12075501  0.25360230  1
  O  O371  1  0.25968693  0.11712905  0.75209280  1
  O  O372  1  0.24515036  0.61864417  0.25493145  1
  O  O373  1  0.25075994  0.62482463  0.76086113  1
  O  O374  1  0.75927698  0.12277733  0.25687573  1
  O  O375  1  0.75944602  0.11618075  0.75772715  1
  O  O376  1  0.75533929  0.63153698  0.26195013  1
  O  O377  1  0.75519681  0.61842828  0.75536751  1
  O  O378  1  0.36308109  0.12019153  0.36521409  1
  O  O379  1  0.37283019  0.11907360  0.86512415  1
  O  O380  1  0.37803071  0.61019130  0.37798906  1
  O  O381  1  0.36587036  0.61973030  0.87498250  1
  O  O382  1  0.87675499  0.11472764  0.37139381  1
  O  O383  1  0.87157798  0.11888096  0.87051357  1
  O  O384  1  0.86451711  0.62318103  0.36890888  1
  O  O385  1  0.86811983  0.62418077  0.86798317  1
  O  O386  1  0.12286166  0.38517996  0.13277371  1
  O  O387  1  0.13637403  0.37421012  0.62981268  1
  O  O388  1  0.13004055  0.88059106  0.12838084  1
  O  O389  1  0.12468337  0.86778659  0.63820878  1
  O  O390  1  0.62177600  0.39110503  0.12473821  1
  O  O391  1  0.63157564  0.38147303  0.63166881  1
  O  O392  1  0.62193165  0.88055826  0.13623744  1
  O  O393  1  0.62750275  0.88869743  0.62859653  1
  O  O394  1  0.11988542  0.26252090  0.24753557  1
  O  O395  1  0.12144517  0.25615847  0.75620273  1
  O  O396  1  0.12150806  0.75814341  0.25592606  1
  O  O397  1  0.12004482  0.75653508  0.75390878  1
  O  O398  1  0.61812288  0.24975374  0.26101153  1
  O  O399  1  0.62638480  0.25564591  0.75664579  1
  O  O400  1  0.61402475  0.75814190  0.25615618  1
  O  O401  1  0.61725162  0.74923012  0.75780839  1
  O  O402  1  0.38104174  0.24629732  0.24347210  1
  O  O403  1  0.37679224  0.24164377  0.74115252  1
  O  O404  1  0.38708395  0.75878940  0.24341839  1
  O  O405  1  0.38318682  0.74781041  0.74360625  1
  O  O406  1  0.88264869  0.24380871  0.24585242  1
  O  O407  1  0.88397293  0.24218128  0.75121312  1
  O  O408  1  0.87732613  0.73800756  0.24937002  1
  O  O409  1  0.87852292  0.74589259  0.74389674  1
  O  O410  1  0.38333167  0.49688430  0.48816522  1
  O  O411  1  0.38154702  0.49383728  0.99378726  1
  O  O412  1  0.37089182  0.99208549  0.49231082  1
  O  O413  1  0.38015061  0.99622360  0.99426358  1
  O  O414  1  0.88314594  0.49392603  0.49820394  1
  O  O415  1  0.88135307  0.49249609  0.99938760  1
  O  O416  1  0.87946571  0.99208429  0.49391643  1
  O  O417  1  0.88022839  0.99380929  0.99622698  1
  O  O418  1  0.12126334  0.00473299  0.00360154  1
  O  O419  1  0.10988914  -0.00752611  0.49385073  1
  O  O420  1  0.11784539  0.49991550  0.00990739  1
  O  O421  1  0.11711513  0.50770892  0.49738308  1
  O  O422  1  0.62010085  0.00496601  0.00483869  1
  O  O423  1  0.62588228  0.00010749  0.51575690  1
  O  O424  1  0.61823076  0.50579607  0.00869371  1
  O  O425  1  0.61943803  0.50532335  0.50718522  1
  O  O426  1  0.37778757  0.36951816  0.11730506  1
  O  O427  1  0.36613771  0.36621147  0.62555567  1
  O  O428  1  0.36852286  0.86994776  0.11903900  1
  O  O429  1  0.37333457  0.86758983  0.61695075  1
  O  O430  1  0.87763746  0.36722522  0.11894301  1
  O  O431  1  0.86868108  0.37136596  0.61880585  1
  O  O432  1  0.87418621  0.87439887  0.11597332  1
  O  O433  1  0.88034437  0.86551731  0.61476222  1
  O  O434  1  0.13958629  0.12734589  0.36459148  1
  O  O435  1  0.12649694  0.13264987  0.88191305  1
  O  O436  1  0.12103001  0.63127329  0.38475265  1
  O  O437  1  0.13473535  0.63038628  0.87590826  1
  O  O438  1  0.62402483  0.13714503  0.37613999  1
  O  O439  1  0.63104314  0.12978179  0.88068816  1
  O  O440  1  0.62899461  0.63066141  0.38096455  1
  O  O441  1  0.62871970  0.63256101  0.87972431  1
