# generated using pymatgen
data_V93Zn93O256
_symmetry_space_group_name_H-M   'P 1'
_cell_length_a   17.05910935
_cell_length_b   17.05432935
_cell_length_c   17.04781094
_cell_angle_alpha   90.09679915
_cell_angle_beta   90.00644847
_cell_angle_gamma   90.03829000
_symmetry_Int_Tables_number   1
_chemical_formula_structural   V93Zn93O256
_chemical_formula_sum   'V93 Zn93 O256'
_cell_volume   4959.73987544
_cell_formula_units_Z   1
loop_
 _symmetry_equiv_pos_site_id
 _symmetry_equiv_pos_as_xyz
  1  'x, y, z'
loop_
 _atom_site_type_symbol
 _atom_site_label
 _atom_site_symmetry_multiplicity
 _atom_site_fract_x
 _atom_site_fract_y
 _atom_site_fract_z
 _atom_site_occupancy
  V  V0  1  0.25032823  0.37647185  0.62552423  1
  V  V1  1  0.12422097  0.24983800  0.37661193  1
  V  V2  1  -0.00014375  0.37541236  0.37534836  1
  V  V3  1  0.12339648  0.00491296  0.62614066  1
  V  V4  1  0.00046450  0.12447278  0.12466508  1
  V  V5  1  0.12213603  0.87467859  0.75029331  1
  V  V6  1  0.50011977  0.75037616  0.74943256  1
  V  V7  1  0.62484479  0.62377679  -0.00115972  1
  V  V8  1  0.74919351  0.37466433  0.62778455  1
  V  V9  1  0.12441913  -0.00103892  0.12611905  1
  V  V10  1  0.62611620  0.75027501  0.87500892  1
  V  V11  1  0.00007235  0.62923886  0.62723298  1
  V  V12  1  -0.00007745  0.37332589  0.87172600  1
  V  V13  1  0.25056510  0.24963864  0.50079679  1
  V  V14  1  0.62507813  0.62322314  0.50056388  1
  V  V15  1  0.88261437  0.12508971  0.74638936  1
  V  V16  1  0.62105316  0.25325258  0.86527949  1
  V  V17  1  0.62493928  0.12471203  0.00080575  1
  V  V18  1  0.75041059  0.87565430  0.62628182  1
  V  V19  1  0.12514463  0.62499103  0.50084100  1
  V  V20  1  0.75061973  0.00012907  0.74976375  1
  V  V21  1  0.12555325  0.49964446  0.62676567  1
  V  V22  1  0.75146396  0.12478066  0.87528053  1
  V  V23  1  0.62565661  0.74990018  0.37474342  1
  V  V24  1  0.25006516  0.00107726  0.75021773  1
  V  V25  1  0.12734565  0.25096368  0.87876868  1
  V  V26  1  0.36959613  0.36671745  0.00021107  1
  V  V27  1  0.00035057  0.24930332  0.25060498  1
  V  V28  1  0.37612529  0.50188939  0.87683730  1
  V  V29  1  0.12579563  0.37462286  0.24994756  1
  V  V30  1  0.50136077  0.49963517  0.49959670  1
  V  V31  1  0.12773967  0.12682785  0.00069981  1
  V  V32  1  0.49834494  0.87347657  0.37646686  1
  V  V33  1  0.87616203  0.74944290  0.12574364  1
  V  V34  1  0.87494563  0.37502690  -0.00097079  1
  V  V35  1  0.87601587  0.24933496  0.12435810  1
  V  V36  1  0.37533383  0.49901351  0.37422504  1
  V  V37  1  0.24960729  0.49751243  0.24928816  1
  V  V38  1  0.37404100  0.74932840  0.12424200  1
  V  V39  1  0.87807557  0.62942864  0.75084982  1
  V  V40  1  0.50409808  0.13066050  0.62663412  1
  V  V41  1  0.12333891  0.12625113  0.50579281  1
  V  V42  1  0.87926650  0.75060471  0.62843676  1
  V  V43  1  0.87519908  0.50044459  0.37494043  1
  V  V44  1  0.49967747  0.87602918  0.87465292  1
  V  V45  1  0.24797886  0.74813210  -0.00121393  1
  V  V46  1  0.37185728  0.12636267  0.24781926  1
  V  V47  1  0.75017899  0.87855173  0.13014301  1
  V  V48  1  0.74902904  0.49869907  0.24970480  1
  V  V49  1  0.37289690  0.62515658  0.74977507  1
  V  V50  1  0.00002596  0.87316144  0.87165794  1
  V  V51  1  0.87029699  0.00199045  0.37263453  1
  V  V52  1  0.49938782  0.24946030  0.24959180  1
  V  V53  1  0.24895301  0.12440097  0.37626017  1
  V  V54  1  0.12031582  0.74977353  0.87029747  1
  V  V55  1  -0.00008608  0.00683697  0.50531932  1
  V  V56  1  0.62628554  0.00257147  0.62531070  1
  V  V57  1  0.38017169  0.13099142  0.75012631  1
  V  V58  1  0.87057196  0.12132013  0.25246776  1
  V  V59  1  0.24782562  -0.00236981  0.25066111  1
  V  V60  1  0.74996620  0.62451568  0.37554562  1
  V  V61  1  0.87451133  0.62584448  0.24930426  1
  V  V62  1  0.50167562  0.37183083  0.37347444  1
  V  V63  1  0.75087959  0.74904595  0.50152339  1
  V  V64  1  0.62668810  0.00152214  0.12764696  1
  V  V65  1  0.37616850  0.00032428  0.87570898  1
  V  V66  1  0.50114202  0.62525704  0.62404895  1
  V  V67  1  0.74556749  0.24172247  0.48898588  1
  V  V68  1  0.25032748  0.87592342  0.62490265  1
  V  V69  1  0.87510570  0.00002993  0.87563038  1
  V  V70  1  0.37600935  0.37456731  0.49932837  1
  V  V71  1  0.74953614  0.25000933  -0.00025661  1
  V  V72  1  0.87327203  0.50014521  0.87315893  1
  V  V73  1  0.12477145  0.74986129  0.37522501  1
  V  V74  1  0.87426790  0.37392749  0.49987194  1
  V  V75  1  0.88115251  0.24611813  0.62504502  1
  V  V76  1  0.49883640  0.00126682  0.50122172  1
  V  V77  1  0.00158999  0.87420848  0.37388865  1
  V  V78  1  -0.00025776  0.50048907  0.50061639  1
  V  V79  1  0.62448708  0.37026746  0.25276037  1
  V  V80  1  0.25174822  0.13026027  0.88042329  1
  V  V81  1  0.37533021  0.87447420  -0.00046383  1
  V  V82  1  0.87459112  0.87504258  0.00037000  1
  V  V83  1  0.50071831  0.62375730  0.12421677  1
  V  V84  1  0.37598368  0.62411777  0.24943121  1
  V  V85  1  0.00042017  -0.00000723  0.00037169  1
  V  V86  1  0.12381980  0.50132847  0.12302869  1
  V  V87  1  0.37887849  0.25179167  0.62629140  1
  V  V88  1  0.25080808  0.75145687  0.50155575  1
  V  V89  1  0.87526278  0.87545988  0.50075045  1
  V  V90  1  0.25036113  0.62466609  0.37573760  1
  V  V91  1  0.74938564  0.37525625  0.12504910  1
  V  V92  1  0.62733420  0.87780160  0.25169606  1
  Zn  Zn93  1  0.24901825  0.87385960  0.12571739  1
  Zn  Zn94  1  0.24577643  0.62419599  0.87314291  1
  Zn  Zn95  1  0.00036301  0.50234016  0.00037493  1
  Zn  Zn96  1  0.62515154  0.87596570  0.75054476  1
  Zn  Zn97  1  0.37469069  0.87429996  0.50254345  1
  Zn  Zn98  1  0.00000462  0.62455686  0.12452797  1
  Zn  Zn99  1  0.50026150  -0.00002254  0.00144713  1
  Zn  Zn100  1  0.75094313  0.74922737  -0.00080204  1
  Zn  Zn101  1  0.00563019  0.24520308  0.74444713  1
  Zn  Zn102  1  0.49801547  0.12545455  0.12295661  1
  Zn  Zn103  1  0.37601093  0.75276920  0.62487292  1
  Zn  Zn104  1  0.62492726  0.12828962  0.47783620  1
  Zn  Zn105  1  0.12554332  0.87164550  0.24811794  1
  Zn  Zn106  1  0.61212110  0.37527356  0.74329916  1
  Zn  Zn107  1  0.70803466  0.06221334  0.31275963  1
  Zn  Zn108  1  0.49444439  0.37023500  0.86807075  1
  Zn  Zn109  1  0.74632511  0.49950571  0.74927020  1
  Zn  Zn110  1  0.62547732  0.49886296  0.62766712  1
  Zn  Zn111  1  0.36637818  0.24540378  0.11831739  1
  Zn  Zn112  1  0.74958996  0.62442201  0.87307321  1
  Zn  Zn113  1  0.12699401  0.37468183  0.75018399  1
  Zn  Zn114  1  0.62512033  0.49868400  0.12273357  1
  Zn  Zn115  1  0.37153284  -0.00280596  0.37658396  1
  Zn  Zn116  1  0.00250350  0.74789972  0.24958787  1
  Zn  Zn117  1  0.50020323  0.75026392  0.24987940  1
  Zn  Zn118  1  0.50072605  0.49413612  -0.00129741  1
  Zn  Zn119  1  0.24827468  0.49958840  0.75093464  1
  Zn  Zn120  1  0.12171950  0.62467718  -0.00168016  1
  Zn  Zn121  1  0.24436130  0.36714249  0.11790372  1
  Zn  Zn122  1  0.18837120  0.18891596  0.18591284  1
  Zn  Zn123  1  0.19029313  0.18886778  0.69054268  1
  Zn  Zn124  1  0.18799362  0.68625823  0.18839944  1
  Zn  Zn125  1  0.18742232  0.68904227  0.68720050  1
  Zn  Zn126  1  0.68555366  0.19170190  0.18512715  1
  Zn  Zn127  1  0.69406742  0.18666333  0.68314141  1
  Zn  Zn128  1  0.68810830  0.69013898  0.18775277  1
  Zn  Zn129  1  0.69015252  0.68563755  0.68878917  1
  Zn  Zn130  1  0.31181961  0.31133130  0.31106892  1
  Zn  Zn131  1  0.31254507  0.31453319  0.81218422  1
  Zn  Zn132  1  0.31356862  0.81052679  0.31305550  1
  Zn  Zn133  1  0.31042547  0.81216223  0.81249698  1
  Zn  Zn134  1  0.81376499  0.31161360  0.31063723  1
  Zn  Zn135  1  0.81099040  0.31002855  0.81032445  1
  Zn  Zn136  1  0.81307781  0.81320014  0.31234062  1
  Zn  Zn137  1  0.81192689  0.81203991  0.81207907  1
  Zn  Zn138  1  0.18781395  0.43775184  0.43844383  1
  Zn  Zn139  1  0.19002587  0.43866303  0.93623600  1
  Zn  Zn140  1  0.18599321  0.93766267  0.43908013  1
  Zn  Zn141  1  0.18886614  0.93744936  0.93759828  1
  Zn  Zn142  1  0.68802845  0.43402702  0.43835161  1
  Zn  Zn143  1  0.68807879  0.43703679  0.93758520  1
  Zn  Zn144  1  0.68389929  0.93547035  0.44380715  1
  Zn  Zn145  1  0.68835683  0.93689100  0.94070157  1
  Zn  Zn146  1  0.31134468  0.05967132  0.06313769  1
  Zn  Zn147  1  0.31313167  0.06288432  0.56446498  1
  Zn  Zn148  1  0.31016030  0.55955798  0.06156407  1
  Zn  Zn149  1  0.31365138  0.56263049  0.56343984  1
  Zn  Zn150  1  0.81137097  0.06235701  0.06378515  1
  Zn  Zn151  1  0.81338282  0.06369752  0.56190516  1
  Zn  Zn152  1  0.81090016  0.56219292  0.06071588  1
  Zn  Zn153  1  0.81300016  0.56189992  0.56412559  1
  Zn  Zn154  1  0.43746940  0.43753980  0.18409046  1
  Zn  Zn155  1  0.44038481  0.43842780  0.68993619  1
  Zn  Zn156  1  0.43769858  0.93673689  0.18726458  1
  Zn  Zn157  1  0.43738710  0.93931409  0.68886555  1
  Zn  Zn158  1  0.93835649  0.43758941  0.18772437  1
  Zn  Zn159  1  0.93659901  0.43815763  0.68801962  1
  Zn  Zn160  1  0.93750890  0.93755549  0.18905408  1
  Zn  Zn161  1  0.93810297  0.93737427  0.68844015  1
  Zn  Zn162  1  0.06071929  0.06296014  0.31518527  1
  Zn  Zn163  1  0.06396945  0.06069708  0.81458779  1
  Zn  Zn164  1  0.06157678  0.56361831  0.31013501  1
  Zn  Zn165  1  0.06064823  0.56244613  0.81142348  1
  Zn  Zn166  1  0.54822062  0.06063649  0.31063275  1
  Zn  Zn167  1  0.56381174  0.06353669  0.81263196  1
  Zn  Zn168  1  0.56338179  0.55954676  0.31127664  1
  Zn  Zn169  1  0.56079120  0.55926675  0.80949735  1
  Zn  Zn170  1  0.43752314  0.18715951  0.43540231  1
  Zn  Zn171  1  0.44192229  0.18566227  0.93786525  1
  Zn  Zn172  1  0.43635575  0.68813653  0.43917605  1
  Zn  Zn173  1  0.43836533  0.68746771  0.93676209  1
  Zn  Zn174  1  0.93448524  0.18707808  0.43698981  1
  Zn  Zn175  1  0.93979019  0.18803132  0.93596831  1
  Zn  Zn176  1  0.93744915  0.68771535  0.43960761  1
  Zn  Zn177  1  0.94060707  0.68577974  0.94051241  1
  Zn  Zn178  1  0.06179801  0.31377851  0.06083025  1
  Zn  Zn179  1  0.06321737  0.31458654  0.56237670  1
  Zn  Zn180  1  0.06271455  0.81408895  0.06069500  1
  Zn  Zn181  1  0.06318445  0.81488230  0.56285333  1
  Zn  Zn182  1  0.55726721  0.31226213  0.06051461  1
  Zn  Zn183  1  0.56590369  0.31166701  0.55897090  1
  Zn  Zn184  1  0.56150779  0.81195503  0.06191697  1
  Zn  Zn185  1  0.56437473  0.81256674  0.56400552  1
  O  O186  1  0.11877016  0.11957078  0.12027350  1
  O  O187  1  0.13212014  0.11859052  0.61871435  1
  O  O188  1  0.12396449  0.61265853  0.12613620  1
  O  O189  1  0.11984738  0.62077851  0.61996640  1
  O  O190  1  0.62679288  0.11585201  0.12084144  1
  O  O191  1  0.61568167  0.12073998  0.62640533  1
  O  O192  1  0.61783553  0.62708104  0.11684431  1
  O  O193  1  0.61983591  0.62431455  0.61746169  1
  O  O194  1  0.38025352  0.37983308  0.37986951  1
  O  O195  1  0.37309557  0.38270630  0.88352692  1
  O  O196  1  0.38684684  0.87493621  0.37766375  1
  O  O197  1  0.37957368  0.88063886  0.87876985  1
  O  O198  1  0.88103295  0.38113303  0.37890386  1
  O  O199  1  0.88071605  0.37986376  0.87780028  1
  O  O200  1  0.88294264  0.88113061  0.38027596  1
  O  O201  1  0.87907271  0.88016973  0.87988389  1
  O  O202  1  0.24952791  0.00544453  0.36763943  1
  O  O203  1  0.25562176  0.00930350  0.86947215  1
  O  O204  1  0.25561812  0.50555728  0.37102413  1
  O  O205  1  0.26106438  0.50473640  0.87180563  1
  O  O206  1  0.76569340  -0.00974943  0.38041552  1
  O  O207  1  0.75620223  0.00437882  0.87096422  1
  O  O208  1  0.75610629  0.50432216  0.37037505  1
  O  O209  1  0.76326834  0.49956753  0.87367371  1
  O  O210  1  0.24048492  0.49571522  0.13167487  1
  O  O211  1  0.24330242  0.49370930  0.62344438  1
  O  O212  1  0.24295623  0.99903405  0.13545130  1
  O  O213  1  0.24409512  0.99603853  0.63077196  1
  O  O214  1  0.74994215  0.49249986  0.13194536  1
  O  O215  1  0.75014152  0.48650641  0.62275937  1
  O  O216  1  0.73990860  0.98961683  0.12110070  1
  O  O217  1  0.74645989  0.99545940  0.62881123  1
  O  O218  1  0.00487616  0.36871656  0.25653735  1
  O  O219  1  0.00052828  0.37232586  0.76224940  1
  O  O220  1  0.00093753  0.87434053  0.26407773  1
  O  O221  1  0.00898194  0.88346208  0.75921760  1
  O  O222  1  0.50517115  0.36918016  0.25236320  1
  O  O223  1  0.49930904  0.37038337  0.75432999  1
  O  O224  1  0.50638230  0.87490154  0.26152395  1
  O  O225  1  0.50224414  0.86933410  0.75637956  1
  O  O226  1  0.48741617  0.13211346  0.24661149  1
  O  O227  1  0.48997759  0.11815484  0.73911503  1
  O  O228  1  0.49536641  0.62560001  0.24144200  1
  O  O229  1  0.49172175  0.63056122  0.74418507  1
  O  O230  1  0.99248563  0.13002698  0.24465996  1
  O  O231  1  0.98629454  0.12423118  0.75710898  1
  O  O232  1  0.98987225  0.62770290  0.24698381  1
  O  O233  1  0.98652617  0.61988225  0.74232901  1
  O  O234  1  0.37959450  0.26341428  -0.00379679  1
  O  O235  1  0.36981164  0.25505781  0.50453269  1
  O  O236  1  0.36665219  0.75406578  0.00302207  1
  O  O237  1  0.36624544  0.75214035  0.50342911  1
  O  O238  1  0.87035225  0.25412560  0.00482370  1
  O  O239  1  0.86856731  0.25319908  0.50700878  1
  O  O240  1  0.87366322  0.75636874  0.00888031  1
  O  O241  1  0.86905547  0.75582839  0.50595366  1
  O  O242  1  0.13029892  0.24598209  0.49600210  1
  O  O243  1  0.11868121  0.24284928  0.98692622  1
  O  O244  1  0.13072116  0.74405253  0.49499287  1
  O  O245  1  0.13367803  0.75191119  0.99143707  1
  O  O246  1  0.64162378  0.24717925  0.50083519  1
  O  O247  1  0.63176213  0.24365999  0.99435313  1
  O  O248  1  0.63174368  0.74408668  0.49451339  1
  O  O249  1  0.62436646  0.74194098  0.99093582  1
  O  O250  1  0.49188474  0.24852181  0.13741451  1
  O  O251  1  0.49491951  0.23733981  0.61470963  1
  O  O252  1  0.49398987  0.73952874  0.12624377  1
  O  O253  1  0.49974788  0.74388995  0.63112956  1
  O  O254  1  0.99533889  0.24440719  0.13012995  1
  O  O255  1  0.98577159  0.25663983  0.62544877  1
  O  O256  1  0.98625897  0.75329609  0.12706898  1
  O  O257  1  0.99202233  0.74261600  0.61665581  1
  O  O258  1  0.00431839  0.25567540  0.37137943  1
  O  O259  1  0.00779413  0.25757644  0.87203978  1
  O  O260  1  0.00457924  0.75987964  0.37786379  1
  O  O261  1  0.01224220  0.75852211  0.88276015  1
  O  O262  1  0.49309038  0.25671207  0.36002332  1
  O  O263  1  0.51951679  0.24522298  0.87617822  1
  O  O264  1  0.50652187  0.75892563  0.37643204  1
  O  O265  1  0.50809841  0.75539107  0.86985811  1
  O  O266  1  0.24542555  0.13038938  0.49564038  1
  O  O267  1  0.24529121  0.11863762  0.98711824  1
  O  O268  1  0.24450302  0.62977666  0.49495453  1
  O  O269  1  0.24788093  0.63806967  0.99811296  1
  O  O270  1  0.75002106  0.13812926  0.50256246  1
  O  O271  1  0.74584511  0.13002580  0.99516271  1
  O  O272  1  0.74595251  0.62967870  0.49489249  1
  O  O273  1  0.73728175  0.62754778  0.99734726  1
  O  O274  1  0.26557901  0.37766692  -0.00200105  1
  O  O275  1  0.25635877  0.36891903  0.50408687  1
  O  O276  1  0.25656720  0.86523782  0.00065804  1
  O  O277  1  0.25032343  0.87021150  0.50621976  1
  O  O278  1  0.75600342  0.36965239  0.00578444  1
  O  O279  1  0.75565641  0.36496159  0.50653115  1
  O  O280  1  0.75649862  0.87290340  0.01160423  1
  O  O281  1  0.75598685  0.86887375  0.50678718  1
  O  O282  1  0.12944139  0.49433887  0.24417525  1
  O  O283  1  0.12721653  0.49805429  0.74201587  1
  O  O284  1  0.13359997  1.00169200  0.24629980  1
  O  O285  1  0.13109521  0.99662396  0.74578246  1
  O  O286  1  0.63135502  0.48988338  0.24640402  1
  O  O287  1  0.62973929  0.49502935  0.74671151  1
  O  O288  1  0.62735663  0.99582357  0.24235769  1
  O  O289  1  0.63357401  1.00001245  0.74427716  1
  O  O290  1  0.36563317  0.00808434  0.25082904  1
  O  O291  1  0.36977892  0.01094230  0.75545139  1
  O  O292  1  0.37010397  0.50386400  0.25500193  1
  O  O293  1  0.37403650  0.51105453  0.75726907  1
  O  O294  1  0.88085001  0.00920298  0.25981312  1
  O  O295  1  0.87046993  0.00670814  0.75505625  1
  O  O296  1  0.86873955  0.50422961  0.25567858  1
  O  O297  1  0.87318309  0.50745524  0.75881877  1
  O  O298  1  0.11895997  0.36960071  0.37137156  1
  O  O299  1  0.11807688  0.36760433  0.87586094  1
  O  O300  1  0.11538511  0.86981470  0.37586764  1
  O  O301  1  0.12028354  0.86998961  0.87047272  1
  O  O302  1  0.61865072  0.37989108  0.36077926  1
  O  O303  1  0.62841323  0.35877130  0.87567488  1
  O  O304  1  0.61786994  0.87080159  0.37228287  1
  O  O305  1  0.62011215  0.86579350  0.87579144  1
  O  O306  1  0.37444278  0.12341505  0.13618134  1
  O  O307  1  0.38286785  0.13015289  0.63207257  1
  O  O308  1  0.38213446  0.62846383  0.12876076  1
  O  O309  1  0.38174095  0.62654737  0.63394606  1
  O  O310  1  0.88151443  0.12866544  0.13141545  1
  O  O311  1  0.86996626  0.13364391  0.63530704  1
  O  O312  1  0.87142422  0.63519382  0.12991137  1
  O  O313  1  0.87976161  0.63001143  0.63138704  1
  O  O314  1  0.25373329  0.25502341  0.12780909  1
  O  O315  1  0.25763175  0.25564667  0.61913175  1
  O  O316  1  0.25480015  0.75090562  0.11622246  1
  O  O317  1  0.24936234  0.75835348  0.61853630  1
  O  O318  1  0.75702950  0.25619640  0.11908894  1
  O  O319  1  0.76149014  0.25693807  0.61630722  1
  O  O320  1  0.75932773  0.75970184  0.12323223  1
  O  O321  1  0.75692141  0.75569138  0.61995273  1
  O  O322  1  0.24361577  0.24473427  0.38117888  1
  O  O323  1  0.24121892  0.23890480  0.86956006  1
  O  O324  1  0.24482161  0.74381316  0.38068351  1
  O  O325  1  0.24026768  0.75033373  0.88363447  1
  O  O326  1  0.75911200  0.25309176  0.39064397  1
  O  O327  1  0.74390741  0.24410342  0.88149535  1
  O  O328  1  0.74596593  0.74507249  0.38150011  1
  O  O329  1  0.73805448  0.74867765  0.87686913  1
  O  O330  1  0.00552992  0.11905452  0.00519300  1
  O  O331  1  0.00564259  0.11341651  0.49313346  1
  O  O332  1  0.00432933  0.61994498  0.00698771  1
  O  O333  1  0.00550947  0.61891255  0.50528108  1
  O  O334  1  0.50837930  0.12101911  0.00479112  1
  O  O335  1  0.50172270  0.11726831  0.50618907  1
  O  O336  1  0.50830856  0.62551102  0.00849031  1
  O  O337  1  0.50555275  0.61979809  0.50338549  1
  O  O338  1  0.49541482  0.37846768  0.49342114  1
  O  O339  1  0.48873943  0.37694452  0.99183987  1
  O  O340  1  0.50142523  0.88363465  0.49355769  1
  O  O341  1  0.49262648  0.87512507  0.99254292  1
  O  O342  1  0.99428342  0.38089218  0.49420596  1
  O  O343  1  0.99277186  0.37538804  0.98765491  1
  O  O344  1  0.99534535  0.88435290  0.49142502  1
  O  O345  1  0.99362149  0.88203098  0.99353984  1
  O  O346  1  0.49390234  0.49327527  0.37922794  1
  O  O347  1  0.48577474  0.50043258  0.87646539  1
  O  O348  1  0.49642817  0.98900759  0.38459409  1
  O  O349  1  0.49394667  0.99442883  0.87571189  1
  O  O350  1  0.99497956  0.49515680  0.38042166  1
  O  O351  1  0.99049411  0.49029284  0.87567142  1
  O  O352  1  0.99296152  0.99198648  0.38391633  1
  O  O353  1  0.99444607  0.99450331  0.88215832  1
  O  O354  1  0.00419800  0.00480709  0.11984870  1
  O  O355  1  0.00534332  -0.00647753  0.61167247  1
  O  O356  1  0.01089614  0.49920476  0.12428701  1
  O  O357  1  0.00455225  0.50603543  0.61877138  1
  O  O358  1  0.51483089  -0.00057748  0.12485146  1
  O  O359  1  0.50458178  0.00880018  0.61814162  1
  O  O360  1  0.50217758  0.51349807  0.12267489  1
  O  O361  1  0.50100205  0.50719178  0.61567330  1
  O  O362  1  0.24202976  0.38213234  0.25271173  1
  O  O363  1  0.24910890  0.37758046  0.74003736  1
  O  O364  1  0.24956481  0.88691266  0.25115896  1
  O  O365  1  0.24356305  0.88257229  0.74577144  1
  O  O366  1  0.74289376  0.37703563  0.24562609  1
  O  O367  1  0.75041599  0.37392692  0.73627379  1
  O  O368  1  0.74469505  0.87163278  0.23842685  1
  O  O369  1  0.75005203  0.88273089  0.74351819  1
  O  O370  1  0.25445161  0.11672292  0.25612711  1
  O  O371  1  0.25955520  0.11995060  0.75921440  1
  O  O372  1  0.25642010  0.61788511  0.25664445  1
  O  O373  1  0.26248088  0.62532696  0.74975898  1
  O  O374  1  0.76619793  0.13039496  0.24269524  1
  O  O375  1  0.76117634  0.11893333  0.75544679  1
  O  O376  1  0.75384761  0.61936687  0.25624770  1
  O  O377  1  0.76318959  0.62058115  0.75173333  1
  O  O378  1  0.36806942  0.12255997  0.36431724  1
  O  O379  1  0.37026023  0.12262048  0.86903673  1
  O  O380  1  0.37055609  0.61888028  0.36987916  1
  O  O381  1  0.37449199  0.61969578  0.86632457  1
  O  O382  1  0.88077349  0.11420464  0.36475132  1
  O  O383  1  0.87025751  0.11974027  0.86898817  1
  O  O384  1  0.86907692  0.62010776  0.37099985  1
  O  O385  1  0.87636049  0.61767300  0.86833184  1
  O  O386  1  0.12347482  0.38286580  0.13152108  1
  O  O387  1  0.13158877  0.38120691  0.62542401  1
  O  O388  1  0.12658877  0.88319088  0.12853962  1
  O  O389  1  0.13015973  0.88314597  0.63061784  1
  O  O390  1  0.63036288  0.37608533  0.13299126  1
  O  O391  1  0.63634759  0.37414902  0.62399309  1
  O  O392  1  0.63141929  0.88044022  0.12958449  1
  O  O393  1  0.63276475  0.88293891  0.62680287  1
  O  O394  1  0.11836583  0.25366328  0.25759959  1
  O  O395  1  0.12268533  0.25048986  0.76246315  1
  O  O396  1  0.12320671  0.75155543  0.25888177  1
  O  O397  1  0.13218893  0.75856601  0.76230902  1
  O  O398  1  0.61406604  0.26069365  0.24290946  1
  O  O399  1  0.63504428  0.24792027  0.76387163  1
  O  O400  1  0.62322762  0.75757887  0.25777433  1
  O  O401  1  0.61992776  0.74942661  0.76015723  1
  O  O402  1  0.37986921  0.24031078  0.24904663  1
  O  O403  1  0.36988022  0.23677194  0.74447276  1
  O  O404  1  0.37623559  0.74178214  0.24337527  1
  O  O405  1  0.38109297  0.74101362  0.75088551  1
  O  O406  1  0.88170053  0.24248982  0.24479711  1
  O  O407  1  0.87590759  0.24071208  0.74241818  1
  O  O408  1  0.87513220  0.74476371  0.24161741  1
  O  O409  1  0.87025820  0.73932586  0.74395464  1
  O  O410  1  0.38106635  0.49454139  0.49340214  1
  O  O411  1  0.37615955  0.49436401  0.99077901  1
  O  O412  1  0.38709941  0.99910121  0.49962627  1
  O  O413  1  0.37593467  0.99308297  0.99348345  1
  O  O414  1  0.88047049  0.49490600  0.49415279  1
  O  O415  1  0.87507362  0.49355558  0.98999370  1
  O  O416  1  0.88236847  0.99662687  0.49371099  1
  O  O417  1  0.88017209  0.99561018  0.99525221  1
  O  O418  1  0.12012915  0.00595877  0.00520615  1
  O  O419  1  0.11751664  0.00621565  0.50524855  1
  O  O420  1  0.12582459  0.49995939  0.01096058  1
  O  O421  1  0.11918272  0.50576845  0.50519183  1
  O  O422  1  0.62468451  0.00619620  0.00897299  1
  O  O423  1  0.61462068  0.00375644  0.50668598  1
  O  O424  1  0.62231265  0.51077674  -0.00009742  1
  O  O425  1  0.61852858  0.50582094  0.49912642  1
  O  O426  1  0.37507640  0.37783179  0.10775355  1
  O  O427  1  0.37111421  0.37088422  0.61738260  1
  O  O428  1  0.37422669  0.86750918  0.11880025  1
  O  O429  1  0.36633355  0.87431197  0.62485339  1
  O  O430  1  0.87063948  0.36852621  0.12045429  1
  O  O431  1  0.86884567  0.36769874  0.61935405  1
  O  O432  1  0.86826587  0.87037189  0.12226047  1
  O  O433  1  0.87066402  0.87098284  0.61997208  1
  O  O434  1  0.12934017  0.13119164  0.38292460  1
  O  O435  1  0.13295504  0.13084970  0.87960835  1
  O  O436  1  0.13032494  0.62892399  0.38104360  1
  O  O437  1  0.12509354  0.63567234  0.87481717  1
  O  O438  1  0.62685515  0.11617369  0.36644246  1
  O  O439  1  0.63225077  0.13279274  0.87974924  1
  O  O440  1  0.63069632  0.62959039  0.37963024  1
  O  O441  1  0.62245693  0.63354580  0.88255443  1
