# generated using pymatgen
data_V93Zn93O256
_symmetry_space_group_name_H-M   'P 1'
_cell_length_a   17.04911342
_cell_length_b   17.04351565
_cell_length_c   17.04521332
_cell_angle_alpha   90.05272350
_cell_angle_beta   90.02874143
_cell_angle_gamma   90.00746198
_symmetry_Int_Tables_number   1
_chemical_formula_structural   V93Zn93O256
_chemical_formula_sum   'V93 Zn93 O256'
_cell_volume   4952.94131488
_cell_formula_units_Z   1
loop_
 _symmetry_equiv_pos_site_id
 _symmetry_equiv_pos_as_xyz
  1  'x, y, z'
loop_
 _atom_site_type_symbol
 _atom_site_label
 _atom_site_symmetry_multiplicity
 _atom_site_fract_x
 _atom_site_fract_y
 _atom_site_fract_z
 _atom_site_occupancy
  V  V0  1  0.37585504  0.87483020  -0.00062915  1
  V  V1  1  0.12564759  0.50136265  0.62759347  1
  V  V2  1  0.00021917  0.75010059  0.24978404  1
  V  V3  1  0.49959480  0.12479936  0.12598103  1
  V  V4  1  0.87419712  0.37528335  0.49987159  1
  V  V5  1  0.62666757  0.25127569  0.87737396  1
  V  V6  1  0.12594653  -0.00555848  0.63078313  1
  V  V7  1  0.87544039  0.75000137  0.12338430  1
  V  V8  1  0.62451301  0.50051417  0.62426889  1
  V  V9  1  0.50042561  0.87478368  0.37425590  1
  V  V10  1  0.75076439  0.50114392  0.74904025  1
  V  V11  1  0.12291364  0.62491300  0.50274572  1
  V  V12  1  0.25039975  0.12357247  0.37569823  1
  V  V13  1  0.87600064  0.12468473  0.75180885  1
  V  V14  1  0.36875390  0.62259626  0.74549740  1
  V  V15  1  -0.00067252  0.62534555  0.12357459  1
  V  V16  1  0.75108589  0.37390451  0.62510879  1
  V  V17  1  0.62299326  0.62409698  -0.00090319  1
  V  V18  1  0.12481191  0.74907403  0.37483344  1
  V  V19  1  0.12511598  0.25037466  0.87568266  1
  V  V20  1  0.12322146  0.37407753  0.25112451  1
  V  V21  1  0.50219241  0.12518589  0.62517743  1
  V  V22  1  0.75093419  -0.00004228  0.75049096  1
  V  V23  1  0.49983551  0.49450237  0.49642416  1
  V  V24  1  0.12381776  0.49992725  0.12515297  1
  V  V25  1  0.01493594  0.87128470  0.87237798  1
  V  V26  1  0.87569295  -0.00002983  0.37548324  1
  V  V27  1  0.49819045  0.25442609  0.25658052  1
  V  V28  1  0.62184311  0.37668892  0.25398461  1
  V  V29  1  -0.00024293  0.50189283  0.50263598  1
  V  V30  1  0.12394997  -0.00048375  0.12623835  1
  V  V31  1  0.50207840  0.00032214  0.50088871  1
  V  V32  1  0.87483434  0.50085288  0.87369129  1
  V  V33  1  0.12412350  0.25019004  0.37446877  1
  V  V34  1  0.25046643  0.24976670  0.50162842  1
  V  V35  1  0.24933430  0.49973456  0.24958684  1
  V  V36  1  0.62458154  0.37676932  0.75060879  1
  V  V37  1  0.87532849  0.87415907  0.50152863  1
  V  V38  1  0.50055549  0.87600842  0.87535763  1
  V  V39  1  0.37475184  0.62425864  0.24941996  1
  V  V40  1  0.12384131  0.12506646  0.00082577  1
  V  V41  1  0.37531402  -0.00037320  0.37568146  1
  V  V42  1  0.62587919  0.87503856  0.74909948  1
  V  V43  1  0.00175849  0.24965029  0.75003805  1
  V  V44  1  0.37518343  0.25137520  0.62554291  1
  V  V45  1  0.24900733  0.25116729  0.00038175  1
  V  V46  1  0.86694028  0.37130811  0.00006343  1
  V  V47  1  0.49858037  0.37580235  0.87607910  1
  V  V48  1  0.00154780  0.12406766  0.62700204  1
  V  V49  1  0.37839349  0.49327250  0.37465490  1
  V  V50  1  0.74919555  0.75010993  -0.00135834  1
  V  V51  1  0.62782025  0.12960715  0.00206440  1
  V  V52  1  0.00132794  0.87392160  0.37538783  1
  V  V53  1  0.12508783  0.62881505  -0.00702954  1
  V  V54  1  0.25251113  0.87323060  0.62454000  1
  V  V55  1  0.37608959  0.12504995  0.75164465  1
  V  V56  1  0.87612245  0.25051520  0.62454396  1
  V  V57  1  0.24892154  0.37477603  0.12396441  1
  V  V58  1  -0.00114465  0.50070474  -0.00058268  1
  V  V59  1  0.75048999  -0.00127604  0.25059586  1
  V  V60  1  0.87509771  0.12633862  0.25046105  1
  V  V61  1  0.24926291  -0.00413969  0.75142654  1
  V  V62  1  0.36684985  0.50089327  0.87167640  1
  V  V63  1  0.37591572  0.00012601  0.87587584  1
  V  V64  1  0.87490800  0.87596794  -0.00542360  1
  V  V65  1  0.74993742  0.87585083  0.12456875  1
  V  V66  1  0.01174326  0.74992813  0.75097127  1
  V  V67  1  0.62579243  0.62631898  0.49925186  1
  V  V68  1  0.87804027  0.74940728  0.62525034  1
  V  V69  1  0.87475760  0.49909215  0.37470084  1
  V  V70  1  0.37368043  0.74933727  0.12442923  1
  V  V71  1  0.24718771  0.74871811  -0.00867154  1
  V  V72  1  0.62491325  0.24991562  0.37733481  1
  V  V73  1  0.00081303  -0.00110997  0.50199139  1
  V  V74  1  0.74999835  0.62574018  0.37479322  1
  V  V75  1  0.24928511  0.87463783  0.12566133  1
  V  V76  1  -0.00025789  0.37534092  0.87503798  1
  V  V77  1  0.74809527  0.49892871  0.24745969  1
  V  V78  1  0.87395572  0.62426601  0.24863691  1
  V  V79  1  0.75171103  0.13057040  0.88032815  1
  V  V80  1  0.49993301  0.75051661  0.25069107  1
  V  V81  1  0.37431247  0.12485199  0.25113656  1
  V  V82  1  0.37412424  0.37519536  -0.00059091  1
  V  V83  1  0.62528386  0.87510021  0.24889062  1
  V  V84  1  0.50026580  0.25095131  0.75010894  1
  V  V85  1  0.86828612  0.24987016  0.12209843  1
  V  V86  1  0.25073023  0.37797151  0.62851061  1
  V  V87  1  0.62498166  0.75101806  0.87427228  1
  V  V88  1  0.24908460  0.62494507  0.37417815  1
  V  V89  1  0.49981455  0.62454417  0.12387737  1
  V  V90  1  0.12632158  0.37789950  0.74976318  1
  V  V91  1  0.87778540  0.62643858  0.74585525  1
  V  V92  1  0.12589415  0.12467382  0.50111087  1
  Zn  Zn93  1  0.37826107  0.37264374  0.49716895  1
  Zn  Zn94  1  0.50107632  0.62750589  0.62574832  1
  Zn  Zn95  1  -0.00193051  0.12525442  0.12438733  1
  Zn  Zn96  1  0.37898123  0.75095877  0.62297975  1
  Zn  Zn97  1  0.25298993  0.75013453  0.49943145  1
  Zn  Zn98  1  0.75029118  0.87566469  0.62346295  1
  Zn  Zn99  1  0.74462934  0.37243813  0.12109017  1
  Zn  Zn100  1  0.62317965  0.49642310  0.12312627  1
  Zn  Zn101  1  -0.00149050  0.37294056  0.37377740  1
  Zn  Zn102  1  0.24934257  -0.00185191  0.25223736  1
  Zn  Zn103  1  0.75052588  0.24766095  0.49998179  1
  Zn  Zn104  1  0.25090043  0.12558981  0.87501647  1
  Zn  Zn105  1  0.74896659  0.62555220  0.87381482  1
  Zn  Zn106  1  0.37384735  0.25069011  0.12532097  1
  Zn  Zn107  1  0.00039287  -0.00094846  -0.00200373  1
  Zn  Zn108  1  0.62556799  0.00069268  0.12429690  1
  Zn  Zn109  1  0.62675796  0.75075670  0.37526863  1
  Zn  Zn110  1  0.37718539  0.86887175  0.49930612  1
  Zn  Zn111  1  0.87780157  0.00066080  0.87581035  1
  Zn  Zn112  1  0.12579719  0.87512240  0.25090153  1
  Zn  Zn113  1  0.49851698  0.49923031  0.00031237  1
  Zn  Zn114  1  0.62661503  0.00126556  0.62425683  1
  Zn  Zn115  1  0.74999940  0.12434898  0.37939312  1
  Zn  Zn116  1  -0.00170080  0.25158229  0.24981498  1
  Zn  Zn117  1  0.49986820  0.00119812  0.00108532  1
  Zn  Zn118  1  0.49978233  0.74807705  0.74760992  1
  Zn  Zn119  1  0.75009739  0.75230786  0.49999540  1
  Zn  Zn120  1  0.62878664  0.12581851  0.50220655  1
  Zn  Zn121  1  0.24408206  0.62446672  0.86883139  1
  Zn  Zn122  1  0.18786309  0.18746556  0.18800425  1
  Zn  Zn123  1  0.18906504  0.18642006  0.68865562  1
  Zn  Zn124  1  0.18662521  0.68765046  0.18480038  1
  Zn  Zn125  1  0.19103061  0.68553250  0.68448705  1
  Zn  Zn126  1  0.68805357  0.18850680  0.19018742  1
  Zn  Zn127  1  0.68811439  0.18765436  0.68905020  1
  Zn  Zn128  1  0.68659920  0.68832264  0.18593161  1
  Zn  Zn129  1  0.69150542  0.68864567  0.68521918  1
  Zn  Zn130  1  0.30934841  0.31097624  0.31159507  1
  Zn  Zn131  1  0.31122265  0.31309224  0.81253373  1
  Zn  Zn132  1  0.31180198  0.81323468  0.31280173  1
  Zn  Zn133  1  0.31454885  0.81161832  0.80945263  1
  Zn  Zn134  1  0.80841017  0.31262082  0.31186977  1
  Zn  Zn135  1  0.81307864  0.31254692  0.81151484  1
  Zn  Zn136  1  0.81252778  0.81185545  0.31382796  1
  Zn  Zn137  1  0.81325302  0.81063338  0.81268861  1
  Zn  Zn138  1  0.18948472  0.43615942  0.43815754  1
  Zn  Zn139  1  0.18654071  0.43874227  0.93813262  1
  Zn  Zn140  1  0.18811722  0.93639607  0.44041528  1
  Zn  Zn141  1  0.19137408  0.93884771  0.94028672  1
  Zn  Zn142  1  0.68811694  0.43636289  0.43584911  1
  Zn  Zn143  1  0.68703538  0.44100696  0.93447114  1
  Zn  Zn144  1  0.68822760  0.93654144  0.43632216  1
  Zn  Zn145  1  0.68670878  0.94267720  0.93737456  1
  Zn  Zn146  1  0.31111105  0.06246586  0.06363471  1
  Zn  Zn147  1  0.31553067  0.06177399  0.56326496  1
  Zn  Zn148  1  0.31170431  0.56182473  0.05993137  1
  Zn  Zn149  1  0.30990907  0.56062414  0.55967886  1
  Zn  Zn150  1  0.81243442  0.06119755  0.06393696  1
  Zn  Zn151  1  0.81259998  0.06356870  0.56304627  1
  Zn  Zn152  1  0.80930631  0.56030174  0.06226310  1
  Zn  Zn153  1  0.81216421  0.56353370  0.56374930  1
  Zn  Zn154  1  0.43780866  0.43789400  0.18481980  1
  Zn  Zn155  1  0.43807103  0.44171053  0.68651722  1
  Zn  Zn156  1  0.43648338  0.93846741  0.18820592  1
  Zn  Zn157  1  0.43777013  0.93792831  0.68741107  1
  Zn  Zn158  1  0.93657371  0.43576659  0.18633667  1
  Zn  Zn159  1  0.94001623  0.43795722  0.68599088  1
  Zn  Zn160  1  0.93898966  0.93770276  0.18668445  1
  Zn  Zn161  1  0.93801182  0.93451822  0.69042028  1
  Zn  Zn162  1  0.06120971  0.06283460  0.31244905  1
  Zn  Zn163  1  0.06309032  0.06008726  0.81543072  1
  Zn  Zn164  1  0.06056914  0.56153945  0.31388747  1
  Zn  Zn165  1  0.05931384  0.56326940  0.81021620  1
  Zn  Zn166  1  0.56407375  0.06352850  0.31317912  1
  Zn  Zn167  1  0.56333662  0.06236231  0.81433743  1
  Zn  Zn168  1  0.56146514  0.56303921  0.31354751  1
  Zn  Zn169  1  0.55579857  0.56272820  0.81254126  1
  Zn  Zn170  1  0.43819732  0.18593125  0.43888680  1
  Zn  Zn171  1  0.43807872  0.18857702  0.93844969  1
  Zn  Zn172  1  0.43767408  0.68602490  0.43797069  1
  Zn  Zn173  1  0.43698046  0.68815094  0.93295473  1
  Zn  Zn174  1  0.93875774  0.18760074  0.43763358  1
  Zn  Zn175  1  0.93835535  0.18940111  0.93885087  1
  Zn  Zn176  1  0.93868973  0.68585830  0.43727082  1
  Zn  Zn177  1  0.93807522  0.68899910  0.93298229  1
  Zn  Zn178  1  0.05641442  0.31137443  0.06493176  1
  Zn  Zn179  1  0.06206858  0.31428441  0.56068879  1
  Zn  Zn180  1  0.06298871  0.81262023  0.06062705  1
  Zn  Zn181  1  0.06275926  0.81134990  0.56469053  1
  Zn  Zn182  1  0.56093520  0.31068297  0.06501571  1
  Zn  Zn183  1  0.56282363  0.31356657  0.56267869  1
  Zn  Zn184  1  0.56165856  0.81194936  0.06275570  1
  Zn  Zn185  1  0.56107178  0.81170389  0.56465401  1
  O  O186  1  0.12399541  0.11786364  0.11726376  1
  O  O187  1  0.12108821  0.11633714  0.62080829  1
  O  O188  1  0.11860293  0.61889075  0.11582404  1
  O  O189  1  0.13368257  0.61374427  0.61334633  1
  O  O190  1  0.61818242  0.12687119  0.11900947  1
  O  O191  1  0.61685741  0.12321658  0.62536070  1
  O  O192  1  0.61856763  0.62672692  0.11371022  1
  O  O193  1  0.62886646  0.61806439  0.61501883  1
  O  O194  1  0.36594365  0.38937599  0.37644768  1
  O  O195  1  0.37841061  0.38162466  0.87814882  1
  O  O196  1  0.38233330  0.88199310  0.37528492  1
  O  O197  1  0.38072835  0.88005614  0.87950781  1
  O  O198  1  0.87352052  0.38216451  0.38137695  1
  O  O199  1  0.88015745  0.37917050  0.88065104  1
  O  O200  1  0.88228166  0.87973558  0.38092266  1
  O  O201  1  0.87871234  0.87495027  0.88553405  1
  O  O202  1  0.25597074  0.00620615  0.37626814  1
  O  O203  1  0.25559506  0.00054767  0.86610859  1
  O  O204  1  0.25638130  0.50586341  0.36930948  1
  O  O205  1  0.26249240  0.50105640  0.87806789  1
  O  O206  1  0.75886014  -0.00003368  0.36811022  1
  O  O207  1  0.75205053  0.01148083  0.86599588  1
  O  O208  1  0.75561663  0.50611839  0.36805776  1
  O  O209  1  0.75768362  0.50202343  0.86568272  1
  O  O210  1  0.24376622  0.49519827  0.13008947  1
  O  O211  1  0.23795920  0.48797442  0.61699388  1
  O  O212  1  0.24011895  0.99380216  0.12587258  1
  O  O213  1  0.24475704  0.99473938  0.63161085  1
  O  O214  1  0.74477106  0.49731531  0.13318129  1
  O  O215  1  0.74525198  0.49363617  0.63056262  1
  O  O216  1  0.74908359  0.99240808  0.13230658  1
  O  O217  1  0.74944090  0.99993143  0.63962057  1
  O  O218  1  0.00802238  0.37496366  0.25302933  1
  O  O219  1  0.00541676  0.36908148  0.75540504  1
  O  O220  1  0.00073734  0.86789458  0.25703560  1
  O  O221  1  -0.00278015  0.86426263  0.76346499  1
  O  O222  1  0.50722251  0.36369702  0.24314547  1
  O  O223  1  0.50526015  0.37091743  0.75507934  1
  O  O224  1  0.50502757  0.87023757  0.25376406  1
  O  O225  1  0.51179234  0.87686951  0.75594576  1
  O  O226  1  0.49557358  0.13309069  0.24364862  1
  O  O227  1  0.49581178  0.13101081  0.74607474  1
  O  O228  1  0.49432833  0.63034444  0.24433091  1
  O  O229  1  0.48699627  0.62692633  0.74725744  1
  O  O230  1  0.98554562  0.12433968  0.24807676  1
  O  O231  1  0.99629251  0.12945539  0.74685144  1
  O  O232  1  0.99356196  0.62917343  0.24361655  1
  O  O233  1  0.98947675  0.64046174  0.75815038  1
  O  O234  1  0.36711532  0.25684913  0.00042819  1
  O  O235  1  0.37018366  0.25201639  0.50680664  1
  O  O236  1  0.36705782  0.75397209  0.00494401  1
  O  O237  1  0.37050398  0.74954193  0.50437209  1
  O  O238  1  0.88038766  0.26127698  0.00761305  1
  O  O239  1  0.87634322  0.25685613  0.50756278  1
  O  O240  1  0.87001814  0.75701777  0.00323646  1
  O  O241  1  0.88023851  0.75372116  0.51065598  1
  O  O242  1  0.13029392  0.24356536  0.49638185  1
  O  O243  1  0.12770233  0.24378039  0.99636010  1
  O  O244  1  0.12335296  0.73899045  0.49582749  1
  O  O245  1  0.13410494  0.73888238  1.00676504  1
  O  O246  1  0.62368801  0.25146337  0.48870299  1
  O  O247  1  0.62061855  0.23775812  0.99411632  1
  O  O248  1  0.62666368  0.73765053  0.49929628  1
  O  O249  1  0.62976031  0.74328409  0.99486158  1
  O  O250  1  0.49771425  0.23920421  0.13615874  1
  O  O251  1  0.49484443  0.24669670  0.63096593  1
  O  O252  1  0.49235168  0.74491314  0.13041145  1
  O  O253  1  0.49671440  0.74504845  0.62957710  1
  O  O254  1  0.98582713  0.24676183  0.12919203  1
  O  O255  1  0.99711266  0.24421238  0.63058999  1
  O  O256  1  0.99450046  0.74495361  0.12908313  1
  O  O257  1  0.99069541  0.75934164  0.64163745  1
  O  O258  1  0.00905098  0.25204487  0.37307417  1
  O  O259  1  0.00607974  0.25605029  0.86951763  1
  O  O260  1  0.00476660  0.75397504  0.36928490  1
  O  O261  1  -0.00241404  0.76127838  0.86414789  1
  O  O262  1  0.50726817  0.24427655  0.36370581  1
  O  O263  1  0.50577299  0.25593727  0.86872207  1
  O  O264  1  0.50088874  0.75607079  0.36749484  1
  O  O265  1  0.50743821  0.75878217  0.87163525  1
  O  O266  1  0.24552691  0.12972402  0.49680129  1
  O  O267  1  0.23912785  0.13126327  0.99949041  1
  O  O268  1  0.23816102  0.62405112  0.49251353  1
  O  O269  1  0.24171074  0.63257634  0.99913622  1
  O  O270  1  0.74682429  0.12888696  0.49834525  1
  O  O271  1  0.74210906  0.11874414  0.98976242  1
  O  O272  1  0.74105544  0.62309782  0.49382311  1
  O  O273  1  0.73978895  0.63093656  0.99874938  1
  O  O274  1  0.25311160  0.37020749  0.00523938  1
  O  O275  1  0.25070185  0.36771882  0.51164301  1
  O  O276  1  0.25533489  0.86665189  0.00554948  1
  O  O277  1  0.25403618  0.87447173  0.51116183  1
  O  O278  1  0.76348410  0.38184552  -0.00103646  1
  O  O279  1  0.75649088  0.37437938  0.50807368  1
  O  O280  1  0.75676934  0.87143414  0.00326346  1
  O  O281  1  0.75925398  0.87337287  0.50235447  1
  O  O282  1  0.12990443  0.49627346  0.24472982  1
  O  O283  1  0.11457083  0.49498205  0.73616640  1
  O  O284  1  0.12611620  0.99954873  0.23865987  1
  O  O285  1  0.13574683  1.00763034  0.74035533  1
  O  O286  1  0.62764843  0.49122802  0.25093636  1
  O  O287  1  0.62948322  0.49589219  0.74540634  1
  O  O288  1  0.63224189  0.99353018  0.24876930  1
  O  O289  1  0.63412036  0.99203271  0.75220216  1
  O  O290  1  0.37389933  0.00749261  0.25780314  1
  O  O291  1  0.36821774  0.00568944  0.75554844  1
  O  O292  1  0.37006640  0.50414281  0.25602500  1
  O  O293  1  0.37880751  0.51182582  0.75828783  1
  O  O294  1  0.87103923  0.00601641  0.25458805  1
  O  O295  1  0.86740690  0.00564376  0.75232939  1
  O  O296  1  0.86936388  0.50542069  0.25390574  1
  O  O297  1  0.87350588  0.50780852  0.75225900  1
  O  O298  1  0.12668169  0.36820750  0.36882459  1
  O  O299  1  0.11903446  0.37157580  0.87022678  1
  O  O300  1  0.11871098  0.86819629  0.37567215  1
  O  O301  1  0.11294899  0.87627623  0.88158521  1
  O  O302  1  0.62759306  0.36607303  0.36300810  1
  O  O303  1  0.61987526  0.37124445  0.87030086  1
  O  O304  1  0.61842525  0.87288959  0.36712974  1
  O  O305  1  0.62128743  0.87175930  0.86867565  1
  O  O306  1  0.38297696  0.12672686  0.13084522  1
  O  O307  1  0.38167038  0.13152468  0.63165029  1
  O  O308  1  0.37895013  0.62924290  0.12981456  1
  O  O309  1  0.37147699  0.62049107  0.63792065  1
  O  O310  1  0.87492975  0.13146373  0.13154373  1
  O  O311  1  0.88284860  0.13003655  0.63206451  1
  O  O312  1  0.87978769  0.63022062  0.12798292  1
  O  O313  1  0.87362885  0.63325818  0.63580521  1
  O  O314  1  0.25080031  0.25701102  0.11851227  1
  O  O315  1  0.25508593  0.25634933  0.62078819  1
  O  O316  1  0.25538432  0.75443521  0.11651300  1
  O  O317  1  0.24917101  0.76399197  0.62473101  1
  O  O318  1  0.76361275  0.25196645  0.12919670  1
  O  O319  1  0.75812934  0.25672427  0.62681307  1
  O  O320  1  0.75664501  0.75619833  0.11871109  1
  O  O321  1  0.76486855  0.75344685  0.62219232  1
  O  O322  1  0.24471157  0.24321493  0.38213603  1
  O  O323  1  0.24191738  0.24931587  0.88136226  1
  O  O324  1  0.24239432  0.74278445  0.37512500  1
  O  O325  1  0.25402578  0.75003373  0.88882952  1
  O  O326  1  0.73835486  0.24762126  0.37690009  1
  O  O327  1  0.74389543  0.23775874  0.86723371  1
  O  O328  1  0.74916968  0.74130868  0.37877630  1
  O  O329  1  0.74315201  0.74812135  0.88172788  1
  O  O330  1  0.01237283  0.12252809  -0.00000056  1
  O  O331  1  0.00549695  0.11812378  0.50776128  1
  O  O332  1  0.00570877  0.62211851  0.00328478  1
  O  O333  1  0.01149083  0.61396663  0.49469240  1
  O  O334  1  0.50698606  0.12590566  0.01000079  1
  O  O335  1  0.50225563  0.11608742  0.50647950  1
  O  O336  1  0.50885416  0.62777520  0.00446809  1
  O  O337  1  0.51116752  0.61492687  0.50016579  1
  O  O338  1  0.49852916  0.38988096  0.50347284  1
  O  O339  1  0.49296565  0.37350533  0.99373679  1
  O  O340  1  0.50031033  0.88438667  0.49413244  1
  O  O341  1  0.49349818  0.87693142  0.99461108  1
  O  O342  1  0.99377159  0.38492675  0.49731242  1
  O  O343  1  0.99153359  0.38171780  0.99406501  1
  O  O344  1  0.99566856  0.88010968  0.49579854  1
  O  O345  1  0.99245404  0.87062578  0.98695020  1
  O  O346  1  0.48838356  0.50577726  0.38269897  1
  O  O347  1  0.48849015  0.49235870  0.87777434  1
  O  O348  1  0.49570911  0.99603010  0.38212043  1
  O  O349  1  0.49316425  0.99426310  0.87694384  1
  O  O350  1  0.99349934  0.49801206  0.38527551  1
  O  O351  1  0.99357685  0.49433525  0.87935985  1
  O  O352  1  0.99597254  0.99422764  0.38229925  1
  O  O353  1  0.99751986  0.98439585  0.87466631  1
  O  O354  1  0.01134452  0.00053242  0.12011470  1
  O  O355  1  0.00833551  0.00304677  0.62403082  1
  O  O356  1  0.00358414  0.50639769  0.11884725  1
  O  O357  1  0.01080090  0.49433789  0.61212139  1
  O  O358  1  0.50211126  0.01382117  0.12578584  1
  O  O359  1  0.50069491  0.00595552  0.61658022  1
  O  O360  1  0.50257963  0.50910200  0.12105165  1
  O  O361  1  0.50686624  0.50413281  0.61520570  1
  O  O362  1  0.24341535  0.38056967  0.24336717  1
  O  O363  1  0.24217787  0.36879729  0.73677416  1
  O  O364  1  0.24636657  0.87681630  0.24139576  1
  O  O365  1  0.25589903  0.88842505  0.74204613  1
  O  O366  1  0.73903040  0.38168487  0.24783884  1
  O  O367  1  0.74500643  0.38134026  0.74524858  1
  O  O368  1  0.74649946  0.87863238  0.24416671  1
  O  O369  1  0.74333150  0.88459717  0.75353336  1
  O  O370  1  0.25660255  0.12407313  0.25776982  1
  O  O371  1  0.25755455  0.11442649  0.75028536  1
  O  O372  1  0.25476609  0.61876000  0.25299422  1
  O  O373  1  0.26273469  0.62898001  0.75345427  1
  O  O374  1  0.76126315  0.11805435  0.25111933  1
  O  O375  1  0.75521113  0.11826188  0.75863060  1
  O  O376  1  0.75481044  0.62012641  0.25375688  1
  O  O377  1  0.76028069  0.61921246  0.75099155  1
  O  O378  1  0.36973039  0.11962784  0.37079900  1
  O  O379  1  0.37387870  0.11921375  0.86968173  1
  O  O380  1  0.36865372  0.61579849  0.36794100  1
  O  O381  1  0.37326095  0.61737197  0.86553144  1
  O  O382  1  0.87510259  0.11867655  0.36686776  1
  O  O383  1  0.86806705  0.12513532  0.87145450  1
  O  O384  1  0.87062548  0.61905091  0.36844045  1
  O  O385  1  0.87301595  0.61974551  0.86469816  1
  O  O386  1  0.12848608  0.38089934  0.12922301  1
  O  O387  1  0.13130012  0.38111121  0.62904688  1
  O  O388  1  0.12980387  0.88387731  0.12352709  1
  O  O389  1  0.13360519  0.88804855  0.62036975  1
  O  O390  1  0.62626134  0.37402231  0.13644086  1
  O  O391  1  0.63060741  0.38046815  0.63162461  1
  O  O392  1  0.63166395  0.87644977  0.12999688  1
  O  O393  1  0.62878214  0.87764048  0.63738106  1
  O  O394  1  0.12399098  0.25554866  0.25628241  1
  O  O395  1  0.12017297  0.25506524  0.75535736  1
  O  O396  1  0.11730042  0.74907019  0.25569373  1
  O  O397  1  0.10971880  0.74198729  0.74490524  1
  O  O398  1  0.61780537  0.25632141  0.25722777  1
  O  O399  1  0.61939173  0.25733049  0.75625224  1
  O  O400  1  0.61785889  0.75647270  0.25025771  1
  O  O401  1  0.62942337  0.76069851  0.75531464  1
  O  O402  1  0.38289600  0.24489738  0.25069939  1
  O  O403  1  0.38085856  0.24540457  0.74562952  1
  O  O404  1  0.37944277  0.74346205  0.24422573  1
  O  O405  1  0.37679802  0.73583159  0.74875427  1
  O  O406  1  0.87437175  0.24148186  0.24421958  1
  O  O407  1  0.88278975  0.24492350  0.74486404  1
  O  O408  1  0.88012919  0.74397863  0.24335925  1
  O  O409  1  0.87895871  0.74349815  0.74335449  1
  O  O410  1  0.38269091  0.50081924  0.49146340  1
  O  O411  1  0.37620693  0.49387863  0.99088533  1
  O  O412  1  0.38741413  0.99996597  0.49429036  1
  O  O413  1  0.37417788  0.99299059  0.99402139  1
  O  O414  1  0.88241812  0.49727637  0.49685801  1
  O  O415  1  0.88031718  0.49397073  0.99431984  1
  O  O416  1  0.88242490  0.99493639  0.49662929  1
  O  O417  1  0.87809914  0.98813523  0.99931001  1
  O  O418  1  0.12619492  0.00891344  0.00801373  1
  O  O419  1  0.12012701  0.00573398  0.51005982  1
  O  O420  1  0.11873482  0.50721547  0.00614109  1
  O  O421  1  0.11825841  0.50497911  0.50497867  1
  O  O422  1  0.62122226  0.01452049  0.00218828  1
  O  O423  1  0.61351722  0.00087907  0.50085727  1
  O  O424  1  0.62233827  0.51210831  -0.00068420  1
  O  O425  1  0.61895724  0.50595593  0.50245495  1
  O  O426  1  0.36679846  0.37423640  0.11808716  1
  O  O427  1  0.36601604  0.37106139  0.62555687  1
  O  O428  1  0.37000771  0.86958739  0.11952866  1
  O  O429  1  0.36456141  0.87564956  0.62355842  1
  O  O430  1  0.87295824  0.36838047  0.11605363  1
  O  O431  1  0.87093306  0.37026350  0.62070242  1
  O  O432  1  0.87179774  0.86941808  0.11469947  1
  O  O433  1  0.87477105  0.86700493  0.62026981  1
  O  O434  1  0.13015849  0.12847545  0.38182922  1
  O  O435  1  0.12655986  0.13044980  0.88444251  1
  O  O436  1  0.12919673  0.62842150  0.38244505  1
  O  O437  1  0.12575965  0.61661696  0.88877569  1
  O  O438  1  0.62755708  0.13682365  0.37558048  1
  O  O439  1  0.63166413  0.13070399  0.88210467  1
  O  O440  1  0.63120070  0.62497318  0.38381261  1
  O  O441  1  0.62401422  0.63081168  0.88347616  1
