# generated using pymatgen
data_V93Zn93O256
_symmetry_space_group_name_H-M   'P 1'
_cell_length_a   17.04887827
_cell_length_b   17.05147596
_cell_length_c   17.04828612
_cell_angle_alpha   90.05072563
_cell_angle_beta   90.00066210
_cell_angle_gamma   90.02864562
_symmetry_Int_Tables_number   1
_chemical_formula_structural   V93Zn93O256
_chemical_formula_sum   'V93 Zn93 O256'
_cell_volume   4956.07977112
_cell_formula_units_Z   1
loop_
 _symmetry_equiv_pos_site_id
 _symmetry_equiv_pos_as_xyz
  1  'x, y, z'
loop_
 _atom_site_type_symbol
 _atom_site_label
 _atom_site_symmetry_multiplicity
 _atom_site_fract_x
 _atom_site_fract_y
 _atom_site_fract_z
 _atom_site_occupancy
  V  V0  1  0.87829581  0.87972515  0.49919119  1
  V  V1  1  0.25309165  0.87583382  0.62077283  1
  V  V2  1  0.12574851  0.25032586  0.87667971  1
  V  V3  1  0.24998361  0.12635578  0.87557524  1
  V  V4  1  0.87346190  0.12396013  0.25052259  1
  V  V5  1  0.24950043  0.75027234  -0.00203324  1
  V  V6  1  0.49592669  0.25046342  0.25267794  1
  V  V7  1  -0.00196481  0.62222131  0.12065055  1
  V  V8  1  0.50127846  0.24885263  0.75094756  1
  V  V9  1  0.12443071  0.12541719  -0.00077071  1
  V  V10  1  0.24977298  0.50226653  0.75025168  1
  V  V11  1  0.00157609  0.25699862  0.25673044  1
  V  V12  1  0.49820909  0.62396790  0.12379792  1
  V  V13  1  0.62277174  0.00055796  0.12594732  1
  V  V14  1  0.24980584  0.62694895  0.37375394  1
  V  V15  1  0.50006030  0.62154439  0.62245261  1
  V  V16  1  0.75093510  -0.00066302  0.75075658  1
  V  V17  1  0.62862357  0.12927994  0.00166904  1
  V  V18  1  0.74912619  0.87469216  0.12502815  1
  V  V19  1  0.62541677  0.62121283  0.49945532  1
  V  V20  1  0.87788612  0.37690483  -0.00015872  1
  V  V21  1  0.50250226  0.37543115  0.87580839  1
  V  V22  1  0.75026862  0.12825586  0.87784508  1
  V  V23  1  0.12163121  0.12366827  0.49937861  1
  V  V24  1  0.62492649  0.62419964  -0.00132698  1
  V  V25  1  0.87142729  0.24897600  0.11969133  1
  V  V26  1  0.62939633  0.25041953  0.87907764  1
  V  V27  1  0.75072981  0.74980877  0.49892195  1
  V  V28  1  0.50093636  0.75052812  0.74823695  1
  V  V29  1  0.12089783  0.49859124  0.12053058  1
  V  V30  1  0.12095033  -0.00002358  0.62084227  1
  V  V31  1  0.50022047  0.00023732  0.00123874  1
  V  V32  1  0.24849830  0.12892836  0.37533016  1
  V  V33  1  0.12584266  0.87495820  0.74915938  1
  V  V34  1  0.87563145  0.12456746  0.75092294  1
  V  V35  1  0.87545275  0.25022635  0.62573113  1
  V  V36  1  0.24890643  0.50211083  0.24807262  1
  V  V37  1  0.24881506  0.87637555  0.12494655  1
  V  V38  1  0.37444342  0.87529246  -0.00032640  1
  V  V39  1  0.74879449  -0.00038361  0.25180247  1
  V  V40  1  0.37683753  0.75577256  0.61889544  1
  V  V41  1  -0.00147371  0.88164490  0.37730465  1
  V  V42  1  0.37385989  0.75024959  0.12475860  1
  V  V43  1  0.87883550  0.50052080  0.87808884  1
  V  V44  1  0.75306344  0.37412747  0.62341615  1
  V  V45  1  0.37503627  0.00025275  0.87522711  1
  V  V46  1  0.62468592  0.74912759  0.37454034  1
  V  V47  1  0.87970913  0.49364585  0.37378060  1
  V  V48  1  0.25318074  0.37400902  0.62329311  1
  V  V49  1  0.25089293  0.00062329  0.74876596  1
  V  V50  1  0.12221476  0.62500295  0.50056658  1
  V  V51  1  0.49958304  0.75075288  0.25001376  1
  V  V52  1  0.12557068  0.37608069  0.75137346  1
  V  V53  1  0.00074340  0.87481764  0.87421658  1
  V  V54  1  0.50000320  0.49954694  -0.00014754  1
  V  V55  1  0.74882275  0.37147691  0.12025033  1
  V  V56  1  0.12410594  0.87600492  0.24859436  1
  V  V57  1  0.62536673  0.24939346  0.37634218  1
  V  V58  1  0.62210896  0.49714484  0.62140084  1
  V  V59  1  0.62615203  0.87444660  0.75126867  1
  V  V60  1  0.62560484  -0.00012584  0.62556265  1
  V  V61  1  0.00226627  0.49074917  0.49481975  1
  V  V62  1  0.74921770  0.74930692  -0.00171571  1
  V  V63  1  0.25205789  0.75395909  0.49939976  1
  V  V64  1  0.37566222  0.50051496  0.87433001  1
  V  V65  1  0.87450904  0.62444336  0.74856512  1
  V  V66  1  0.50030734  0.87404790  0.87444234  1
  V  V67  1  -0.00092156  0.12423717  0.12451767  1
  V  V68  1  0.50057362  0.12459100  0.62667753  1
  V  V69  1  -0.00336848  0.74938519  0.24802213  1
  V  V70  1  0.37403568  0.62548625  0.24910669  1
  V  V71  1  0.12318196  0.62469338  -0.00259340  1
  V  V72  1  0.75192946  0.87365096  0.62461937  1
  V  V73  1  0.00035833  0.25056856  0.75119588  1
  V  V74  1  0.24935989  0.00007402  0.25071368  1
  V  V75  1  0.25048544  0.37374691  0.12432648  1
  V  V76  1  0.00000223  0.37673036  0.87781417  1
  V  V77  1  0.49583168  -0.00672276  0.50072201  1
  V  V78  1  0.62652309  0.37468095  0.75029782  1
  V  V79  1  0.37924940  0.49763734  0.38272546  1
  V  V80  1  0.62598507  0.12479568  0.50062869  1
  V  V81  1  0.37669738  0.12587691  0.75055333  1
  V  V82  1  0.00055782  0.12312200  0.62397141  1
  V  V83  1  0.12452059  0.75085271  0.37430384  1
  V  V84  1  0.74910628  0.12398395  0.37530403  1
  V  V85  1  0.62306550  0.87449261  0.25155551  1
  V  V86  1  0.87507244  0.00039946  0.87512465  1
  V  V87  1  0.74985014  0.50148662  0.25015330  1
  V  V88  1  0.00069182  0.74899695  0.74772626  1
  V  V89  1  0.62476794  0.37437810  0.25180930  1
  V  V90  1  -0.00019708  -0.00013193  0.00035373  1
  V  V91  1  0.37337152  -0.00614203  0.37959011  1
  V  V92  1  0.87421886  0.87419671  0.00014965  1
  Zn  Zn93  1  0.37462379  0.62666200  0.74855979  1
  Zn  Zn94  1  0.12483150  0.00084128  0.12469597  1
  Zn  Zn95  1  0.11967650  0.38210359  0.25753565  1
  Zn  Zn96  1  0.87371804  0.74747415  0.12411913  1
  Zn  Zn97  1  0.75274120  0.24865817  0.49907179  1
  Zn  Zn98  1  0.75090136  0.50129304  0.74981023  1
  Zn  Zn99  1  -0.00083677  0.62267487  0.62270347  1
  Zn  Zn100  1  0.87398150  0.62398081  0.24954617  1
  Zn  Zn101  1  0.12384620  0.49998232  0.62391910  1
  Zn  Zn102  1  0.62433225  0.74845855  0.87291453  1
  Zn  Zn103  1  0.75235732  0.62444264  0.37423932  1
  Zn  Zn104  1  0.49506317  0.87144231  0.37935573  1
  Zn  Zn105  1  0.11875670  0.26130922  0.38456543  1
  Zn  Zn106  1  0.37601979  0.37251988  0.00139411  1
  Zn  Zn107  1  0.12817005  0.74988674  0.87316284  1
  Zn  Zn108  1  0.37433469  0.24847937  0.12401282  1
  Zn  Zn109  1  0.37422756  0.12543898  0.24934859  1
  Zn  Zn110  1  0.87709792  0.00257853  0.37814570  1
  Zn  Zn111  1  0.49625189  0.12666788  0.12616215  1
  Zn  Zn112  1  0.38493107  0.37201798  0.50471951  1
  Zn  Zn113  1  0.88208429  0.36953464  0.49465313  1
  Zn  Zn114  1  0.87587630  0.74745574  0.62129868  1
  Zn  Zn115  1  0.25244463  0.25221219  0.49992671  1
  Zn  Zn116  1  0.74977769  0.62243156  0.87475144  1
  Zn  Zn117  1  0.50774229  0.38099296  0.38510576  1
  Zn  Zn118  1  0.37684517  0.24956253  0.62258561  1
  Zn  Zn119  1  0.25056957  0.62712713  0.87349885  1
  Zn  Zn120  1  0.62332570  0.49804266  0.12563875  1
  Zn  Zn121  1  0.25345097  0.24989642  0.00120076  1
  Zn  Zn122  1  0.18531410  0.18702926  0.18742005  1
  Zn  Zn123  1  0.18831901  0.18882924  0.68863114  1
  Zn  Zn124  1  0.18537358  0.68819707  0.18537858  1
  Zn  Zn125  1  0.18846990  0.68825825  0.68529287  1
  Zn  Zn126  1  0.68476128  0.18748542  0.18931278  1
  Zn  Zn127  1  0.68805588  0.18825326  0.68957802  1
  Zn  Zn128  1  0.68526838  0.68731927  0.18457921  1
  Zn  Zn129  1  0.68924927  0.68786085  0.68626907  1
  Zn  Zn130  1  0.30764319  0.31595896  0.31101152  1
  Zn  Zn131  1  0.31388506  0.31292342  0.81199281  1
  Zn  Zn132  1  0.31164508  0.81377187  0.31198723  1
  Zn  Zn133  1  0.31363723  0.81155403  0.80903506  1
  Zn  Zn134  1  0.81178018  0.31164087  0.30977395  1
  Zn  Zn135  1  0.81122616  0.31226345  0.81202020  1
  Zn  Zn136  1  0.81171862  0.81210023  0.31396390  1
  Zn  Zn137  1  0.81345617  0.81059158  0.81356397  1
  Zn  Zn138  1  0.19026038  0.43821412  0.43569800  1
  Zn  Zn139  1  0.18794493  0.43820184  0.93920235  1
  Zn  Zn140  1  0.18641629  0.93776651  0.43754750  1
  Zn  Zn141  1  0.18666974  0.93884290  0.93680737  1
  Zn  Zn142  1  0.69195080  0.43650812  0.43757295  1
  Zn  Zn143  1  0.69129787  0.43880992  0.93734667  1
  Zn  Zn144  1  0.68639845  0.93673814  0.43746257  1
  Zn  Zn145  1  0.68651800  0.93925171  0.93755109  1
  Zn  Zn146  1  0.31266799  0.06482892  0.06450839  1
  Zn  Zn147  1  0.31202600  0.06446316  0.56154462  1
  Zn  Zn148  1  0.31018423  0.56163365  0.06050450  1
  Zn  Zn149  1  0.31037420  0.56632035  0.56368789  1
  Zn  Zn150  1  0.81056178  0.06113038  0.06347122  1
  Zn  Zn151  1  0.81261610  0.06181770  0.56275236  1
  Zn  Zn152  1  0.81246431  0.55992207  0.06264394  1
  Zn  Zn153  1  0.81388903  0.55934284  0.56137712  1
  Zn  Zn154  1  0.43660734  0.43650605  0.19111918  1
  Zn  Zn155  1  0.43832349  0.43690222  0.68883374  1
  Zn  Zn156  1  0.43580798  0.93913592  0.18997228  1
  Zn  Zn157  1  0.43807386  0.93728659  0.68787617  1
  Zn  Zn158  1  0.93548856  0.43829169  0.18609158  1
  Zn  Zn159  1  0.94042325  0.44004313  0.68554441  1
  Zn  Zn160  1  0.93511367  0.93763282  0.18697726  1
  Zn  Zn161  1  0.93742970  0.93608533  0.68627943  1
  Zn  Zn162  1  0.06325788  0.06534338  0.31034428  1
  Zn  Zn163  1  0.06310541  0.06205454  0.81179082  1
  Zn  Zn164  1  0.06176554  0.56274737  0.31117116  1
  Zn  Zn165  1  0.06089747  0.56175984  0.81363563  1
  Zn  Zn166  1  0.55988578  0.06360171  0.31438361  1
  Zn  Zn167  1  0.56368720  0.06203145  0.81502698  1
  Zn  Zn168  1  0.56227010  0.56348403  0.31142687  1
  Zn  Zn169  1  0.56329777  0.56201843  0.80948909  1
  Zn  Zn170  1  0.43623425  0.18708745  0.43859654  1
  Zn  Zn171  1  0.43925848  0.18920166  0.93987335  1
  Zn  Zn172  1  0.43897765  0.68406118  0.43779985  1
  Zn  Zn173  1  0.43696333  0.68729810  0.93604354  1
  Zn  Zn174  1  0.93653141  0.18519857  0.43922967  1
  Zn  Zn175  1  0.93753212  0.18907869  0.93836157  1
  Zn  Zn176  1  0.93528150  0.68547713  0.43362893  1
  Zn  Zn177  1  0.93826216  0.68821114  0.93530468  1
  Zn  Zn178  1  0.06092592  0.31091847  0.06440993  1
  Zn  Zn179  1  0.06717812  0.31081017  0.56598191  1
  Zn  Zn180  1  0.06310052  0.81104429  0.06190010  1
  Zn  Zn181  1  0.06294649  0.81284163  0.56187005  1
  Zn  Zn182  1  0.56092623  0.31181910  0.06478157  1
  Zn  Zn183  1  0.56043017  0.31153372  0.55960110  1
  Zn  Zn184  1  0.56213811  0.81218355  0.06285922  1
  Zn  Zn185  1  0.56553371  0.81113534  0.56303377  1
  O  O186  1  0.11734332  0.12295837  0.11737296  1
  O  O187  1  0.12200095  0.11824775  0.61999789  1
  O  O188  1  0.11824454  0.61909212  0.11696948  1
  O  O189  1  0.12551940  0.62435904  0.61086112  1
  O  O190  1  0.62445252  0.11945254  0.11693371  1
  O  O191  1  0.62105886  0.11813972  0.62224549  1
  O  O192  1  0.61737126  0.62330503  0.11349421  1
  O  O193  1  0.62032381  0.61729618  0.61908890  1
  O  O194  1  0.36865835  0.39293102  0.37577872  1
  O  O195  1  0.38244527  0.38646981  0.87429960  1
  O  O196  1  0.37421861  0.88872407  0.37357527  1
  O  O197  1  0.37991604  0.88070210  0.87948719  1
  O  O198  1  0.86805863  0.38822414  0.37623895  1
  O  O199  1  0.87819500  0.37938493  0.88171846  1
  O  O200  1  0.88209661  0.87593924  0.38168890  1
  O  O201  1  0.88038442  0.88102941  0.88010939  1
  O  O202  1  0.25479241  0.00641373  0.37204689  1
  O  O203  1  0.25554045  0.00546352  0.86848218  1
  O  O204  1  0.25823985  0.50973583  0.36736184  1
  O  O205  1  0.25856452  0.49977798  0.86667496  1
  O  O206  1  0.74962875  0.00592015  0.36812607  1
  O  O207  1  0.75615352  0.00576303  0.86969105  1
  O  O208  1  0.75695874  0.50146003  0.36448218  1
  O  O209  1  0.76384024  0.50062614  0.87039669  1
  O  O210  1  0.24081006  0.49513939  0.12842790  1
  O  O211  1  0.25022823  0.49415752  0.63524160  1
  O  O212  1  0.24872067  0.99300940  0.13209740  1
  O  O213  1  0.24245226  0.99619401  0.62998841  1
  O  O214  1  0.74997854  0.48939518  0.13366499  1
  O  O215  1  0.74232090  0.49083563  0.62713109  1
  O  O216  1  0.74274412  0.99385919  0.13153093  1
  O  O217  1  0.74544458  0.99397616  0.63186696  1
  O  O218  1  -0.00180429  0.35984181  0.24312136  1
  O  O219  1  0.00571083  0.37011182  0.75597641  1
  O  O220  1  0.00271769  0.86628648  0.25484175  1
  O  O221  1  0.00456724  0.86750416  0.75403827  1
  O  O222  1  0.50694256  0.36856635  0.25634658  1
  O  O223  1  0.50778903  0.36988735  0.75609300  1
  O  O224  1  0.50556534  0.86764885  0.25146892  1
  O  O225  1  0.50641821  0.87050127  0.75453708  1
  O  O226  1  0.49923975  0.13691619  0.24973136  1
  O  O227  1  0.49667479  0.12818736  0.74673708  1
  O  O228  1  0.49489977  0.63148102  0.24296713  1
  O  O229  1  0.50241338  0.63153398  0.73719655  1
  O  O230  1  0.99272978  0.13192276  0.24377138  1
  O  O231  1  0.99482124  0.13046697  0.74543819  1
  O  O232  1  1.00153824  0.63515442  0.23969434  1
  O  O233  1  0.99324563  0.63309189  0.74939445  1
  O  O234  1  0.37212834  0.25511614  0.00339843  1
  O  O235  1  0.36930059  0.25191614  0.50443094  1
  O  O236  1  0.37029790  0.75536371  0.00525256  1
  O  O237  1  0.36921415  0.74210321  0.51108983  1
  O  O238  1  0.87638661  0.25736246  0.01207408  1
  O  O239  1  0.87426865  0.25203963  0.50910216  1
  O  O240  1  0.86537795  0.75509688  -0.00036363  1
  O  O241  1  0.86908700  0.75827259  0.49899948  1
  O  O242  1  0.13057383  0.23782468  0.50143440  1
  O  O243  1  0.12481135  0.24315902  0.99326372  1
  O  O244  1  0.12946172  0.74283235  0.49378171  1
  O  O245  1  0.13125984  0.74174981  0.99812161  1
  O  O246  1  0.62792642  0.24108927  0.49433996  1
  O  O247  1  0.61850474  0.23756302  0.99534564  1
  O  O248  1  0.63093662  0.74168297  0.49548809  1
  O  O249  1  0.63170126  0.74155845  0.99894635  1
  O  O250  1  0.49875245  0.25078116  0.13973110  1
  O  O251  1  0.50175984  0.24159827  0.63409942  1
  O  O252  1  0.49293598  0.74440567  0.12932932  1
  O  O253  1  0.49466051  0.74382411  0.62777112  1
  O  O254  1  0.98902911  0.24368596  0.13244550  1
  O  O255  1  0.99582431  0.24382916  0.63265768  1
  O  O256  1  0.99936768  0.74242003  0.13333898  1
  O  O257  1  0.99880365  0.74869401  0.63703070  1
  O  O258  1  -0.00257346  0.24513121  0.35969563  1
  O  O259  1  0.00504263  0.25610924  0.86985575  1
  O  O260  1  0.00408653  0.75657738  0.36434373  1
  O  O261  1  0.00214827  0.75615560  0.86339040  1
  O  O262  1  0.50748420  0.25032051  0.36766376  1
  O  O263  1  0.50864034  0.25624268  0.87016585  1
  O  O264  1  0.50498432  0.75036112  0.36886090  1
  O  O265  1  0.49977689  0.75642309  0.86721025  1
  O  O266  1  0.23977714  0.12430454  0.49189223  1
  O  O267  1  0.24259620  0.12515120  0.99249306  1
  O  O268  1  0.24036658  0.63240538  0.49419459  1
  O  O269  1  0.23990552  0.63170930  0.99951170  1
  O  O270  1  0.74388050  0.12431686  0.49427021  1
  O  O271  1  0.73695690  0.11706117  0.99399394  1
  O  O272  1  0.73996855  0.63016006  0.50131806  1
  O  O273  1  0.74204718  0.63175121  1.00130585  1
  O  O274  1  0.25042284  0.37450958  0.01166055  1
  O  O275  1  0.25262484  0.37760543  0.51454109  1
  O  O276  1  0.25518516  0.87108003  0.00431312  1
  O  O277  1  0.24188518  0.86615409  0.50788837  1
  O  O278  1  0.75935924  0.37844073  0.01225135  1
  O  O279  1  0.75298683  0.37216126  0.51397489  1
  O  O280  1  0.75285292  0.86789853  0.00421476  1
  O  O281  1  0.75706389  0.86927497  0.50421291  1
  O  O282  1  0.13028723  0.50373903  0.23774143  1
  O  O283  1  0.13441322  0.49543283  0.75096150  1
  O  O284  1  0.13095463  0.99310185  0.24835634  1
  O  O285  1  0.13177047  0.99592530  0.74154607  1
  O  O286  1  0.63355536  0.49437977  0.24933917  1
  O  O287  1  0.62832014  0.49423324  0.73944393  1
  O  O288  1  0.62854273  0.99472682  0.24584757  1
  O  O289  1  0.63126202  0.99455995  0.74561164  1
  O  O290  1  0.36773213  0.00181416  0.26105017  1
  O  O291  1  0.37052539  0.00495068  0.75574722  1
  O  O292  1  0.36752322  0.50820449  0.25632155  1
  O  O293  1  0.36741064  0.50174573  0.75790623  1
  O  O294  1  0.86647241  0.00621702  0.25064617  1
  O  O295  1  0.87091524  0.00471425  0.75550608  1
  O  O296  1  0.86707105  0.49977349  0.25562582  1
  O  O297  1  0.87590795  0.50964684  0.75676817  1
  O  O298  1  0.13393518  0.37101196  0.36853775  1
  O  O299  1  0.11989314  0.37116178  0.87164925  1
  O  O300  1  0.11683351  0.86988016  0.36981332  1
  O  O301  1  0.11859384  0.87516618  0.86665919  1
  O  O302  1  0.62850195  0.36848502  0.36909644  1
  O  O303  1  0.62285116  0.37123495  0.87080121  1
  O  O304  1  0.62231487  0.86709374  0.36867469  1
  O  O305  1  0.61837141  0.87425502  0.86896739  1
  O  O306  1  0.37751803  0.12949451  0.13120488  1
  O  O307  1  0.38208419  0.12409618  0.63389178  1
  O  O308  1  0.37833184  0.63054179  0.12883055  1
  O  O309  1  0.38552850  0.63192398  0.62533131  1
  O  O310  1  0.87653067  0.13243385  0.12856777  1
  O  O311  1  0.88032256  0.12851771  0.63125431  1
  O  O312  1  0.88587353  0.62475509  0.12512552  1
  O  O313  1  0.87705213  0.62605610  0.63561286  1
  O  O314  1  0.24788439  0.26224497  0.12618874  1
  O  O315  1  0.25293315  0.26258522  0.62905907  1
  O  O316  1  0.25513922  0.75612469  0.11925106  1
  O  O317  1  0.25905078  0.75482799  0.62024791  1
  O  O318  1  0.76090350  0.26059008  0.13600262  1
  O  O319  1  0.75633167  0.25769460  0.62600521  1
  O  O320  1  0.74991924  0.75516879  0.11403199  1
  O  O321  1  0.75183505  0.75724976  0.61765317  1
  O  O322  1  0.24776923  0.23660796  0.37354572  1
  O  O323  1  0.24305664  0.24426941  0.87433467  1
  O  O324  1  0.24455897  0.74640739  0.37889021  1
  O  O325  1  0.24929689  0.74744820  0.88051652  1
  O  O326  1  0.74423290  0.24220127  0.37476994  1
  O  O327  1  0.74236217  0.24117960  0.86950371  1
  O  O328  1  0.74242695  0.74582595  0.37984201  1
  O  O329  1  0.74746922  0.74782017  0.88768707  1
  O  O330  1  0.00359440  0.11943638  0.00425691  1
  O  O331  1  0.01235604  0.12872418  0.50736545  1
  O  O332  1  0.00991934  0.63454021  0.01070361  1
  O  O333  1  0.01028449  0.62022550  0.49828752  1
  O  O334  1  0.51118578  0.11730431  0.00012321  1
  O  O335  1  0.50675997  0.11523061  0.50684831  1
  O  O336  1  0.50682027  0.62070079  0.00385220  1
  O  O337  1  0.51341874  0.63050066  0.51203604  1
  O  O338  1  0.49806403  0.37883712  0.49763941  1
  O  O339  1  0.50137013  0.38269587  0.99332868  1
  O  O340  1  0.50661312  0.88926507  0.50040395  1
  O  O341  1  0.49389614  0.87941705  0.99498312  1
  O  O342  1  1.00329173  0.38676445  0.50452032  1
  O  O343  1  0.98614335  0.36988621  0.99490253  1
  O  O344  1  0.99137604  0.86571228  0.48821053  1
  O  O345  1  0.99458635  0.87875954  0.99453372  1
  O  O346  1  0.48219890  0.50185440  0.36767770  1
  O  O347  1  0.49377449  0.49568746  0.87791766  1
  O  O348  1  0.49098675  0.99956847  0.38402198  1
  O  O349  1  0.49430202  0.99361884  0.88045851  1
  O  O350  1  0.99189850  0.50500695  0.38214027  1
  O  O351  1  0.98730148  0.49198138  0.87011228  1
  O  O352  1  0.99902357  0.98482474  0.36716985  1
  O  O353  1  0.99398087  0.99497447  0.87945130  1
  O  O354  1  -0.00071104  0.00617799  0.11819314  1
  O  O355  1  0.01360069  0.00571070  0.63318148  1
  O  O356  1  0.00895179  0.51044386  0.13123684  1
  O  O357  1  0.00433326  0.50403037  0.61261535  1
  O  O358  1  0.50592232  0.00011409  0.11924808  1
  O  O359  1  0.50544807  0.00424612  0.61974945  1
  O  O360  1  0.50009238  0.50612077  0.11907249  1
  O  O361  1  0.51104264  0.50912652  0.63114772  1
  O  O362  1  0.24621508  0.38368779  0.23800357  1
  O  O363  1  0.24593602  0.38461066  0.74515723  1
  O  O364  1  0.24324576  0.87927895  0.24475980  1
  O  O365  1  0.24547664  0.88082942  0.74204938  1
  O  O366  1  0.74598379  0.38323114  0.24083220  1
  O  O367  1  0.74480858  0.37535740  0.73926100  1
  O  O368  1  0.74326810  0.87852687  0.24490309  1
  O  O369  1  0.74705453  0.87970637  0.74580006  1
  O  O370  1  0.24594830  0.11853940  0.26048507  1
  O  O371  1  0.25573807  0.11964229  0.75558195  1
  O  O372  1  0.25427437  0.62331875  0.25364739  1
  O  O373  1  0.25049388  0.61413724  0.75047090  1
  O  O374  1  0.75381264  0.11946402  0.25519558  1
  O  O375  1  0.75642928  0.11820917  0.75590280  1
  O  O376  1  0.74971120  0.61255579  0.24627060  1
  O  O377  1  0.76174965  0.62603885  0.75306378  1
  O  O378  1  0.36321952  0.11468854  0.37447835  1
  O  O379  1  0.37074659  0.11896120  0.87039196  1
  O  O380  1  0.36978669  0.61903384  0.36874823  1
  O  O381  1  0.37505837  0.61276841  0.87107778  1
  O  O382  1  0.86841190  0.12190653  0.36970457  1
  O  O383  1  0.87107979  0.12013137  0.87086594  1
  O  O384  1  0.87121985  0.61189866  0.37054220  1
  O  O385  1  0.87612867  0.61650608  0.86812468  1
  O  O386  1  0.12885396  0.38534534  0.12543334  1
  O  O387  1  0.13552481  0.37773057  0.63388384  1
  O  O388  1  0.13085363  0.87627309  0.13049825  1
  O  O389  1  0.12972942  0.88291345  0.62936541  1
  O  O390  1  0.63482394  0.37486543  0.13078366  1
  O  O391  1  0.63217893  0.38059587  0.62942594  1
  O  O392  1  0.62973582  0.87987610  0.13073517  1
  O  O393  1  0.63197383  0.88059677  0.63130321  1
  O  O394  1  0.10639563  0.24835132  0.24805513  1
  O  O395  1  0.11919163  0.25557159  0.75689150  1
  O  O396  1  0.11632263  0.75540761  0.25421375  1
  O  O397  1  0.11763960  0.75531757  0.74972263  1
  O  O398  1  0.61789953  0.25524913  0.25675913  1
  O  O399  1  0.61994396  0.25494994  0.75763547  1
  O  O400  1  0.61911086  0.75361890  0.25406172  1
  O  O401  1  0.61979806  0.75652396  0.75029981  1
  O  O402  1  0.38570616  0.25105055  0.25331219  1
  O  O403  1  0.38431379  0.24292945  0.75128831  1
  O  O404  1  0.37898976  0.74528974  0.24444210  1
  O  O405  1  0.38152985  0.74716649  0.73757552  1
  O  O406  1  0.88342953  0.24503140  0.24123991  1
  O  O407  1  0.88144194  0.24354229  0.74619918  1
  O  O408  1  0.88489977  0.74767030  0.24773774  1
  O  O409  1  0.88384944  0.74145675  0.75062972  1
  O  O410  1  0.36886883  0.50598470  0.48396236  1
  O  O411  1  0.38055534  0.49987091  0.98949141  1
  O  O412  1  0.38509388  1.00618807  0.49306026  1
  O  O413  1  0.37958955  0.99432972  0.99444119  1
  O  O414  1  0.88502945  0.49785227  0.49183023  1
  O  O415  1  0.87130114  0.48936426  0.99029471  1
  O  O416  1  0.87122950  0.98441527  0.49862527  1
  O  O417  1  0.87942675  0.99442612  0.99434167  1
  O  O418  1  0.11677048  0.00655620  0.00024026  1
  O  O419  1  0.12988821  0.00873019  0.51240577  1
  O  O420  1  0.12930510  0.51119404  0.01048581  1
  O  O421  1  0.11918489  0.51083847  0.49667388  1
  O  O422  1  0.61934926  0.00678310  0.00566966  1
  O  O423  1  0.61792733  0.00513333  0.50615087  1
  O  O424  1  0.62046480  0.50916900  0.00098331  1
  O  O425  1  0.63273298  0.50904846  0.51030992  1
  O  O426  1  0.36234560  0.37664477  0.12426048  1
  O  O427  1  0.36582667  0.37438325  0.62707443  1
  O  O428  1  0.36896627  0.86972709  0.11948363  1
  O  O429  1  0.37036670  0.86377706  0.62882789  1
  O  O430  1  0.86923890  0.36915319  0.11799126  1
  O  O431  1  0.86716401  0.36960249  0.62711588  1
  O  O432  1  0.86692477  0.87276089  0.11748540  1
  O  O433  1  0.87087701  0.87238516  0.61639765  1
  O  O434  1  0.13099012  0.12398061  0.38475563  1
  O  O435  1  0.12983446  0.13021990  0.87873817  1
  O  O436  1  0.12968062  0.63138988  0.38108433  1
  O  O437  1  0.12494764  0.62505475  0.88665428  1
  O  O438  1  0.63053529  0.12939405  0.38084016  1
  O  O439  1  0.63022875  0.12903922  0.88317450  1
  O  O440  1  0.62509787  0.62862474  0.38504770  1
  O  O441  1  0.62619027  0.62552752  0.88630392  1
