# generated using pymatgen
data_V93Zn93O256
_symmetry_space_group_name_H-M   'P 1'
_cell_length_a   17.04276815
_cell_length_b   17.04191022
_cell_length_c   17.04604476
_cell_angle_alpha   90.00286670
_cell_angle_beta   90.04099930
_cell_angle_gamma   89.98207387
_symmetry_Int_Tables_number   1
_chemical_formula_structural   V93Zn93O256
_chemical_formula_sum   'V93 Zn93 O256'
_cell_volume   4950.87430488
_cell_formula_units_Z   1
loop_
 _symmetry_equiv_pos_site_id
 _symmetry_equiv_pos_as_xyz
  1  'x, y, z'
loop_
 _atom_site_type_symbol
 _atom_site_label
 _atom_site_symmetry_multiplicity
 _atom_site_fract_x
 _atom_site_fract_y
 _atom_site_fract_z
 _atom_site_occupancy
  V  V0  1  0.49921881  0.87367280  0.37291851  1
  V  V1  1  0.00039062  -0.00078062  0.50066674  1
  V  V2  1  0.00054129  0.37334290  0.37233240  1
  V  V3  1  0.75904159  -0.00068185  0.75584476  1
  V  V4  1  0.24943752  0.25190382  0.00209778  1
  V  V5  1  0.50056457  0.74972893  0.74824703  1
  V  V6  1  0.86999327  0.50530678  0.37407074  1
  V  V7  1  0.00002215  0.87423501  0.37368772  1
  V  V8  1  0.49818207  0.62258687  0.11925996  1
  V  V9  1  0.62185451  0.37631310  0.25371650  1
  V  V10  1  0.12722655  0.12399872  0.50089014  1
  V  V11  1  0.12429725  0.74957989  0.37317766  1
  V  V12  1  0.37589571  0.74737896  0.62397503  1
  V  V13  1  0.38244001  0.49932228  0.87928876  1
  V  V14  1  0.25132275  0.49872837  0.74983680  1
  V  V15  1  0.62841372  0.62363828  0.49395688  1
  V  V16  1  0.49886424  0.25261956  0.25608632  1
  V  V17  1  0.24757895  0.49944155  0.24933225  1
  V  V18  1  0.12302447  0.87432060  0.24928943  1
  V  V19  1  0.87680933  0.12779827  0.24950119  1
  V  V20  1  0.37775096  0.24665805  0.62871416  1
  V  V21  1  0.12373983  0.49958587  0.12631656  1
  V  V22  1  0.62633142  0.74737980  0.37322748  1
  V  V23  1  0.87486828  0.00009154  0.37488619  1
  V  V24  1  0.25115804  0.74806485  0.49862727  1
  V  V25  1  0.37836406  0.49252169  0.37475276  1
  V  V26  1  0.74741234  0.50715781  0.25346223  1
  V  V27  1  0.62470788  0.75079243  0.87375844  1
  V  V28  1  0.37648119  0.62446127  0.74986799  1
  V  V29  1  0.86759904  0.37249609  0.00075555  1
  V  V30  1  0.50374259  0.00085542  0.50211336  1
  V  V31  1  0.74849240  -0.00040417  0.24969375  1
  V  V32  1  0.12655519  0.87539536  0.74914083  1
  V  V33  1  0.12770096  -0.00140374  0.62590104  1
  V  V34  1  0.62340678  0.25292899  0.37726998  1
  V  V35  1  0.74765031  0.87606556  0.12379760  1
  V  V36  1  0.00145989  0.24980503  0.75006094  1
  V  V37  1  0.62191268  0.62376218  -0.00160234  1
  V  V38  1  0.62158067  0.50021007  0.12018367  1
  V  V39  1  0.62553660  0.37469960  0.75091851  1
  V  V40  1  0.00116154  0.62368005  0.62467542  1
  V  V41  1  0.62359045  0.87617877  0.24832238  1
  V  V42  1  0.37521873  0.12488694  0.25034224  1
  V  V43  1  0.87438017  0.87387114  0.49879802  1
  V  V44  1  0.75044244  0.62617956  0.87270850  1
  V  V45  1  0.37459865  0.62471764  0.24882537  1
  V  V46  1  0.37276545  0.87901243  -0.00312771  1
  V  V47  1  0.62558347  0.49981031  0.62335436  1
  V  V48  1  0.25017173  0.87416416  0.62439521  1
  V  V49  1  0.86770134  0.25197753  0.12318799  1
  V  V50  1  0.12451933  0.62584549  -0.00098085  1
  V  V51  1  0.50178755  0.25003483  0.75460650  1
  V  V52  1  0.75051973  0.12613758  0.37648906  1
  V  V53  1  -0.00346255  0.49925079  -0.00201779  1
  V  V54  1  0.49482607  0.88118275  0.87278703  1
  V  V55  1  0.87505733  0.74929718  0.62224119  1
  V  V56  1  0.12138890  0.00271399  0.12393476  1
  V  V57  1  0.37578954  0.87259904  0.49854065  1
  V  V58  1  0.24996191  0.00049376  0.24982626  1
  V  V59  1  0.38163922  0.37844059  0.00114455  1
  V  V60  1  0.24954152  0.62372753  0.37405601  1
  V  V61  1  0.25697376  0.12034551  0.87310186  1
  V  V62  1  0.37442224  0.25070087  0.12747014  1
  V  V63  1  0.75770341  0.12863672  0.87998343  1
  V  V64  1  -0.00345054  0.62626612  0.12519325  1
  V  V65  1  0.87466085  0.62433506  0.75030636  1
  V  V66  1  0.00128963  0.12488067  0.62615987  1
  V  V67  1  -0.00610327  0.00117526  -0.00353238  1
  V  V68  1  0.87524797  0.37407964  0.50042387  1
  V  V69  1  0.12513245  0.62355578  0.49986653  1
  V  V70  1  0.49832993  0.00245357  -0.00134303  1
  V  V71  1  0.62619202  0.13184056  -0.00037124  1
  V  V72  1  -0.00571042  0.88026164  0.87425323  1
  V  V73  1  0.25152483  0.24897429  0.50173535  1
  V  V74  1  0.12550938  0.74981430  0.87466311  1
  V  V75  1  0.87364070  0.75085657  0.12344111  1
  V  V76  1  0.75123483  0.37382638  0.62693165  1
  V  V77  1  0.50065705  0.49304821  0.49553975  1
  V  V78  1  0.12665877  0.37525165  0.75020634  1
  V  V79  1  0.37440276  -0.00067289  0.37424726  1
  V  V80  1  0.12488793  0.25164899  0.87647130  1
  V  V81  1  0.74842087  0.75185249  -0.00078566  1
  V  V82  1  0.75060248  0.24857969  0.50143454  1
  V  V83  1  0.25198092  0.37383122  0.62565081  1
  V  V84  1  0.87689357  0.24859387  0.62743041  1
  V  V85  1  0.25013000  0.62547973  0.87495147  1
  V  V86  1  0.00032550  0.49969992  0.49976822  1
  V  V87  1  0.12484646  0.24931897  0.37624971  1
  V  V88  1  0.62695803  0.87743296  0.74717353  1
  V  V89  1  0.24909456  0.87495176  0.12253527  1
  V  V90  1  0.75034998  0.74635424  0.49390577  1
  V  V91  1  0.49875472  0.74979101  0.24814787  1
  V  V92  1  0.00079695  0.75015576  0.74888191  1
  Zn  Zn93  1  0.25003969  0.12488403  0.37592706  1
  Zn  Zn94  1  0.50114156  0.62402119  0.62326732  1
  Zn  Zn95  1  0.62921132  0.25494786  0.88254189  1
  Zn  Zn96  1  -0.00297618  0.74847259  0.24940337  1
  Zn  Zn97  1  0.00171808  0.24959979  0.24754751  1
  Zn  Zn98  1  0.38000417  0.37069610  0.49762102  1
  Zn  Zn99  1  0.12557050  0.37192193  0.24777473  1
  Zn  Zn100  1  -0.00188156  0.12859816  0.12097632  1
  Zn  Zn101  1  0.87228210  0.49783208  0.87357860  1
  Zn  Zn102  1  0.24774220  0.37634410  0.12628158  1
  Zn  Zn103  1  0.50238901  0.12500687  0.12589162  1
  Zn  Zn104  1  0.86895951  0.88170094  -0.00610889  1
  Zn  Zn105  1  0.62576601  0.12487909  0.50332987  1
  Zn  Zn106  1  0.37241355  0.74986156  0.12318391  1
  Zn  Zn107  1  -0.00348171  0.37489119  0.87446822  1
  Zn  Zn108  1  0.12367500  0.12623506  0.00036552  1
  Zn  Zn109  1  0.75124138  0.87724186  0.62366943  1
  Zn  Zn110  1  0.87995074  0.12035413  0.75599930  1
  Zn  Zn111  1  0.25039155  0.75052160  -0.00015443  1
  Zn  Zn112  1  0.62993132  0.00435718  0.62480052  1
  Zn  Zn113  1  0.62434372  0.00261336  0.12516253  1
  Zn  Zn114  1  0.25865287  -0.00389567  0.75385814  1
  Zn  Zn115  1  0.38633276  0.11362071  0.75856145  1
  Zn  Zn116  1  0.75164150  0.50032604  0.74994692  1
  Zn  Zn117  1  0.50454527  0.12289810  0.62889401  1
  Zn  Zn118  1  0.50554685  0.37917848  0.88169605  1
  Zn  Zn119  1  0.74556906  0.37370295  0.12208655  1
  Zn  Zn120  1  0.12648185  0.49881703  0.62477076  1
  Zn  Zn121  1  0.87015598  0.62778123  0.25313493  1
  Zn  Zn122  1  0.18733419  0.18715381  0.18979242  1
  Zn  Zn123  1  0.18900410  0.18677896  0.68945220  1
  Zn  Zn124  1  0.18625987  0.68785849  0.18544952  1
  Zn  Zn125  1  0.18815822  0.68654534  0.68723205  1
  Zn  Zn126  1  0.68727182  0.18669876  0.18717048  1
  Zn  Zn127  1  0.68831916  0.18420418  0.69025957  1
  Zn  Zn128  1  0.68599179  0.68783782  0.18622740  1
  Zn  Zn129  1  0.68876349  0.68791259  0.68267470  1
  Zn  Zn130  1  0.30809290  0.31268805  0.31287894  1
  Zn  Zn131  1  0.31504425  0.31221550  0.81399132  1
  Zn  Zn132  1  0.31129682  0.81233914  0.30988893  1
  Zn  Zn133  1  0.31281672  0.81170443  0.81146342  1
  Zn  Zn134  1  0.80950077  0.31548240  0.31047162  1
  Zn  Zn135  1  0.81339367  0.30966367  0.81483780  1
  Zn  Zn136  1  0.81114173  0.81294285  0.31079385  1
  Zn  Zn137  1  0.81297230  0.81045925  0.81070345  1
  Zn  Zn138  1  0.18923369  0.43571500  0.43834444  1
  Zn  Zn139  1  0.18985248  0.43858529  0.93802819  1
  Zn  Zn140  1  0.18782822  0.93668631  0.43732794  1
  Zn  Zn141  1  0.18229068  0.93750103  0.93854683  1
  Zn  Zn142  1  0.68872167  0.43545653  0.43787958  1
  Zn  Zn143  1  0.68881229  0.44105821  0.93563273  1
  Zn  Zn144  1  0.68781845  0.93453057  0.43510274  1
  Zn  Zn145  1  0.68499921  0.94268922  0.93584107  1
  Zn  Zn146  1  0.31295309  0.06410781  0.06244527  1
  Zn  Zn147  1  0.31564655  0.06204163  0.56494912  1
  Zn  Zn148  1  0.31041609  0.56175555  0.06192081  1
  Zn  Zn149  1  0.31392793  0.56045890  0.56198443  1
  Zn  Zn150  1  0.81080249  0.06413712  0.06391869  1
  Zn  Zn151  1  0.81240214  0.06193610  0.56663475  1
  Zn  Zn152  1  0.80830391  0.56252043  0.06276032  1
  Zn  Zn153  1  0.81196870  0.56206153  0.56265036  1
  Zn  Zn154  1  0.43701852  0.43708431  0.18776748  1
  Zn  Zn155  1  0.43945972  0.43698007  0.68615321  1
  Zn  Zn156  1  0.43615385  0.93870662  0.18313247  1
  Zn  Zn157  1  0.43628238  0.93771804  0.68574760  1
  Zn  Zn158  1  0.93521529  0.43803523  0.18709120  1
  Zn  Zn159  1  0.93880173  0.43740115  0.68894308  1
  Zn  Zn160  1  0.93592921  0.93704251  0.18587171  1
  Zn  Zn161  1  0.93789207  0.93630891  0.68604897  1
  Zn  Zn162  1  0.06262200  0.06246271  0.31365962  1
  Zn  Zn163  1  0.06800711  0.06317153  0.81239292  1
  Zn  Zn164  1  0.05916521  0.56262887  0.31053404  1
  Zn  Zn165  1  0.06253522  0.56211524  0.81246356  1
  Zn  Zn166  1  0.56209828  0.06487525  0.31485779  1
  Zn  Zn167  1  0.56980061  0.06343236  0.81536741  1
  Zn  Zn168  1  0.55981775  0.56351357  0.31143111  1
  Zn  Zn169  1  0.56321737  0.56266233  0.81063533  1
  Zn  Zn170  1  0.43690383  0.18503149  0.43840361  1
  Zn  Zn171  1  0.43917021  0.19146544  0.93902111  1
  Zn  Zn172  1  0.44008246  0.68198629  0.43585413  1
  Zn  Zn173  1  0.43659205  0.69162122  0.93665763  1
  Zn  Zn174  1  0.93831089  0.18710923  0.43947629  1
  Zn  Zn175  1  0.93801588  0.18914910  0.94082539  1
  Zn  Zn176  1  0.93940610  0.68686148  0.43706688  1
  Zn  Zn177  1  0.93659857  0.68991470  0.93688418  1
  Zn  Zn178  1  0.05692644  0.31424536  0.06501585  1
  Zn  Zn179  1  0.06448387  0.31254832  0.56257646  1
  Zn  Zn180  1  0.06027800  0.81380026  0.05971315  1
  Zn  Zn181  1  0.06314798  0.81136035  0.56110838  1
  Zn  Zn182  1  0.56046785  0.31162974  0.06921095  1
  Zn  Zn183  1  0.56311264  0.31196962  0.56570509  1
  Zn  Zn184  1  0.56088787  0.81181932  0.06211475  1
  Zn  Zn185  1  0.56283236  0.81211966  0.56225120  1
  O  O186  1  0.12239505  0.11326310  0.12551902  1
  O  O187  1  0.12105483  0.11944938  0.62065530  1
  O  O188  1  0.11719315  0.62017737  0.11821211  1
  O  O189  1  0.11922503  0.62343960  0.61819804  1
  O  O190  1  0.62433606  0.12296171  0.11568659  1
  O  O191  1  0.62201069  0.12252500  0.62067144  1
  O  O192  1  0.61682822  0.61907631  0.11977081  1
  O  O193  1  0.62455130  0.61880165  0.61272910  1
  O  O194  1  0.36996709  0.38890348  0.37646511  1
  O  O195  1  0.37606446  0.38311313  0.88340092  1
  O  O196  1  0.37986964  0.87880533  0.37914457  1
  O  O197  1  0.38627043  0.87031788  0.88159739  1
  O  O198  1  0.88203756  0.38137980  0.38031206  1
  O  O199  1  0.87680821  0.37594126  0.88521996  1
  O  O200  1  0.87958954  0.88063677  0.37908376  1
  O  O201  1  0.89031785  0.86951800  0.87406153  1
  O  O202  1  0.25620588  -0.00051801  0.36829059  1
  O  O203  1  0.24105629  0.01841958  0.87916891  1
  O  O204  1  0.25689713  0.50569645  0.37067422  1
  O  O205  1  0.25923395  0.50556224  0.86916062  1
  O  O206  1  0.75609780  0.00475540  0.36979252  1
  O  O207  1  0.74494225  0.01208005  0.86565269  1
  O  O208  1  0.75983738  0.49212696  0.36701093  1
  O  O209  1  0.75186396  0.51178405  0.87070341  1
  O  O210  1  0.24161984  0.50072368  0.13141652  1
  O  O211  1  0.25063007  0.49272863  0.63180282  1
  O  O212  1  0.24045217  0.99581627  0.12858589  1
  O  O213  1  0.24369429  0.99067062  0.62169414  1
  O  O214  1  0.73712342  0.50012494  0.13472737  1
  O  O215  1  0.74392765  0.49171762  0.62570462  1
  O  O216  1  0.74851090  0.99351793  0.13223106  1
  O  O217  1  0.74836288  0.99620016  0.63679538  1
  O  O218  1  -0.00044020  0.37508975  0.26337826  1
  O  O219  1  0.00795537  0.36824144  0.75250842  1
  O  O220  1  0.00499494  0.87407588  0.25643098  1
  O  O221  1  0.00646115  0.87056931  0.75521553  1
  O  O222  1  0.51108569  0.36627670  0.24720951  1
  O  O223  1  0.51095325  0.36809311  0.75046848  1
  O  O224  1  0.50313465  0.87026265  0.25334470  1
  O  O225  1  0.50733681  0.87115373  0.75601254  1
  O  O226  1  0.49447106  0.13492725  0.24969258  1
  O  O227  1  0.50348499  0.13610616  0.75203871  1
  O  O228  1  0.49495405  0.63067289  0.24031716  1
  O  O229  1  0.49464978  0.63230724  0.74789311  1
  O  O230  1  0.98563674  0.12352649  0.24996251  1
  O  O231  1  1.00106121  0.13053663  0.74470355  1
  O  O232  1  0.99372554  0.62709992  0.24024757  1
  O  O233  1  0.99603838  0.63104060  0.74462986  1
  O  O234  1  0.36746781  0.25745025  0.00612836  1
  O  O235  1  0.37253405  0.25090133  0.50943978  1
  O  O236  1  0.37349713  0.76488036  0.00147131  1
  O  O237  1  0.37086591  0.75220827  0.50246633  1
  O  O238  1  0.88112733  0.26142984  0.01077965  1
  O  O239  1  0.87053644  0.25518721  0.50660292  1
  O  O240  1  0.86745107  0.75328926  0.00864788  1
  O  O241  1  0.86804221  0.75256256  0.50134178  1
  O  O242  1  0.13113895  0.24292052  0.49680524  1
  O  O243  1  0.13233329  0.25205680  0.99431897  1
  O  O244  1  0.13112989  0.74389935  0.49339081  1
  O  O245  1  0.12458886  0.74366699  0.99250195  1
  O  O246  1  0.63029212  0.25160810  0.49146548  1
  O  O247  1  0.61602366  0.23736336  1.00126441  1
  O  O248  1  0.63100477  0.74322407  0.49479032  1
  O  O249  1  0.62895346  0.74502237  0.99329950  1
  O  O250  1  0.49300332  0.24774587  0.14002906  1
  O  O251  1  0.49317688  0.25085375  0.63515463  1
  O  O252  1  0.49857344  0.73992295  0.13051738  1
  O  O253  1  0.49355375  0.74883373  0.63034237  1
  O  O254  1  0.98726135  0.24794626  0.12967517  1
  O  O255  1  0.99734821  0.24440616  0.63015021  1
  O  O256  1  0.98893190  0.74652893  0.12340838  1
  O  O257  1  0.99536982  0.74381586  0.62849590  1
  O  O258  1  0.00457189  0.25922396  0.37661442  1
  O  O259  1  0.01109880  0.24992445  0.87089618  1
  O  O260  1  0.00597100  0.75604460  0.37324238  1
  O  O261  1  0.00622111  0.75780640  0.86861212  1
  O  O262  1  0.50946278  0.24507331  0.36611234  1
  O  O263  1  0.50213231  0.25584810  0.86484983  1
  O  O264  1  0.50482215  0.75423854  0.36838562  1
  O  O265  1  0.50548685  0.75993704  0.86839970  1
  O  O266  1  0.24475197  0.13074452  0.50070874  1
  O  O267  1  0.24873223  0.13609791  0.99215813  1
  O  O268  1  0.24539471  0.62921400  0.49416390  1
  O  O269  1  0.24283558  0.62634808  0.99260677  1
  O  O270  1  0.75087321  0.13101681  0.49353650  1
  O  O271  1  0.74155869  0.11680243  0.98747282  1
  O  O272  1  0.74060748  0.63400493  0.50297109  1
  O  O273  1  0.74194992  0.63212247  0.99386503  1
  O  O274  1  0.25868257  0.36480457  0.00078530  1
  O  O275  1  0.25276775  0.36698451  0.50792324  1
  O  O276  1  0.25786785  0.87693616  0.00219865  1
  O  O277  1  0.25557073  0.86715287  0.50371633  1
  O  O278  1  0.76315587  0.38362895  0.00302296  1
  O  O279  1  0.75579867  0.36800877  0.50670039  1
  O  O280  1  0.74894741  0.87102745  0.00342605  1
  O  O281  1  0.75589628  0.86525658  0.50053975  1
  O  O282  1  0.13014575  0.50000582  0.24392209  1
  O  O283  1  0.13275433  0.49356503  0.75001090  1
  O  O284  1  0.12832438  0.99501357  0.24255639  1
  O  O285  1  0.13119345  0.99319999  0.74294696  1
  O  O286  1  0.62834968  0.49403740  0.24632810  1
  O  O287  1  0.62491075  0.48994437  0.74337083  1
  O  O288  1  0.63033677  0.99462694  0.25081381  1
  O  O289  1  0.63321603  0.98945390  0.74997137  1
  O  O290  1  0.37011274  0.00411806  0.25423115  1
  O  O291  1  0.37089324  0.00315545  0.74560226  1
  O  O292  1  0.37008379  0.50499366  0.25655712  1
  O  O293  1  0.37101650  0.50402378  0.75794733  1
  O  O294  1  0.86903238  0.00759154  0.25478563  1
  O  O295  1  0.86473034  0.00047359  0.74682135  1
  O  O296  1  0.86388397  0.49935667  0.25663040  1
  O  O297  1  0.87362229  0.50812194  0.75230404  1
  O  O298  1  0.11442004  0.36892717  0.37672978  1
  O  O299  1  0.12653349  0.36450864  0.87057941  1
  O  O300  1  0.11975447  0.86965412  0.36971035  1
  O  O301  1  0.11729551  0.86941710  0.86871024  1
  O  O302  1  0.63038426  0.36312389  0.36633646  1
  O  O303  1  0.62458997  0.37473019  0.86669596  1
  O  O304  1  0.61837001  0.86748024  0.36757557  1
  O  O305  1  0.61651145  0.87051085  0.86604803  1
  O  O306  1  0.37658850  0.13297958  0.13213088  1
  O  O307  1  0.37915132  0.13784175  0.62850873  1
  O  O308  1  0.38317967  0.62387422  0.12899625  1
  O  O309  1  0.37628770  0.63022395  0.63150966  1
  O  O310  1  0.87343614  0.13335714  0.13361859  1
  O  O311  1  0.88421014  0.13171193  0.62657760  1
  O  O312  1  0.87676742  0.63609893  0.12376906  1
  O  O313  1  0.88134619  0.63016337  0.62865580  1
  O  O314  1  0.25381858  0.25044933  0.11638583  1
  O  O315  1  0.25920247  0.25326860  0.62275569  1
  O  O316  1  0.25049979  0.75882458  0.12091013  1
  O  O317  1  0.25559477  0.75392791  0.61802063  1
  O  O318  1  0.76276013  0.25414634  0.13156285  1
  O  O319  1  0.75665413  0.25420207  0.62122797  1
  O  O320  1  0.75447998  0.75512544  0.11910812  1
  O  O321  1  0.75664826  0.75275692  0.61189352  1
  O  O322  1  0.24332035  0.24805070  0.38342307  1
  O  O323  1  0.24361447  0.24445723  0.88351907  1
  O  O324  1  0.24466637  0.74394632  0.37924360  1
  O  O325  1  0.24318014  0.74342878  0.87524009  1
  O  O326  1  0.74338530  0.24658853  0.38071606  1
  O  O327  1  0.74586918  0.23307591  0.86920096  1
  O  O328  1  0.74393382  0.75480189  0.38607659  1
  O  O329  1  0.74388823  0.74617873  0.87964268  1
  O  O330  1  0.00411212  0.11562183  0.00079334  1
  O  O331  1  0.00631244  0.11850430  0.50605259  1
  O  O332  1  0.00327401  0.61777654  0.00435298  1
  O  O333  1  0.00565882  0.61953348  0.50509052  1
  O  O334  1  0.50553226  0.11690533  -0.00181062  1
  O  O335  1  0.50163206  0.11137927  0.50014126  1
  O  O336  1  0.50483837  0.63195605  0.01106050  1
  O  O337  1  0.51091637  0.61509946  0.50150202  1
  O  O338  1  0.50154435  0.38887199  0.50251488  1
  O  O339  1  0.48577758  0.36887738  1.00071062  1
  O  O340  1  0.49556077  0.88003169  0.49282483  1
  O  O341  1  0.49435130  0.88175268  0.99233623  1
  O  O342  1  0.99503116  0.37911381  0.49251427  1
  O  O343  1  0.99030517  0.38580521  0.99912327  1
  O  O344  1  0.99508952  0.87956316  0.49335737  1
  O  O345  1  0.99898199  0.88347706  0.98980040  1
  O  O346  1  0.48897711  0.50631074  0.38240401  1
  O  O347  1  0.48633426  0.49953868  0.87143138  1
  O  O348  1  0.49456886  0.99330146  0.38156469  1
  O  O349  1  0.50651442  0.98900723  0.88383271  1
  O  O350  1  0.99218129  0.49091517  0.37974713  1
  O  O351  1  0.99811273  0.49937075  0.88739294  1
  O  O352  1  0.99453901  0.99436684  0.38124621  1
  O  O353  1  1.01014839  0.99115092  0.88345274  1
  O  O354  1  0.00802799  -0.00043202  0.11766156  1
  O  O355  1  0.00726722  0.00418111  0.61971872  1
  O  O356  1  0.00249897  0.50574034  0.11615069  1
  O  O357  1  0.00169015  0.50568640  0.61746678  1
  O  O358  1  0.50258371  0.00269573  0.11258024  1
  O  O359  1  0.50376914  -0.00226813  0.61210401  1
  O  O360  1  0.51067944  0.51135214  0.13331331  1
  O  O361  1  0.50685306  0.50180420  0.61481165  1
  O  O362  1  0.24617405  0.38379077  0.24738375  1
  O  O363  1  0.24649260  0.37871180  0.74575629  1
  O  O364  1  0.24322249  0.88118954  0.24340307  1
  O  O365  1  0.24399209  0.87395756  0.74278077  1
  O  O366  1  0.73688892  0.38440458  0.24706085  1
  O  O367  1  0.74072118  0.37397465  0.74567110  1
  O  O368  1  0.74298056  0.88045572  0.24476032  1
  O  O369  1  0.74232922  0.88127454  0.75216875  1
  O  O370  1  0.25710427  0.11765058  0.25225480  1
  O  O371  1  0.25141318  0.12679984  0.76607163  1
  O  O372  1  0.25445327  0.61955949  0.25458850  1
  O  O373  1  0.25649943  0.61961696  0.75539423  1
  O  O374  1  0.75871819  0.12052042  0.25631882  1
  O  O375  1  0.75220377  0.11668348  0.76188815  1
  O  O376  1  0.74754063  0.61166623  0.24858139  1
  O  O377  1  0.75610989  0.62662537  0.75432327  1
  O  O378  1  0.37301758  0.11716151  0.36833143  1
  O  O379  1  0.35990568  0.13251262  0.87754783  1
  O  O380  1  0.36868398  0.61600663  0.36881908  1
  O  O381  1  0.37110400  0.61866257  0.87117045  1
  O  O382  1  0.87060247  0.12055421  0.36880080  1
  O  O383  1  0.86173508  0.12834550  0.87749447  1
  O  O384  1  0.88163815  0.60906900  0.37383551  1
  O  O385  1  0.86835282  0.62726865  0.86792083  1
  O  O386  1  0.12489912  0.38417577  0.12703097  1
  O  O387  1  0.13338206  0.37497277  0.63243773  1
  O  O388  1  0.12787699  0.88405853  0.12859772  1
  O  O389  1  0.13012958  0.87802289  0.62922703  1
  O  O390  1  0.62380848  0.38404209  0.13344785  1
  O  O391  1  0.63176905  0.37936673  0.63272313  1
  O  O392  1  0.63008425  0.87601692  0.13117249  1
  O  O393  1  0.62676786  0.87403883  0.63829062  1
  O  O394  1  0.12130023  0.25090401  0.25913526  1
  O  O395  1  0.12175070  0.25535244  0.75818079  1
  O  O396  1  0.12271858  0.75647006  0.25587573  1
  O  O397  1  0.11936177  0.75506033  0.75382400  1
  O  O398  1  0.61936123  0.25673224  0.25658181  1
  O  O399  1  0.61798669  0.26063160  0.74931201  1
  O  O400  1  0.61922787  0.75509377  0.25397187  1
  O  O401  1  0.62159230  0.75775761  0.75383073  1
  O  O402  1  0.38140249  0.24719861  0.24921455  1
  O  O403  1  0.38547831  0.24944412  0.74456814  1
  O  O404  1  0.38031106  0.74262705  0.24780806  1
  O  O405  1  0.38066019  0.74434025  0.74420654  1
  O  O406  1  0.87539972  0.24234168  0.24567622  1
  O  O407  1  0.88388920  0.24814933  0.74430898  1
  O  O408  1  0.87279614  0.74775146  0.23803716  1
  O  O409  1  0.88163512  0.74499433  0.74213194  1
  O  O410  1  0.38370028  0.49929552  0.49193582  1
  O  O411  1  0.36678807  0.48982391  0.99062270  1
  O  O412  1  0.38315664  0.99244515  0.49514071  1
  O  O413  1  0.38442970  0.98987522  1.00361767  1
  O  O414  1  0.87866044  0.49399415  0.49260299  1
  O  O415  1  0.88282737  0.49417964  1.00120107  1
  O  O416  1  0.88052999  0.99446718  0.49483189  1
  O  O417  1  0.88930159  0.99883021  1.00750965  1
  O  O418  1  0.11587204  0.00117129  0.01056008  1
  O  O419  1  0.11954722  0.00346238  0.50525391  1
  O  O420  1  0.11633012  0.50489480  0.00429937  1
  O  O421  1  0.11895423  0.50612796  0.50053103  1
  O  O422  1  0.61429191  0.00971033  0.00121915  1
  O  O423  1  0.61535022  -0.00149344  0.49789615  1
  O  O424  1  0.62928043  0.50610681  0.01258082  1
  O  O425  1  0.62069056  0.50534798  0.50081754  1
  O  O426  1  0.37231719  0.37031103  0.11798647  1
  O  O427  1  0.37054604  0.36307721  0.62511020  1
  O  O428  1  0.36766785  0.87438253  0.11461771  1
  O  O429  1  0.36998377  0.86614043  0.61711161  1
  O  O430  1  0.87260554  0.36886081  0.11894455  1
  O  O431  1  0.87146728  0.36885889  0.62015242  1
  O  O432  1  0.86700074  0.86553302  0.12344288  1
  O  O433  1  0.87623462  0.86645548  0.61600006  1
  O  O434  1  0.12589399  0.13016032  0.38320630  1
  O  O435  1  0.13521384  0.13857459  0.87690021  1
  O  O436  1  0.12921276  0.62950779  0.37978876  1
  O  O437  1  0.13001094  0.63012997  0.87911697  1
  O  O438  1  0.63241654  0.13748815  0.37568140  1
  O  O439  1  0.63431704  0.12913345  0.88452685  1
  O  O440  1  0.61987056  0.63092219  0.38560891  1
  O  O441  1  0.62856142  0.63104013  0.87861896  1
