# generated using pymatgen
data_V93Zn93O256
_symmetry_space_group_name_H-M   'P 1'
_cell_length_a   17.04387211
_cell_length_b   17.04539608
_cell_length_c   17.04503012
_cell_angle_alpha   89.99095086
_cell_angle_beta   89.97916660
_cell_angle_gamma   89.98768420
_symmetry_Int_Tables_number   1
_chemical_formula_structural   V93Zn93O256
_chemical_formula_sum   'V93 Zn93 O256'
_cell_volume   4951.91399134
_cell_formula_units_Z   1
loop_
 _symmetry_equiv_pos_site_id
 _symmetry_equiv_pos_as_xyz
  1  'x, y, z'
loop_
 _atom_site_type_symbol
 _atom_site_label
 _atom_site_symmetry_multiplicity
 _atom_site_fract_x
 _atom_site_fract_y
 _atom_site_fract_z
 _atom_site_occupancy
  V  V0  1  0.87498358  0.24947608  0.62567767  1
  V  V1  1  0.75105548  0.87649128  0.12465767  1
  V  V2  1  -0.00123218  0.74970886  0.74931052  1
  V  V3  1  0.74948455  0.62572657  0.87556755  1
  V  V4  1  -0.00082512  0.12511339  0.62573683  1
  V  V5  1  0.74959708  0.75025819  0.00036635  1
  V  V6  1  0.49946318  0.87494520  0.37478906  1
  V  V7  1  0.12737118  0.49991329  0.12462566  1
  V  V8  1  0.74926299  0.62427354  0.37475817  1
  V  V9  1  0.62779937  0.12376261  0.49900952  1
  V  V10  1  0.25459655  0.50574264  0.75146598  1
  V  V11  1  0.87417610  0.00003340  0.87537341  1
  V  V12  1  -0.00245267  0.25185843  0.24690718  1
  V  V13  1  -0.00288574  0.49382314  -0.00115973  1
  V  V14  1  0.24878531  0.00028864  0.25033778  1
  V  V15  1  0.00036236  0.25023532  0.74984530  1
  V  V16  1  0.12403893  0.75026226  0.37399233  1
  V  V17  1  0.12479444  0.50013652  0.62559772  1
  V  V18  1  0.74887449  0.87329718  0.62532355  1
  V  V19  1  0.76564460  0.37297943  0.12100068  1
  V  V20  1  0.37523862  0.00042345  0.37597245  1
  V  V21  1  -0.00155796  0.00016288  0.49997082  1
  V  V22  1  0.62294555  0.37489671  0.75226870  1
  V  V23  1  0.62527815  0.12731748  0.00049501  1
  V  V24  1  0.87339824  0.12851898  0.24935970  1
  V  V25  1  0.12408110  0.74932487  0.87524143  1
  V  V26  1  -0.00270309  0.12877310  0.12435955  1
  V  V27  1  0.24994117  0.37573820  0.12500876  1
  V  V28  1  0.62520583  0.00183194  0.12546649  1
  V  V29  1  0.12445192  0.37497679  0.75106752  1
  V  V30  1  -0.00004583  0.87603117  0.37378492  1
  V  V31  1  0.74989446  0.37495730  0.62538685  1
  V  V32  1  0.62361744  0.00002596  0.62417308  1
  V  V33  1  0.49683195  0.88065472  0.87421233  1
  V  V34  1  0.37715170  0.50559529  0.87251655  1
  V  V35  1  0.12833075  0.62598583  -0.00227661  1
  V  V36  1  0.62167965  0.25392683  0.87700047  1
  V  V37  1  0.74959801  0.24820131  0.49796979  1
  V  V38  1  0.87578885  0.62701533  0.24988442  1
  V  V39  1  0.74982947  0.12528344  0.87583137  1
  V  V40  1  0.12502688  0.87484127  0.24941221  1
  V  V41  1  0.50023303  0.49957764  0.49988011  1
  V  V42  1  0.50073386  0.37354485  0.37478285  1
  V  V43  1  0.62521898  0.49796488  0.12427856  1
  V  V44  1  0.49904501  0.25229942  0.75265356  1
  V  V45  1  0.74933429  0.74915733  0.50038810  1
  V  V46  1  0.37412848  0.74581625  0.62724969  1
  V  V47  1  0.87364460  0.74931555  0.62467066  1
  V  V48  1  -0.00087364  0.87576989  0.87592046  1
  V  V49  1  0.25050430  0.37459413  0.62535701  1
  V  V50  1  -0.00039483  0.62517296  0.62485451  1
  V  V51  1  0.12569031  0.24973497  0.37580428  1
  V  V52  1  0.49930473  0.00055676  -0.00153065  1
  V  V53  1  0.25658875  -0.00003210  0.75334042  1
  V  V54  1  0.37582405  0.37342275  0.50037462  1
  V  V55  1  0.37526878  0.24699478  0.62681626  1
  V  V56  1  0.37514495  0.62386840  0.24922796  1
  V  V57  1  0.24955058  0.74940384  0.50074924  1
  V  V58  1  0.25703033  0.12128332  0.87442628  1
  V  V59  1  0.25059503  0.62408386  0.37415852  1
  V  V60  1  0.00002946  0.37676918  0.37639123  1
  V  V61  1  0.87176831  0.00398433  0.37572387  1
  V  V62  1  0.87458049  0.37464573  0.49959467  1
  V  V63  1  0.24976614  0.12531167  0.37512927  1
  V  V64  1  0.49772397  0.62288056  0.62845749  1
  V  V65  1  0.76393020  0.25428553  0.00289990  1
  V  V66  1  0.12451613  0.87484388  0.75041853  1
  V  V67  1  0.12489105  0.12518447  0.49972732  1
  V  V68  1  0.38031063  0.37547661  -0.00621782  1
  V  V69  1  0.62398959  0.74954697  0.37403454  1
  V  V70  1  0.50128560  0.25045421  0.24948316  1
  V  V71  1  0.50186507  0.49818993  -0.00449370  1
  V  V72  1  0.62270785  0.87460681  0.75001292  1
  V  V73  1  0.63020883  0.24537699  0.37431244  1
  V  V74  1  0.74882048  0.00003683  0.75142289  1
  V  V75  1  0.12548576  0.12531558  0.00049734  1
  V  V76  1  0.37488455  0.88000239  -0.00340604  1
  V  V77  1  0.37682539  0.75025769  0.12414907  1
  V  V78  1  0.12415596  -0.00046360  0.62527603  1
  V  V79  1  0.75003643  0.49894560  0.24898767  1
  V  V80  1  0.24944385  0.87377912  0.62493982  1
  V  V81  1  0.00000904  0.62664981  0.12502605  1
  V  V82  1  -0.00026076  0.00081781  -0.00026343  1
  V  V83  1  0.49995081  0.12623873  0.12494913  1
  V  V84  1  0.12589799  0.25105926  0.87422959  1
  V  V85  1  0.37684563  0.25079288  0.12448522  1
  V  V86  1  0.12410948  0.62390044  0.49971180  1
  V  V87  1  0.25102826  0.24999505  -0.00047842  1
  V  V88  1  0.49606492  0.74516316  0.75230804  1
  V  V89  1  0.74965786  0.49982007  0.75085932  1
  V  V90  1  0.25010035  0.87668791  0.12452563  1
  V  V91  1  0.87478655  0.49259444  0.87865736  1
  V  V92  1  0.74905434  0.00531718  0.25337412  1
  Zn  Zn93  1  0.62451195  0.87606402  0.25000599  1
  Zn  Zn94  1  0.87584602  0.75197152  0.12507063  1
  Zn  Zn95  1  0.87472907  0.62397897  0.74918339  1
  Zn  Zn96  1  0.62381094  0.62518221  0.00101378  1
  Zn  Zn97  1  0.62797724  0.37326998  0.25000542  1
  Zn  Zn98  1  0.25411061  0.62914151  0.87008716  1
  Zn  Zn99  1  0.37971220  0.11936744  0.75350775  1
  Zn  Zn100  1  0.25078521  0.24989299  0.49973816  1
  Zn  Zn101  1  0.50213748  0.62499192  0.12513601  1
  Zn  Zn102  1  0.12731916  0.37661927  0.25091286  1
  Zn  Zn103  1  -0.00157333  0.50006757  0.50139986  1
  Zn  Zn104  1  0.62511144  0.50024525  0.62580939  1
  Zn  Zn105  1  0.87427636  0.12501625  0.74972198  1
  Zn  Zn106  1  0.87348334  0.87561630  0.49944252  1
  Zn  Zn107  1  0.62316924  0.74892365  0.87594311  1
  Zn  Zn108  1  0.49898643  0.12162632  0.62601365  1
  Zn  Zn109  1  0.87372152  0.50050627  0.37730670  1
  Zn  Zn110  1  0.37400197  0.12640111  0.24942703  1
  Zn  Zn111  1  0.24966916  0.49797237  0.25115195  1
  Zn  Zn112  1  0.50197543  0.74936422  0.24873556  1
  Zn  Zn113  1  0.87587507  0.87528451  0.00035099  1
  Zn  Zn114  1  0.25090716  0.75208015  -0.00361717  1
  Zn  Zn115  1  0.49906714  0.00086408  0.50165917  1
  Zn  Zn116  1  0.62488507  0.62254191  0.50013635  1
  Zn  Zn117  1  -0.00341586  0.37167285  0.87856462  1
  Zn  Zn118  1  0.37443164  0.49793867  0.37213728  1
  Zn  Zn119  1  0.12448171  -0.00016932  0.12533797  1
  Zn  Zn120  1  0.37464375  0.87451887  0.49991885  1
  Zn  Zn121  1  -0.00089422  0.75222210  0.24825732  1
  Zn  Zn122  1  0.18606559  0.18824287  0.18830453  1
  Zn  Zn123  1  0.18768902  0.18610145  0.68840099  1
  Zn  Zn124  1  0.18958798  0.68881322  0.18614869  1
  Zn  Zn125  1  0.18520485  0.68665109  0.68756307  1
  Zn  Zn126  1  0.68929337  0.19048818  0.18482486  1
  Zn  Zn127  1  0.68744830  0.18603068  0.68614804  1
  Zn  Zn128  1  0.68816555  0.68643148  0.18762424  1
  Zn  Zn129  1  0.68328392  0.68642676  0.68795998  1
  Zn  Zn130  1  0.31377459  0.31233423  0.31173770  1
  Zn  Zn131  1  0.31137975  0.31519120  0.81278547  1
  Zn  Zn132  1  0.31171519  0.81180451  0.31150158  1
  Zn  Zn133  1  0.31235075  0.81199456  0.81246704  1
  Zn  Zn134  1  0.81201872  0.31450961  0.31085174  1
  Zn  Zn135  1  0.81061007  0.31101907  0.81293903  1
  Zn  Zn136  1  0.81163475  0.81490987  0.31269090  1
  Zn  Zn137  1  0.81334450  0.81268133  0.81214586  1
  Zn  Zn138  1  0.18847101  0.43804128  0.43798512  1
  Zn  Zn139  1  0.18933506  0.43789246  0.93668790  1
  Zn  Zn140  1  0.18721643  0.93689721  0.43784971  1
  Zn  Zn141  1  0.18642459  0.93864091  0.93765879  1
  Zn  Zn142  1  0.68627220  0.43550708  0.43650109  1
  Zn  Zn143  1  0.68986262  0.43493774  0.93932046  1
  Zn  Zn144  1  0.68719746  0.93617997  0.43821469  1
  Zn  Zn145  1  0.68450062  0.93673108  0.93720385  1
  Zn  Zn146  1  0.31290420  0.06233594  0.06316905  1
  Zn  Zn147  1  0.31101857  0.06249315  0.56244249  1
  Zn  Zn148  1  0.31303970  0.56196966  0.06180768  1
  Zn  Zn149  1  0.31310089  0.56181092  0.56227082  1
  Zn  Zn150  1  0.81358687  0.06540907  0.06231346  1
  Zn  Zn151  1  0.80995054  0.06326579  0.56352114  1
  Zn  Zn152  1  0.81298094  0.56207761  0.06292100  1
  Zn  Zn153  1  0.81280598  0.56159960  0.56183152  1
  Zn  Zn154  1  0.43916432  0.43666594  0.18577634  1
  Zn  Zn155  1  0.43718639  0.43520326  0.68843697  1
  Zn  Zn156  1  0.43724906  0.93789020  0.18890981  1
  Zn  Zn157  1  0.43745870  0.93340258  0.68507907  1
  Zn  Zn158  1  0.94038567  0.44219860  0.18907675  1
  Zn  Zn159  1  0.93679573  0.43792088  0.68984471  1
  Zn  Zn160  1  0.93763769  0.94052035  0.18714641  1
  Zn  Zn161  1  0.93473827  0.93656926  0.68851619  1
  Zn  Zn162  1  0.06209171  0.06208201  0.31243328  1
  Zn  Zn163  1  0.06532754  0.06336070  0.81271050  1
  Zn  Zn164  1  0.06353429  0.56233561  0.31104666  1
  Zn  Zn165  1  0.06217702  0.56199604  0.81222791  1
  Zn  Zn166  1  0.56132071  0.06473762  0.31249274  1
  Zn  Zn167  1  0.56301655  0.06451794  0.81220571  1
  Zn  Zn168  1  0.56173334  0.56200651  0.31073063  1
  Zn  Zn169  1  0.56299797  0.56189067  0.81452814  1
  Zn  Zn170  1  0.44091552  0.18615501  0.43869848  1
  Zn  Zn171  1  0.43890381  0.18821298  0.93768161  1
  Zn  Zn172  1  0.43667625  0.68650605  0.43868319  1
  Zn  Zn173  1  0.43874095  0.68653677  0.93970011  1
  Zn  Zn174  1  0.93734669  0.18804601  0.43620667  1
  Zn  Zn175  1  0.93887671  0.18507539  0.93405015  1
  Zn  Zn176  1  0.93704656  0.68858311  0.43752913  1
  Zn  Zn177  1  0.93573750  0.68510098  0.93795013  1
  Zn  Zn178  1  0.06391163  0.31246793  0.06357552  1
  Zn  Zn179  1  0.06313401  0.31209085  0.56264485  1
  Zn  Zn180  1  0.06187561  0.81227803  0.06329202  1
  Zn  Zn181  1  0.06098418  0.81280341  0.56063049  1
  Zn  Zn182  1  0.56622659  0.31538839  0.06323667  1
  Zn  Zn183  1  0.56235692  0.31103178  0.56431830  1
  Zn  Zn184  1  0.56409131  0.81353014  0.06226508  1
  Zn  Zn185  1  0.56179615  0.81236986  0.56049632  1
  O  O186  1  0.11482244  0.12425358  0.11945541  1
  O  O187  1  0.11948407  0.11926728  0.61992005  1
  O  O188  1  0.12104216  0.62144957  0.11657899  1
  O  O189  1  0.11945294  0.62027091  0.61893487  1
  O  O190  1  0.61953122  0.12110117  0.11911610  1
  O  O191  1  0.62327948  0.11881818  0.61712282  1
  O  O192  1  0.62635178  0.61092489  0.12308412  1
  O  O193  1  0.61094884  0.62278453  0.62162911  1
  O  O194  1  0.38278609  0.37452022  0.38228045  1
  O  O195  1  0.36949535  0.38429028  0.88811797  1
  O  O196  1  0.38138927  0.88231246  0.37535373  1
  O  O197  1  0.38509368  0.86850911  0.88517285  1
  O  O198  1  0.88469600  0.37435914  0.38042124  1
  O  O199  1  0.87451860  0.38868583  0.87211972  1
  O  O200  1  0.88009202  0.88751975  0.37454572  1
  O  O201  1  0.88148558  0.88211777  0.87638488  1
  O  O202  1  0.25715788  0.00403184  0.37077899  1
  O  O203  1  0.24312468  0.00940599  0.86473052  1
  O  O204  1  0.25399989  0.50782594  0.37295036  1
  O  O205  1  0.25777763  0.50172637  0.86723947  1
  O  O206  1  0.75835413  -0.00577093  0.36369570  1
  O  O207  1  0.75269126  0.00502089  0.87153496  1
  O  O208  1  0.74901180  0.50537275  0.36784039  1
  O  O209  1  0.75622480  0.50638713  0.87309300  1
  O  O210  1  0.24445385  0.49288734  0.12351163  1
  O  O211  1  0.24699227  0.49472262  0.63253552  1
  O  O212  1  0.24891511  0.99456705  0.13195511  1
  O  O213  1  0.24338130  0.99452435  0.63211567  1
  O  O214  1  0.74378279  0.49283627  0.12700240  1
  O  O215  1  0.74761016  0.49367728  0.63217009  1
  O  O216  1  0.74568723  0.99462421  0.13118711  1
  O  O217  1  0.74390609  0.99340797  0.63133376  1
  O  O218  1  -0.00085473  0.36671851  0.25756648  1
  O  O219  1  0.00709218  0.36803337  0.75207675  1
  O  O220  1  0.00583152  0.87562837  0.25539788  1
  O  O221  1  0.00578644  0.87030054  0.75539110  1
  O  O222  1  0.50302826  0.36839225  0.25570485  1
  O  O223  1  0.51138146  0.36370869  0.74509620  1
  O  O224  1  0.50218513  0.87292055  0.26203646  1
  O  O225  1  0.50203554  0.86726818  0.75747028  1
  O  O226  1  0.49790339  0.13182737  0.24200634  1
  O  O227  1  0.49791745  0.13667317  0.74868519  1
  O  O228  1  0.48853728  0.62784589  0.24701196  1
  O  O229  1  0.50492446  0.63429406  0.74210898  1
  O  O230  1  0.99435131  0.13169907  0.24362817  1
  O  O231  1  1.00012841  0.13145370  0.74332583  1
  O  O232  1  0.99103111  0.62581557  0.24481283  1
  O  O233  1  0.99991562  0.63240276  0.74304867  1
  O  O234  1  0.37230320  0.25819642  0.00350762  1
  O  O235  1  0.37614035  0.25417086  0.51110910  1
  O  O236  1  0.37514811  0.75995116  0.00797932  1
  O  O237  1  0.36831465  0.75045035  0.51012919  1
  O  O238  1  0.86247099  0.24571517  -0.00548652  1
  O  O239  1  0.86952471  0.25396285  0.50478133  1
  O  O240  1  0.86187193  0.75189784  0.00202952  1
  O  O241  1  0.86712014  0.75231877  0.50602619  1
  O  O242  1  0.12633810  0.24270677  0.49416038  1
  O  O243  1  0.13165235  0.24474242  0.99495968  1
  O  O244  1  0.13020583  0.74398325  0.49473150  1
  O  O245  1  0.12511879  0.74131859  0.99422542  1
  O  O246  1  0.62872291  0.24366491  0.49405769  1
  O  O247  1  0.62754519  0.24661210  0.99085245  1
  O  O248  1  0.62960964  0.74835588  0.48893910  1
  O  O249  1  0.63684009  0.74802824  0.99864770  1
  O  O250  1  0.49733498  0.24612636  0.12862018  1
  O  O251  1  0.49134962  0.24857738  0.63467916  1
  O  O252  1  0.48984366  0.74980337  0.12589512  1
  O  O253  1  0.49313613  0.74384545  0.63093130  1
  O  O254  1  1.00481649  0.24156077  0.13525603  1
  O  O255  1  0.99487312  0.24461811  0.62991541  1
  O  O256  1  0.99562729  0.74280746  0.12715504  1
  O  O257  1  0.99479101  0.74571776  0.62952658  1
  O  O258  1  0.00508171  0.25758068  0.36764022  1
  O  O259  1  0.00725664  0.25118341  0.86941478  1
  O  O260  1  0.00629183  0.75772592  0.37345978  1
  O  O261  1  0.00359212  0.75512937  0.86999565  1
  O  O262  1  0.50846986  0.25419042  0.37000303  1
  O  O263  1  0.51145442  0.24552019  0.86660792  1
  O  O264  1  0.50716875  0.75710895  0.37542784  1
  O  O265  1  0.49981388  0.75634912  0.86724574  1
  O  O266  1  0.24227158  0.12616144  0.49336988  1
  O  O267  1  0.24635794  0.12905794  0.99320532  1
  O  O268  1  0.24453054  0.63008422  0.49550475  1
  O  O269  1  0.23712166  0.62604444  0.99874351  1
  O  O270  1  0.73694526  0.13236682  0.50494835  1
  O  O271  1  0.74364639  0.13393528  0.99723767  1
  O  O272  1  0.74702611  0.63035290  0.49329895  1
  O  O273  1  0.74948617  0.63295192  0.99281610  1
  O  O274  1  0.25868533  0.36942200  0.00529398  1
  O  O275  1  0.25733606  0.37308946  0.50743291  1
  O  O276  1  0.25947228  0.87623881  0.00385917  1
  O  O277  1  0.24914132  0.86726526  0.50765775  1
  O  O278  1  0.74698329  0.36563779  0.00845762  1
  O  O279  1  0.75435302  0.36871823  0.50574293  1
  O  O280  1  0.74965678  0.86893737  0.00800356  1
  O  O281  1  0.75032536  0.86770231  0.50742909  1
  O  O282  1  0.12741015  0.49825836  0.23961171  1
  O  O283  1  0.13329575  0.49448831  0.74558532  1
  O  O284  1  0.13126824  0.99313262  0.24980139  1
  O  O285  1  0.13319312  0.99413739  0.74424318  1
  O  O286  1  0.63100684  0.49896059  0.24064073  1
  O  O287  1  0.62898421  0.48905819  0.75120998  1
  O  O288  1  0.63482079  1.00263093  0.24542009  1
  O  O289  1  0.62917852  0.99414690  0.74506671  1
  O  O290  1  0.36871673  0.00153369  0.26051780  1
  O  O291  1  0.36042291  -0.00091279  0.74345684  1
  O  O292  1  0.37391659  0.51156361  0.24858462  1
  O  O293  1  0.36688896  0.48975897  0.76119421  1
  O  O294  1  0.86874813  0.00851808  0.25662018  1
  O  O295  1  0.86648152  0.00109119  0.75686136  1
  O  O296  1  0.86956211  0.51166312  0.25269859  1
  O  O297  1  0.86796595  0.50253708  0.75971031  1
  O  O298  1  0.11617152  0.36922973  0.37470358  1
  O  O299  1  0.12536452  0.36805943  0.86898441  1
  O  O300  1  0.12003540  0.87016940  0.36962075  1
  O  O301  1  0.11882794  0.86962703  0.86997146  1
  O  O302  1  0.61828282  0.36309639  0.37422680  1
  O  O303  1  0.63228483  0.36416444  0.86414773  1
  O  O304  1  0.61740149  0.86731163  0.37352236  1
  O  O305  1  0.61347943  0.87177381  0.86962177  1
  O  O306  1  0.38228692  0.13292587  0.12376719  1
  O  O307  1  0.37463678  0.13598895  0.62856178  1
  O  O308  1  0.37389703  0.63447113  0.13070373  1
  O  O309  1  0.38518822  0.63479075  0.62140529  1
  O  O310  1  0.88700037  0.12045322  0.13614954  1
  O  O311  1  0.88106561  0.13130741  0.62627605  1
  O  O312  1  0.87979080  0.62551679  0.13485987  1
  O  O313  1  0.88100932  0.63133507  0.62652512  1
  O  O314  1  0.25569292  0.25404063  0.11839576  1
  O  O315  1  0.25972650  0.25541297  0.62663747  1
  O  O316  1  0.26115972  0.75763300  0.12135751  1
  O  O317  1  0.25656942  0.75262804  0.62282870  1
  O  O318  1  0.74419125  0.26092965  0.11447931  1
  O  O319  1  0.75533483  0.25539040  0.61966332  1
  O  O320  1  0.74921103  0.75964646  0.11853264  1
  O  O321  1  0.75264301  0.75344149  0.62103524  1
  O  O322  1  0.24408444  0.24378212  0.37601245  1
  O  O323  1  0.24554700  0.24234133  0.87954635  1
  O  O324  1  0.24419231  0.74479211  0.38097558  1
  O  O325  1  0.24213277  0.74709867  0.87563392  1
  O  O326  1  0.73809804  0.25650485  0.38076424  1
  O  O327  1  0.74112140  0.24569602  0.88228821  1
  O  O328  1  0.74200965  0.74650811  0.37933272  1
  O  O329  1  0.74924086  0.74302108  0.88199699  1
  O  O330  1  0.00455631  0.12266726  0.00751307  1
  O  O331  1  0.00490492  0.11964143  0.50540986  1
  O  O332  1  0.00959391  0.61792377  0.00407239  1
  O  O333  1  0.00649174  0.62361487  0.50575973  1
  O  O334  1  0.50538170  0.12029361  0.00433098  1
  O  O335  1  0.51341062  0.12291446  0.50418708  1
  O  O336  1  0.50293372  0.61311192  0.00397838  1
  O  O337  1  0.49996900  0.61561489  0.50810749  1
  O  O338  1  0.49589231  0.38124884  0.49701512  1
  O  O339  1  0.49022471  0.38464881  1.00515666  1
  O  O340  1  0.49766485  0.87740575  0.48689661  1
  O  O341  1  0.49485301  0.87960715  0.99268448  1
  O  O342  1  0.99436729  0.37341823  0.49078621  1
  O  O343  1  1.00683437  0.39005334  0.99883762  1
  O  O344  1  0.99742711  0.88316024  0.49314961  1
  O  O345  1  0.99876105  0.88203661  0.99411070  1
  O  O346  1  0.49915183  0.49395967  0.38421730  1
  O  O347  1  0.49236722  0.50325683  0.88520953  1
  O  O348  1  0.49172353  0.99294509  0.37434735  1
  O  O349  1  0.50463639  0.98862277  0.88010609  1
  O  O350  1  0.99983103  0.48673630  0.37538685  1
  O  O351  1  0.99179661  0.49984513  0.88156144  1
  O  O352  1  0.99175482  0.99592167  0.37990874  1
  O  O353  1  0.99577066  0.99605778  0.87934489  1
  O  O354  1  0.00200462  0.01112292  0.11950367  1
  O  O355  1  0.00413314  0.00427603  0.62055968  1
  O  O356  1  0.00631925  0.50644370  0.11676087  1
  O  O357  1  0.00691697  0.50621117  0.62585500  1
  O  O358  1  0.50582847  0.00507529  0.12010931  1
  O  O359  1  0.50679937  0.00002833  0.62276516  1
  O  O360  1  0.50891992  0.49998746  0.11569680  1
  O  O361  1  0.49845321  0.50710279  0.61963149  1
  O  O362  1  0.24918838  0.37621521  0.24050359  1
  O  O363  1  0.24416605  0.38384440  0.74479360  1
  O  O364  1  0.24509925  0.88069492  0.24483863  1
  O  O365  1  0.24451392  0.88153342  0.74574654  1
  O  O366  1  0.74890781  0.38047719  0.24019811  1
  O  O367  1  0.74170121  0.37883560  0.74510620  1
  O  O368  1  0.74934573  0.88662104  0.24104647  1
  O  O369  1  0.74214869  0.87936016  0.74592282  1
  O  O370  1  0.25103941  0.11925063  0.25687847  1
  O  O371  1  0.25043551  0.11659388  0.75793621  1
  O  O372  1  0.25975407  0.62496852  0.25491354  1
  O  O373  1  0.24618342  0.60966545  0.74898713  1
  O  O374  1  0.76089377  0.11552398  0.24028217  1
  O  O375  1  0.74913735  0.11839668  0.75754801  1
  O  O376  1  0.75781033  0.61960345  0.25431252  1
  O  O377  1  0.74821991  0.61937745  0.75930726  1
  O  O378  1  0.37047735  0.11626233  0.37460424  1
  O  O379  1  0.36122795  0.12993985  0.87427988  1
  O  O380  1  0.36968453  0.62595667  0.36512195  1
  O  O381  1  0.37158055  0.61081375  0.88250947  1
  O  O382  1  0.88185122  0.11341749  0.36384351  1
  O  O383  1  0.86741202  0.11782881  0.87217233  1
  O  O384  1  0.86896918  0.62413314  0.36662447  1
  O  O385  1  0.86369944  0.61674652  0.87256280  1
  O  O386  1  0.13294004  0.38145673  0.12525461  1
  O  O387  1  0.13059951  0.37992211  0.63027538  1
  O  O388  1  0.13210762  0.87637775  0.13052690  1
  O  O389  1  0.12953435  0.87932664  0.63086392  1
  O  O390  1  0.63253729  0.38693175  0.12694041  1
  O  O391  1  0.63128343  0.37353452  0.63624527  1
  O  O392  1  0.63443245  0.88252832  0.12694204  1
  O  O393  1  0.62871958  0.87925727  0.63007644  1
  O  O394  1  0.11300449  0.25111854  0.25664136  1
  O  O395  1  0.12054645  0.25511387  0.75417573  1
  O  O396  1  0.12465694  0.75658456  0.25649462  1
  O  O397  1  0.11908999  0.75579679  0.75456585  1
  O  O398  1  0.62096529  0.24855768  0.25900410  1
  O  O399  1  0.61968891  0.25517683  0.75698401  1
  O  O400  1  0.62472454  0.75192774  0.26166739  1
  O  O401  1  0.61184036  0.75666127  0.75018336  1
  O  O402  1  0.38308309  0.24882302  0.24195868  1
  O  O403  1  0.38353220  0.25325015  0.74403363  1
  O  O404  1  0.37538143  0.74273429  0.24024720  1
  O  O405  1  0.38529578  0.75484713  0.74000766  1
  O  O406  1  0.88586580  0.23901890  0.25928537  1
  O  O407  1  0.88091192  0.24892968  0.74392139  1
  O  O408  1  0.87402016  0.73859798  0.24904876  1
  O  O409  1  0.88120270  0.74816191  0.74313902  1
  O  O410  1  0.38611255  0.49337416  0.50019955  1
  O  O411  1  0.38214931  0.49342113  0.99442265  1
  O  O412  1  0.37515296  0.99770510  0.48817014  1
  O  O413  1  0.38265869  0.98706619  1.00671300  1
  O  O414  1  0.87801561  0.49067032  0.49723401  1
  O  O415  1  0.88667570  0.50909397  0.99064545  1
  O  O416  1  0.87791387  1.00151080  0.49057405  1
  O  O417  1  0.88146827  1.00028166  0.99322293  1
  O  O418  1  0.11774784  0.00801821  0.00113540  1
  O  O419  1  0.11879425  0.00502994  0.50556359  1
  O  O420  1  0.11843897  0.50853851  0.00289532  1
  O  O421  1  0.12366959  0.50616200  0.50817074  1
  O  O422  1  0.61974229  0.00722841  0.00560237  1
  O  O423  1  0.62594949  0.00850951  0.50424619  1
  O  O424  1  0.61710222  0.49770629  0.00552251  1
  O  O425  1  0.61166798  0.49851356  0.50339718  1
  O  O426  1  0.37010395  0.37036376  0.11458774  1
  O  O427  1  0.37081004  0.36543934  0.62105418  1
  O  O428  1  0.37181019  0.86823261  0.11790635  1
  O  O429  1  0.36882464  0.86290436  0.62198041  1
  O  O430  1  0.86448097  0.38140666  0.12799162  1
  O  O431  1  0.86984569  0.36888604  0.62015532  1
  O  O432  1  0.86263234  0.87599616  0.12367683  1
  O  O433  1  0.86670731  0.86821890  0.62360874  1
  O  O434  1  0.12901014  0.12931655  0.38040063  1
  O  O435  1  0.13461917  0.13150469  0.88067323  1
  O  O436  1  0.12982868  0.63016083  0.37972328  1
  O  O437  1  0.12482640  0.63021709  0.88346377  1
  O  O438  1  0.61965477  0.13584119  0.38444970  1
  O  O439  1  0.63045871  0.13402626  0.88078725  1
  O  O440  1  0.62945483  0.63423443  0.37517277  1
  O  O441  1  0.63781411  0.62594391  0.87802561  1
