# generated using pymatgen
data_V93Zn93O256
_symmetry_space_group_name_H-M   'P 1'
_cell_length_a   17.05737052
_cell_length_b   17.05717671
_cell_length_c   17.06327694
_cell_angle_alpha   89.92547118
_cell_angle_beta   90.13547554
_cell_angle_gamma   89.95248272
_symmetry_Int_Tables_number   1
_chemical_formula_structural   V93Zn93O256
_chemical_formula_sum   'V93 Zn93 O256'
_cell_volume   4964.55057888
_cell_formula_units_Z   1
loop_
 _symmetry_equiv_pos_site_id
 _symmetry_equiv_pos_as_xyz
  1  'x, y, z'
loop_
 _atom_site_type_symbol
 _atom_site_label
 _atom_site_symmetry_multiplicity
 _atom_site_fract_x
 _atom_site_fract_y
 _atom_site_fract_z
 _atom_site_occupancy
  V  V0  1  0.74926203  0.12361585  0.37659032  1
  V  V1  1  0.00513539  0.61928175  0.12715520  1
  V  V2  1  0.25000780  0.74919622  0.50015807  1
  V  V3  1  0.62609075  0.00351649  0.12131377  1
  V  V4  1  0.37452544  0.00232631  0.87347288  1
  V  V5  1  0.62654996  0.75075865  0.37600092  1
  V  V6  1  0.49975911  0.50178211  -0.00003057  1
  V  V7  1  0.24967384  0.25106373  0.00008170  1
  V  V8  1  0.63465558  0.38076210  0.25006090  1
  V  V9  1  0.37391199  0.25437433  0.12393674  1
  V  V10  1  0.50181331  0.37667938  0.37218478  1
  V  V11  1  0.62472718  0.50193978  0.62352511  1
  V  V12  1  0.37505747  0.36832239  0.50426459  1
  V  V13  1  0.00142831  0.62162270  0.62558144  1
  V  V14  1  0.75094666  0.62106589  0.36971435  1
  V  V15  1  0.00235747  0.37323650  0.37672569  1
  V  V16  1  0.12732398  0.62026842  0.50545881  1
  V  V17  1  0.37550509  0.75068121  0.62404004  1
  V  V18  1  0.62428170  0.12580811  0.49918344  1
  V  V19  1  -0.00062049  0.87337030  0.87560764  1
  V  V20  1  0.49583556  0.88064311  0.37373152  1
  V  V21  1  0.50194257  0.00419440  -0.00186485  1
  V  V22  1  0.00143729  0.24688408  0.25098226  1
  V  V23  1  0.25076292  0.62578997  0.37669719  1
  V  V24  1  0.62329561  0.00075370  0.62428668  1
  V  V25  1  0.00006439  -0.00199740  0.50122930  1
  V  V26  1  0.50132538  0.62604189  0.62272835  1
  V  V27  1  0.12387148  -0.00018568  0.62545761  1
  V  V28  1  0.87573481  0.87404935  0.00000798  1
  V  V29  1  0.63235663  0.50080409  0.12820576  1
  V  V30  1  0.50005504  0.75216553  0.74924297  1
  V  V31  1  0.00173578  0.74885873  0.25146848  1
  V  V32  1  0.50070611  0.25259275  0.24772965  1
  V  V33  1  0.37335184  0.50238289  0.87288028  1
  V  V34  1  0.74973392  0.49907213  0.74974922  1
  V  V35  1  0.00178467  0.49827521  0.00389148  1
  V  V36  1  0.24983021  0.87471976  0.62449485  1
  V  V37  1  0.00649135  0.49795414  0.50493434  1
  V  V38  1  0.00009322  0.87215923  0.37505123  1
  V  V39  1  0.74919493  0.87466627  0.12477414  1
  V  V40  1  0.37778069  0.49980241  0.37522987  1
  V  V41  1  0.37608036  0.75002828  0.12437621  1
  V  V42  1  0.12454350  0.12519754  0.50128433  1
  V  V43  1  0.37341295  0.37669316  -0.00076054  1
  V  V44  1  0.87572626  0.12395744  0.25076998  1
  V  V45  1  0.49898262  0.37618969  0.87349838  1
  V  V46  1  0.87052173  0.37004047  0.00166262  1
  V  V47  1  0.24993654  0.74959177  -0.00058551  1
  V  V48  1  0.24994521  0.12464868  0.87489918  1
  V  V49  1  0.12374755  0.87402091  0.75057165  1
  V  V50  1  0.12427551  0.24943227  0.87571230  1
  V  V51  1  0.37394177  0.62599508  0.74922299  1
  V  V52  1  0.87588623  0.74829930  0.12548881  1
  V  V53  1  0.74868832  0.00070002  0.75000660  1
  V  V54  1  0.13153575  0.24718637  0.37737476  1
  V  V55  1  0.12382007  0.12462895  0.00099057  1
  V  V56  1  0.74976801  0.62489110  0.87516373  1
  V  V57  1  0.87506838  0.62359362  0.74965016  1
  V  V58  1  0.87470013  0.37231484  0.50208845  1
  V  V59  1  0.62663224  0.25059441  0.37429834  1
  V  V60  1  0.49193308  0.25208616  0.74606518  1
  V  V61  1  0.50427188  0.12845607  0.12029459  1
  V  V62  1  0.00132186  -0.00072570  0.00231341  1
  V  V63  1  0.24748370  0.87891560  0.12627744  1
  V  V64  1  -0.00136648  0.24797909  0.74948811  1
  V  V65  1  0.37461745  0.87655955  -0.00080951  1
  V  V66  1  0.62517523  0.87583255  0.24943050  1
  V  V67  1  0.74215871  0.12774299  0.88162276  1
  V  V68  1  0.24414599  0.49577387  0.24500861  1
  V  V69  1  0.37219031  0.11894468  0.25405764  1
  V  V70  1  0.62465659  0.62514138  0.00096630  1
  V  V71  1  0.87393362  0.49905684  0.87653700  1
  V  V72  1  0.24973376  0.00062856  0.75080047  1
  V  V73  1  0.49235737  0.13014908  0.62444303  1
  V  V74  1  0.62432980  0.75138968  0.87461320  1
  V  V75  1  0.87239611  0.49912516  0.36941261  1
  V  V76  1  0.87442801  0.87307208  0.50071736  1
  V  V77  1  0.37724717  0.62588149  0.24807015  1
  V  V78  1  0.62333009  0.37452243  0.75077198  1
  V  V79  1  0.37367170  0.87894840  0.49591721  1
  V  V80  1  -0.00178692  0.37414918  0.87753105  1
  V  V81  1  0.87441838  -0.00188256  0.37604078  1
  V  V82  1  0.87334392  0.12407797  0.75043321  1
  V  V83  1  0.25001488  0.62598582  0.87423495  1
  V  V84  1  0.12398358  0.38292789  0.74470274  1
  V  V85  1  0.62408584  0.87510123  0.74912072  1
  V  V86  1  0.74946650  0.75011736  0.00039454  1
  V  V87  1  0.87430574  0.74889954  0.62466987  1
  V  V88  1  0.12575510  0.61984228  0.00267865  1
  V  V89  1  0.49633662  0.00074268  0.49714818  1
  V  V90  1  0.74979824  0.87419077  0.62417535  1
  V  V91  1  -0.00050443  0.74936059  0.75088098  1
  V  V92  1  0.74959711  0.37438165  0.62537652  1
  Zn  Zn93  1  0.12584485  0.87789164  0.25230167  1
  Zn  Zn94  1  0.87325754  0.24838286  0.12439612  1
  Zn  Zn95  1  0.87163426  0.24775244  0.62520149  1
  Zn  Zn96  1  0.75086504  -0.00057729  0.24938462  1
  Zn  Zn97  1  0.25973957  0.24350067  0.51222959  1
  Zn  Zn98  1  0.50178704  0.50185592  0.49958180  1
  Zn  Zn99  1  0.74851277  0.24872618  0.50296665  1
  Zn  Zn100  1  0.75110687  0.74719181  0.50019872  1
  Zn  Zn101  1  0.24799868  0.37637258  0.62316351  1
  Zn  Zn102  1  0.24327462  0.50595197  0.74189938  1
  Zn  Zn103  1  0.61838866  0.24696978  0.88102507  1
  Zn  Zn104  1  0.73841966  0.24534743  0.00885091  1
  Zn  Zn105  1  0.12717193  0.00345919  0.12929121  1
  Zn  Zn106  1  0.50255089  0.62779085  0.12466920  1
  Zn  Zn107  1  0.25992179  0.11467301  0.38398632  1
  Zn  Zn108  1  0.12124579  0.37836741  0.24509154  1
  Zn  Zn109  1  0.12476456  0.74944996  0.87501059  1
  Zn  Zn110  1  0.62579622  0.62375345  0.49835248  1
  Zn  Zn111  1  0.23925075  0.38105455  0.11682302  1
  Zn  Zn112  1  0.87294391  -0.00091294  0.87603970  1
  Zn  Zn113  1  0.12568503  0.75042212  0.37614496  1
  Zn  Zn114  1  0.36867776  0.13177617  0.74413913  1
  Zn  Zn115  1  0.75336289  0.37444255  0.12871614  1
  Zn  Zn116  1  0.87329350  0.61816430  0.24680103  1
  Zn  Zn117  1  0.24923322  -0.00451223  0.25946972  1
  Zn  Zn118  1  0.00055322  0.12416858  0.12518750  1
  Zn  Zn119  1  0.49982800  0.75214906  0.24867529  1
  Zn  Zn120  1  -0.00227032  0.12314223  0.62620906  1
  Zn  Zn121  1  0.49980752  0.87749318  0.87362489  1
  Zn  Zn122  1  0.18738019  0.18972020  0.18458733  1
  Zn  Zn123  1  0.18872239  0.19273500  0.68530838  1
  Zn  Zn124  1  0.18882411  0.68825651  0.18720489  1
  Zn  Zn125  1  0.18654778  0.68841503  0.68636271  1
  Zn  Zn126  1  0.68985086  0.19055804  0.18858785  1
  Zn  Zn127  1  0.68258524  0.19024282  0.68939671  1
  Zn  Zn128  1  0.68786912  0.68723473  0.18990485  1
  Zn  Zn129  1  0.68725956  0.68744782  0.68729444  1
  Zn  Zn130  1  0.31388161  0.30991577  0.31435644  1
  Zn  Zn131  1  0.31032838  0.31373831  0.81322101  1
  Zn  Zn132  1  0.31237315  0.81145180  0.31205074  1
  Zn  Zn133  1  0.31280932  0.81356789  0.81355276  1
  Zn  Zn134  1  0.81369167  0.30982794  0.31726078  1
  Zn  Zn135  1  0.81106859  0.31056019  0.81397412  1
  Zn  Zn136  1  0.81272079  0.80969156  0.31083834  1
  Zn  Zn137  1  0.81262531  0.81256855  0.81234397  1
  Zn  Zn138  1  0.19074896  0.43617398  0.43285891  1
  Zn  Zn139  1  0.18715227  0.43878982  0.93151488  1
  Zn  Zn140  1  0.18715911  0.93839681  0.43399803  1
  Zn  Zn141  1  0.18604466  0.93720378  0.93762049  1
  Zn  Zn142  1  0.68882852  0.43875624  0.43854071  1
  Zn  Zn143  1  0.68519543  0.43653427  0.93840323  1
  Zn  Zn144  1  0.68671581  0.93811922  0.43828840  1
  Zn  Zn145  1  0.68741067  0.93912343  0.93645594  1
  Zn  Zn146  1  0.31500263  0.06462287  0.06401054  1
  Zn  Zn147  1  0.31164896  0.05898566  0.56165701  1
  Zn  Zn148  1  0.31303483  0.56287930  0.06265429  1
  Zn  Zn149  1  0.31172571  0.55656988  0.56613114  1
  Zn  Zn150  1  0.81546301  0.06096836  0.06367571  1
  Zn  Zn151  1  0.81151839  0.06100371  0.56308536  1
  Zn  Zn152  1  0.81463781  0.56157405  0.06261754  1
  Zn  Zn153  1  0.81233803  0.56153537  0.55787953  1
  Zn  Zn154  1  0.44042853  0.43879077  0.18416371  1
  Zn  Zn155  1  0.43740832  0.44182808  0.68673913  1
  Zn  Zn156  1  0.43837821  0.93745977  0.18531453  1
  Zn  Zn157  1  0.43620765  0.93998228  0.68525137  1
  Zn  Zn158  1  0.94039579  0.43325311  0.18684633  1
  Zn  Zn159  1  0.93718819  0.43641068  0.68751679  1
  Zn  Zn160  1  0.93812837  0.93589302  0.18791692  1
  Zn  Zn161  1  0.93649380  0.93722983  0.68774044  1
  Zn  Zn162  1  0.06591450  0.05916899  0.31465604  1
  Zn  Zn163  1  0.06210762  0.06043670  0.81551803  1
  Zn  Zn164  1  0.06193506  0.56397667  0.31861623  1
  Zn  Zn165  1  0.06002961  0.56374026  0.81851372  1
  Zn  Zn166  1  0.56223881  0.06323386  0.30844037  1
  Zn  Zn167  1  0.56061656  0.06459381  0.80886798  1
  Zn  Zn168  1  0.56368940  0.56385418  0.31104583  1
  Zn  Zn169  1  0.56164146  0.56330218  0.81115530  1
  Zn  Zn170  1  0.44355528  0.18900838  0.43438333  1
  Zn  Zn171  1  0.43570091  0.18965500  0.93505047  1
  Zn  Zn172  1  0.43969668  0.69072987  0.43751383  1
  Zn  Zn173  1  0.43823973  0.68875825  0.93641991  1
  Zn  Zn174  1  0.93994946  0.18567612  0.43630830  1
  Zn  Zn175  1  0.93449095  0.18556971  0.93540325  1
  Zn  Zn176  1  0.93684077  0.68496154  0.43793283  1
  Zn  Zn177  1  0.93788206  0.68683379  0.93846071  1
  Zn  Zn178  1  0.06251399  0.31236188  0.06644991  1
  Zn  Zn179  1  0.06206888  0.30851965  0.56493953  1
  Zn  Zn180  1  0.06452708  0.80903239  0.06316083  1
  Zn  Zn181  1  0.06277596  0.80920883  0.56278402  1
  Zn  Zn182  1  0.56425429  0.31614544  0.06107717  1
  Zn  Zn183  1  0.56088052  0.31410286  0.56138202  1
  Zn  Zn184  1  0.56080335  0.81478614  0.06210880  1
  Zn  Zn185  1  0.56222693  0.81298278  0.55977651  1
  O  O186  1  0.12129034  0.12416766  0.11591305  1
  O  O187  1  0.12238042  0.11912385  0.61640087  1
  O  O188  1  0.11590988  0.63024271  0.11498135  1
  O  O189  1  0.11919149  0.62730868  0.61305345  1
  O  O190  1  0.61363929  0.11710136  0.13319588  1
  O  O191  1  0.61596017  0.11990419  0.61961346  1
  O  O192  1  0.62492478  0.61847304  0.12038932  1
  O  O193  1  0.61977464  0.62005609  0.62395763  1
  O  O194  1  0.38199782  0.38345709  0.37786447  1
  O  O195  1  0.37931514  0.38257141  0.87917084  1
  O  O196  1  0.38879852  0.86647306  0.37973783  1
  O  O197  1  0.37677832  0.88384081  0.88129779  1
  O  O198  1  0.88043272  0.37996891  0.38413081  1
  O  O199  1  0.87894463  0.37959377  0.88160157  1
  O  O200  1  0.87951861  0.87859535  0.38050029  1
  O  O201  1  0.88020868  0.87586361  0.88212755  1
  O  O202  1  0.25232974  0.00296296  0.37235211  1
  O  O203  1  0.25406628  0.00510934  0.87030611  1
  O  O204  1  0.26138999  0.50624080  0.36645059  1
  O  O205  1  0.25614690  0.50880932  0.86917096  1
  O  O206  1  0.75608977  0.00527624  0.37292672  1
  O  O207  1  0.75093961  0.01029402  0.86910889  1
  O  O208  1  0.76161360  0.50788069  0.38120186  1
  O  O209  1  0.75430997  0.50583604  0.86949019  1
  O  O210  1  0.25518868  0.50081022  0.14185175  1
  O  O211  1  0.25389676  0.48837175  0.63132729  1
  O  O212  1  0.25206155  0.98830283  0.12537488  1
  O  O213  1  0.24341368  0.99356851  0.63098221  1
  O  O214  1  0.73652793  0.49823290  0.11999651  1
  O  O215  1  0.74612041  0.49489505  0.63075223  1
  O  O216  1  0.74063296  0.99509712  0.12380378  1
  O  O217  1  0.74291749  0.99425405  0.63032558  1
  O  O218  1  0.00009047  0.36319917  0.25870236  1
  O  O219  1  0.00402882  0.36732697  0.75700408  1
  O  O220  1  -0.00032792  0.86376899  0.25506270  1
  O  O221  1  0.00366561  0.86940980  0.75528233  1
  O  O222  1  0.50857003  0.37120627  0.25369995  1
  O  O223  1  0.50263741  0.36972967  0.75279504  1
  O  O224  1  0.50519136  0.87566952  0.25773882  1
  O  O225  1  0.50609286  0.87035958  0.74946920  1
  O  O226  1  0.49213651  0.13157805  0.24041267  1
  O  O227  1  0.49701941  0.13408280  0.74108105  1
  O  O228  1  0.48694315  0.62696178  0.24879170  1
  O  O229  1  0.49433986  0.63324516  0.74395172  1
  O  O230  1  0.99116188  0.13083271  0.25441361  1
  O  O231  1  0.99137692  0.13129058  0.75314875  1
  O  O232  1  1.00085128  0.63065022  0.24319234  1
  O  O233  1  0.99422077  0.62805013  0.74608624  1
  O  O234  1  0.36940100  0.25690259  0.00373300  1
  O  O235  1  0.37686577  0.26500534  0.48929630  1
  O  O236  1  0.36988655  0.75576679  0.00428200  1
  O  O237  1  0.36918971  0.75680292  0.50527328  1
  O  O238  1  0.87513976  0.26067230  -0.00024087  1
  O  O239  1  0.87759424  0.26209369  0.50072270  1
  O  O240  1  0.86924881  0.75396454  0.00574124  1
  O  O241  1  0.87558052  0.75541990  0.50738636  1
  O  O242  1  0.12070447  0.24077739  0.49221228  1
  O  O243  1  0.12839495  0.24451876  0.99380650  1
  O  O244  1  0.13158172  0.73871363  0.50009221  1
  O  O245  1  0.13089666  0.73796971  0.99790902  1
  O  O246  1  0.62386088  0.24395320  0.49168407  1
  O  O247  1  0.62762991  0.25764697  0.99256910  1
  O  O248  1  0.62742606  0.74996656  0.48670463  1
  O  O249  1  0.63018028  0.74609793  0.99526717  1
  O  O250  1  0.49580663  0.24461687  0.12748667  1
  O  O251  1  0.50666554  0.24090950  0.63350481  1
  O  O252  1  0.49232507  0.74906750  0.12790090  1
  O  O253  1  0.49504203  0.74670926  0.62948442  1
  O  O254  1  0.99570323  0.24650840  0.14035356  1
  O  O255  1  0.99616838  0.24584798  0.63912826  1
  O  O256  1  0.99568662  0.74084911  0.13189686  1
  O  O257  1  0.99375724  0.74239063  0.63137861  1
  O  O258  1  0.00890203  0.25314627  0.36914997  1
  O  O259  1  0.00329537  0.25345784  0.86662552  1
  O  O260  1  -0.00142729  0.75231142  0.36604697  1
  O  O261  1  -0.00028451  0.75506870  0.86838811  1
  O  O262  1  0.50868478  0.25710766  0.36651273  1
  O  O263  1  0.49841497  0.25727374  0.86509890  1
  O  O264  1  0.51031672  0.76019873  0.37297163  1
  O  O265  1  0.50666206  0.75333436  0.86786817  1
  O  O266  1  0.23930844  0.12644500  0.50184081  1
  O  O267  1  0.24514001  0.13077482  0.99483065  1
  O  O268  1  0.24487954  0.62759494  0.49746034  1
  O  O269  1  0.24310931  0.62850620  0.99619165  1
  O  O270  1  0.74263857  0.12508510  0.49493787  1
  O  O271  1  0.75931792  0.12384890  0.98374614  1
  O  O272  1  0.74813019  0.62775127  0.48690328  1
  O  O273  1  0.74521741  0.63069717  0.99448813  1
  O  O274  1  0.25557331  0.36997431  -0.00357733  1
  O  O275  1  0.26761154  0.37527666  0.49431241  1
  O  O276  1  0.25501517  0.87011390  0.00648858  1
  O  O277  1  0.25355003  0.86927179  0.50562674  1
  O  O278  1  0.76297887  0.37544995  -0.00174076  1
  O  O279  1  0.76063407  0.37395279  0.50533897  1
  O  O280  1  0.75489387  0.86951034  0.00484975  1
  O  O281  1  0.75679982  0.87402283  0.50700453  1
  O  O282  1  0.14205523  0.50205409  0.26082371  1
  O  O283  1  0.11909581  0.48524967  0.75824843  1
  O  O284  1  0.12867187  0.99624427  0.24505734  1
  O  O285  1  0.12944043  0.99401394  0.74564062  1
  O  O286  1  0.61913808  0.49155838  0.24071679  1
  O  O287  1  0.63083854  0.49563905  0.74385139  1
  O  O288  1  0.62588569  0.99497105  0.23690955  1
  O  O289  1  0.62851604  0.99470683  0.74337393  1
  O  O290  1  0.37790739  0.01733172  0.24305079  1
  O  O291  1  0.36706722  0.00222364  0.75535948  1
  O  O292  1  0.36907458  0.50715041  0.25710077  1
  O  O293  1  0.37593398  0.50939531  0.75733700  1
  O  O294  1  0.87595516  0.00826189  0.25669822  1
  O  O295  1  0.86866213  0.00786743  0.75138321  1
  O  O296  1  0.88466552  0.49779420  0.26607421  1
  O  O297  1  0.87011830  0.50397559  0.75633503  1
  O  O298  1  0.12072084  0.36373915  0.37274280  1
  O  O299  1  0.11583213  0.36809095  0.86909391  1
  O  O300  1  0.11469870  0.86949045  0.37464511  1
  O  O301  1  0.11824785  0.87213611  0.86840103  1
  O  O302  1  0.62162685  0.37281338  0.36793394  1
  O  O303  1  0.61529274  0.38009233  0.86574832  1
  O  O304  1  0.61917970  0.86857544  0.37006317  1
  O  O305  1  0.62406212  0.86934704  0.86770654  1
  O  O306  1  0.38557736  0.13323448  0.13211792  1
  O  O307  1  0.38867671  0.12160782  0.62384312  1
  O  O308  1  0.37582184  0.63057800  0.13338829  1
  O  O309  1  0.38039199  0.63200800  0.62939428  1
  O  O310  1  0.87771145  0.12451420  0.13908518  1
  O  O311  1  0.87488686  0.12596614  0.63780862  1
  O  O312  1  0.88521640  0.62978897  0.12594045  1
  O  O313  1  0.88010998  0.62820423  0.63029819  1
  O  O314  1  0.25737656  0.25304649  0.11634582  1
  O  O315  1  0.24449401  0.26394077  0.62168173  1
  O  O316  1  0.25649362  0.75724295  0.11884002  1
  O  O317  1  0.25606537  0.75579054  0.61976007  1
  O  O318  1  0.75630869  0.25438119  0.12350202  1
  O  O319  1  0.75090094  0.25803139  0.62333467  1
  O  O320  1  0.75482096  0.75437162  0.11960061  1
  O  O321  1  0.75644159  0.75598662  0.62441296  1
  O  O322  1  0.23926120  0.24406257  0.37761884  1
  O  O323  1  0.24422788  0.24405309  0.88066365  1
  O  O324  1  0.24982043  0.74303217  0.38241206  1
  O  O325  1  0.24953350  0.74398096  0.88218088  1
  O  O326  1  0.74365436  0.24174616  0.37936793  1
  O  O327  1  0.74825221  0.23430286  0.87322414  1
  O  O328  1  0.74221017  0.74343473  0.37642675  1
  O  O329  1  0.74464087  0.74443179  0.88022946  1
  O  O330  1  0.00318062  0.11522138  -0.00134166  1
  O  O331  1  0.00751689  0.11755346  0.50290105  1
  O  O332  1  0.00675391  0.62048897  0.00775916  1
  O  O333  1  0.00768620  0.61650536  0.50433963  1
  O  O334  1  0.49250176  0.11642373  0.01018400  1
  O  O335  1  0.50464665  0.12135601  0.50548793  1
  O  O336  1  0.50740212  0.61999769  0.00011425  1
  O  O337  1  0.50267846  0.62403748  0.50723809  1
  O  O338  1  0.49108633  0.37803973  0.49011063  1
  O  O339  1  0.49215837  0.38294192  0.99327098  1
  O  O340  1  0.49487520  0.88053196  0.49212395  1
  O  O341  1  0.49365567  0.88810454  0.99904307  1
  O  O342  1  0.99515233  0.38038024  0.49763860  1
  O  O343  1  0.99208132  0.37849046  0.99624299  1
  O  O344  1  0.99401201  0.87801798  0.49615183  1
  O  O345  1  0.99609212  0.87929889  0.99649741  1
  O  O346  1  0.49093275  0.49643146  0.37309544  1
  O  O347  1  0.49363456  0.49671392  0.87976948  1
  O  O348  1  0.50928845  0.98786054  0.38048543  1
  O  O349  1  0.49582251  1.00289018  0.88370622  1
  O  O350  1  0.99377615  0.49436571  0.38620615  1
  O  O351  1  0.99202133  0.49453811  0.88362763  1
  O  O352  1  0.99384222  0.99240446  0.38216608  1
  O  O353  1  0.99794644  0.99248191  0.88622932  1
  O  O354  1  0.00141853  -0.00106864  0.11232627  1
  O  O355  1  0.00634627  -0.00012569  0.61958232  1
  O  O356  1  -0.00459657  0.51248014  0.12134664  1
  O  O357  1  -0.00730488  0.50490502  0.61184109  1
  O  O358  1  0.50629217  0.00809138  0.11692974  1
  O  O359  1  0.50527256  0.00905732  0.61915456  1
  O  O360  1  0.51048181  0.50360531  0.11722075  1
  O  O361  1  0.50736223  0.50905676  0.62442994  1
  O  O362  1  0.25231899  0.39029908  0.25371567  1
  O  O363  1  0.22926834  0.37408966  0.75615196  1
  O  O364  1  0.25039333  0.87355740  0.23846810  1
  O  O365  1  0.24409039  0.87988866  0.74431145  1
  O  O366  1  0.73771556  0.37096571  0.25272180  1
  O  O367  1  0.74515612  0.38031402  0.74615250  1
  O  O368  1  0.74454450  0.87662149  0.24207398  1
  O  O369  1  0.74454138  0.88039642  0.74435451  1
  O  O370  1  0.26739949  0.12747959  0.24552802  1
  O  O371  1  0.24863964  0.11951424  0.75575879  1
  O  O372  1  0.25869253  0.61720230  0.25459913  1
  O  O373  1  0.25540889  0.62697477  0.75555821  1
  O  O374  1  0.76060809  0.12365027  0.25725972  1
  O  O375  1  0.75574766  0.12069644  0.75647829  1
  O  O376  1  0.75528876  0.62969714  0.26429602  1
  O  O377  1  0.75593425  0.61918936  0.75553716  1
  O  O378  1  0.37844549  0.13280239  0.35721134  1
  O  O379  1  0.36679320  0.11931847  0.87234216  1
  O  O380  1  0.37200050  0.61923368  0.36789778  1
  O  O381  1  0.36940476  0.62232282  0.86910947  1
  O  O382  1  0.87049003  0.11826885  0.36987754  1
  O  O383  1  0.86535403  0.12231031  0.86321327  1
  O  O384  1  0.86932794  0.61517080  0.37507739  1
  O  O385  1  0.86958154  0.61927769  0.87043088  1
  O  O386  1  0.12804746  0.37184267  0.13311024  1
  O  O387  1  0.11545169  0.37392763  0.64374103  1
  O  O388  1  0.13784866  0.87421339  0.12444667  1
  O  O389  1  0.13009878  0.87938829  0.63016043  1
  O  O390  1  0.62632330  0.38430781  0.13443925  1
  O  O391  1  0.62963424  0.38135734  0.63066329  1
  O  O392  1  0.62936659  0.88314007  0.12909017  1
  O  O393  1  0.62952615  0.88022284  0.62920391  1
  O  O394  1  0.11605701  0.24306220  0.26180914  1
  O  O395  1  0.11369035  0.25660299  0.75699469  1
  O  O396  1  0.11271688  0.74999122  0.25177749  1
  O  O397  1  0.11692852  0.75623875  0.75020201  1
  O  O398  1  0.61976122  0.25948602  0.25457242  1
  O  O399  1  0.61257673  0.25729354  0.75540619  1
  O  O400  1  0.62344787  0.75662663  0.25972268  1
  O  O401  1  0.62015009  0.75555724  0.75500198  1
  O  O402  1  0.38177800  0.24555032  0.24303990  1
  O  O403  1  0.38700258  0.25205749  0.75189085  1
  O  O404  1  0.37426868  0.73902071  0.24423916  1
  O  O405  1  0.37999241  0.74660218  0.74353093  1
  O  O406  1  0.88527594  0.23964421  0.25699536  1
  O  O407  1  0.88330977  0.24220390  0.75121753  1
  O  O408  1  0.88663682  0.74670306  0.24384276  1
  O  O409  1  0.87967620  0.74300544  0.74469289  1
  O  O410  1  0.37686715  0.49266183  0.48621555  1
  O  O411  1  0.37892640  0.49727751  0.99316378  1
  O  O412  1  0.38370862  0.99117964  0.50440867  1
  O  O413  1  0.38337957  0.99682712  0.99476615  1
  O  O414  1  0.88456720  0.48965202  0.49215447  1
  O  O415  1  0.88105694  0.49182086  0.99518943  1
  O  O416  1  0.88043390  0.99348243  0.49616343  1
  O  O417  1  0.88473625  0.99239659  0.99927850  1
  O  O418  1  0.11593027  0.00554867  0.00088022  1
  O  O419  1  0.11932107  0.00708514  0.50580214  1
  O  O420  1  0.11917486  0.51232650  -0.00636890  1
  O  O421  1  0.11609231  0.50621677  0.49241238  1
  O  O422  1  0.61505337  -0.00502507  0.01096002  1
  O  O423  1  0.61748554  0.00589104  0.50550283  1
  O  O424  1  0.61977397  0.50554531  0.00722584  1
  O  O425  1  0.62235680  0.50147043  0.50799633  1
  O  O426  1  0.37276438  0.37136194  0.11678025  1
  O  O427  1  0.38343767  0.37977227  0.60427591  1
  O  O428  1  0.36799766  0.87049051  0.11902991  1
  O  O429  1  0.36889081  0.86993879  0.61826723  1
  O  O430  1  0.87391897  0.37442457  0.11505096  1
  O  O431  1  0.86936502  0.37425123  0.61653844  1
  O  O432  1  0.86913678  0.86863671  0.11964941  1
  O  O433  1  0.86948300  0.86890317  0.62083308  1
  O  O434  1  0.12383846  0.13120616  0.38797171  1
  O  O435  1  0.13041645  0.12976155  0.88070977  1
  O  O436  1  0.13152567  0.62712737  0.38875815  1
  O  O437  1  0.13026815  0.62810764  0.88450350  1
  O  O438  1  0.62865247  0.12972762  0.37836803  1
  O  O439  1  0.63946915  0.12328931  0.87011581  1
  O  O440  1  0.63211293  0.63317890  0.37322993  1
  O  O441  1  0.63090263  0.63066905  0.87991664  1
