# generated using pymatgen
data_V93Zn93O256
_symmetry_space_group_name_H-M   'P 1'
_cell_length_a   17.05699760
_cell_length_b   17.05592139
_cell_length_c   17.05805724
_cell_angle_alpha   89.97983829
_cell_angle_beta   89.93814313
_cell_angle_gamma   89.90225869
_symmetry_Int_Tables_number   1
_chemical_formula_structural   V93Zn93O256
_chemical_formula_sum   'V93 Zn93 O256'
_cell_volume   4962.56753032
_cell_formula_units_Z   1
loop_
 _symmetry_equiv_pos_site_id
 _symmetry_equiv_pos_as_xyz
  1  'x, y, z'
loop_
 _atom_site_type_symbol
 _atom_site_label
 _atom_site_symmetry_multiplicity
 _atom_site_fract_x
 _atom_site_fract_y
 _atom_site_fract_z
 _atom_site_occupancy
  V  V0  1  0.49972410  0.75138126  0.75025855  1
  V  V1  1  0.50177079  0.62408876  0.62131371  1
  V  V2  1  0.24949678  0.75037824  0.00000086  1
  V  V3  1  -0.00016020  0.24987738  0.74984289  1
  V  V4  1  0.62388535  0.37286245  0.75007231  1
  V  V5  1  0.25014122  0.00002436  0.24747880  1
  V  V6  1  -0.00072740  0.37452805  0.37563480  1
  V  V7  1  0.87468760  0.37459145  0.50060375  1
  V  V8  1  0.75127369  0.75131794  -0.00156140  1
  V  V9  1  0.24960671  0.75207545  0.50090349  1
  V  V10  1  0.87170820  0.50130910  0.37529934  1
  V  V11  1  0.62567330  0.75035176  0.87529056  1
  V  V12  1  0.12511856  0.75019117  0.37305996  1
  V  V13  1  0.50578176  0.50432983  0.00552571  1
  V  V14  1  -0.00013258  0.75076026  0.75156079  1
  V  V15  1  0.62439472  0.25001061  0.87517484  1
  V  V16  1  0.87610496  -0.00038334  0.87494003  1
  V  V17  1  0.37465072  0.62633700  0.75006380  1
  V  V18  1  0.00474430  0.61976817  0.12552901  1
  V  V19  1  -0.00048246  0.62456208  0.62572179  1
  V  V20  1  0.87542743  0.24957677  0.62495736  1
  V  V21  1  0.87615910  0.75123894  0.12383333  1
  V  V22  1  0.37597095  0.00560890  0.87022215  1
  V  V23  1  0.87372498  0.50055385  0.87643993  1
  V  V24  1  0.62503160  0.24720150  0.37610417  1
  V  V25  1  0.12413567  0.25059251  0.87493362  1
  V  V26  1  0.12570591  0.24953843  0.37643311  1
  V  V27  1  0.12711064  -0.00105022  0.12450221  1
  V  V28  1  0.00096215  0.12530463  0.12594290  1
  V  V29  1  0.24904797  0.62627252  0.87495956  1
  V  V30  1  0.24832523  0.50111363  0.74974276  1
  V  V31  1  0.49841912  0.12627909  0.12551016  1
  V  V32  1  0.87064395  0.62477988  0.25469887  1
  V  V33  1  0.62276853  0.37863690  0.24984023  1
  V  V34  1  0.37422862  0.87486892  0.00013786  1
  V  V35  1  0.87494899  0.12430744  0.74943768  1
  V  V36  1  0.12399526  0.37672145  0.75013100  1
  V  V37  1  0.12348934  0.75142879  0.87403744  1
  V  V38  1  0.37618032  0.12569671  0.24883231  1
  V  V39  1  0.12386439  0.62220571  0.00193416  1
  V  V40  1  0.62532263  0.12675707  0.00019072  1
  V  V41  1  0.49958907  0.37457962  0.87336340  1
  V  V42  1  0.25383436  0.12687616  0.86923298  1
  V  V43  1  0.87407496  0.75051874  0.62562153  1
  V  V44  1  0.12289282  0.37945594  0.24394121  1
  V  V45  1  0.00163416  -0.00107915  0.50071796  1
  V  V46  1  0.36980762  0.75585488  0.62491414  1
  V  V47  1  0.12503702  0.62460575  0.49908826  1
  V  V48  1  0.74801434  0.00000155  0.74328329  1
  V  V49  1  0.00047327  0.00057421  -0.00159661  1
  V  V50  1  0.50868071  -0.00178424  0.49991394  1
  V  V51  1  -0.00163877  0.37530357  0.87624996  1
  V  V52  1  -0.00054707  0.49959487  0.50007684  1
  V  V53  1  0.50049737  0.87618660  0.87484684  1
  V  V54  1  0.00155577  0.75014313  0.25039167  1
  V  V55  1  0.62604787  0.00050470  0.12419851  1
  V  V56  1  0.38263572  0.74151138  0.12605493  1
  V  V57  1  0.37476238  0.37401224  0.50187364  1
  V  V58  1  0.87441903  0.12503170  0.25170213  1
  V  V59  1  0.24787230  -0.00529036  0.74736989  1
  V  V60  1  0.74869079  0.37428924  0.62645882  1
  V  V61  1  0.49859512  0.37306594  0.37578780  1
  V  V62  1  0.25099173  0.62390448  0.37357399  1
  V  V63  1  0.87393325  0.37510026  0.00177471  1
  V  V64  1  0.50457070  0.11973430  0.63105463  1
  V  V65  1  0.50043486  0.00123458  -0.00048227  1
  V  V66  1  0.74897967  0.62638139  0.87556396  1
  V  V67  1  0.37320144  0.37505122  0.00232585  1
  V  V68  1  0.74953216  0.24904101  0.49956026  1
  V  V69  1  0.74824207  0.49954080  0.75039958  1
  V  V70  1  0.24506691  0.49978034  0.24380839  1
  V  V71  1  0.74403371  0.37968102  0.12601339  1
  V  V72  1  0.12508896  0.12549262  -0.00044148  1
  V  V73  1  0.25051554  0.24802040  0.50052143  1
  V  V74  1  0.37249657  0.49781933  0.37647759  1
  V  V75  1  0.74725794  0.74356118  0.49393363  1
  V  V76  1  0.74904269  0.25104132  0.00098318  1
  V  V77  1  0.62523806  0.87982094  0.74315957  1
  V  V78  1  0.87363484  0.62541883  0.75061998  1
  V  V79  1  0.37400944  0.50107785  0.87486691  1
  V  V80  1  0.00766252  0.12169319  0.62427866  1
  V  V81  1  0.00182597  0.50013683  0.00276380  1
  V  V82  1  0.74982853  -0.00059307  0.25042440  1
  V  V83  1  0.37718456  -0.00087613  0.37391515  1
  V  V84  1  0.24972942  0.25164787  0.00005067  1
  V  V85  1  0.75198329  0.87679194  0.12242090  1
  V  V86  1  0.37157519  0.87596130  0.49990957  1
  V  V87  1  0.37588045  0.24536156  0.63232006  1
  V  V88  1  0.87600634  0.87487688  0.50000890  1
  V  V89  1  0.74514593  0.50249781  0.25313653  1
  V  V90  1  0.12523813  0.49975482  0.62521539  1
  V  V91  1  0.25150538  0.12578716  0.37458727  1
  V  V92  1  -0.00081256  0.25009215  0.25107938  1
  Zn  Zn93  1  0.12400073  0.87250879  0.74406349  1
  Zn  Zn94  1  0.74981898  0.12188643  0.37823616  1
  Zn  Zn95  1  0.62382207  0.62670883  0.00373503  1
  Zn  Zn96  1  0.62413658  0.74196017  0.36692037  1
  Zn  Zn97  1  0.38136638  0.61912482  0.24731807  1
  Zn  Zn98  1  0.56090491  0.56810582  0.16874134  1
  Zn  Zn99  1  0.63260088  0.61691104  0.49683460  1
  Zn  Zn100  1  0.63017463  0.11589966  0.50306280  1
  Zn  Zn101  1  0.24373941  0.37734612  0.12213110  1
  Zn  Zn102  1  0.12570728  0.87457764  0.24818572  1
  Zn  Zn103  1  0.25009985  0.37317618  0.62667605  1
  Zn  Zn104  1  0.50293925  0.49813832  0.50262233  1
  Zn  Zn105  1  0.49910561  0.25040572  0.24833117  1
  Zn  Zn106  1  0.74891741  0.12549102  0.87465455  1
  Zn  Zn107  1  0.15619498  -0.02788598  0.60508433  1
  Zn  Zn108  1  0.87807818  0.87524777  -0.00146998  1
  Zn  Zn109  1  0.74350183  0.87768442  0.62053209  1
  Zn  Zn110  1  0.62200384  0.86997253  0.24974915  1
  Zn  Zn111  1  0.87422676  0.25048304  0.12536943  1
  Zn  Zn112  1  0.87513699  -0.00149242  0.37526432  1
  Zn  Zn113  1  0.50352831  0.86916269  0.36950910  1
  Zn  Zn114  1  0.37291850  0.25043077  0.12748842  1
  Zn  Zn115  1  0.00255788  0.87676037  0.37253214  1
  Zn  Zn116  1  0.62341158  0.49888366  0.62549606  1
  Zn  Zn117  1  0.00259799  0.87597295  0.87383563  1
  Zn  Zn118  1  0.50646155  0.74260780  0.24981666  1
  Zn  Zn119  1  0.49618534  0.24432833  0.75281003  1
  Zn  Zn120  1  0.25019438  0.87284218  0.12593258  1
  Zn  Zn121  1  0.12847629  0.12158060  0.49979835  1
  Zn  Zn122  1  0.18829238  0.18952496  0.18709736  1
  Zn  Zn123  1  0.18914753  0.18753873  0.68825982  1
  Zn  Zn124  1  0.19062297  0.68738335  0.18668076  1
  Zn  Zn125  1  0.18641537  0.68836884  0.68684706  1
  Zn  Zn126  1  0.68667620  0.18974639  0.18757255  1
  Zn  Zn127  1  0.68574681  0.18654212  0.68775640  1
  Zn  Zn128  1  0.68933216  0.68936138  0.18298294  1
  Zn  Zn129  1  0.68738022  0.69096396  0.68449054  1
  Zn  Zn130  1  0.31072815  0.31242890  0.31142379  1
  Zn  Zn131  1  0.31150647  0.31511124  0.81322641  1
  Zn  Zn132  1  0.31435263  0.81371211  0.31106768  1
  Zn  Zn133  1  0.31291583  0.81459094  0.81433689  1
  Zn  Zn134  1  0.81052203  0.31343329  0.31304061  1
  Zn  Zn135  1  0.81131258  0.31198960  0.81369752  1
  Zn  Zn136  1  0.81419701  0.81403341  0.31267272  1
  Zn  Zn137  1  0.81214338  0.81548209  0.81183805  1
  Zn  Zn138  1  0.18781583  0.43560536  0.43564916  1
  Zn  Zn139  1  0.18546147  0.43962779  0.93718543  1
  Zn  Zn140  1  0.18927836  0.93601306  0.43117023  1
  Zn  Zn141  1  0.18712822  0.93598289  0.93518528  1
  Zn  Zn142  1  0.68536547  0.43701243  0.43801373  1
  Zn  Zn143  1  0.68718285  0.43575721  0.93599812  1
  Zn  Zn144  1  0.68816066  0.92760635  0.43105284  1
  Zn  Zn145  1  0.68900788  0.93793700  0.93469403  1
  Zn  Zn146  1  0.31247369  0.06348737  0.06060143  1
  Zn  Zn147  1  0.32119121  0.06574390  0.56122318  1
  Zn  Zn148  1  0.31162196  0.56179751  0.06119807  1
  Zn  Zn149  1  0.31254708  0.56432235  0.56331856  1
  Zn  Zn150  1  0.81329971  0.06507089  0.06297362  1
  Zn  Zn151  1  0.81603483  0.06339129  0.56275693  1
  Zn  Zn152  1  0.81061519  0.56433686  0.06560326  1
  Zn  Zn153  1  0.81310669  0.56077951  0.56557576  1
  Zn  Zn154  1  0.43267661  0.43463976  0.18965878  1
  Zn  Zn155  1  0.43680351  0.43653788  0.68806443  1
  Zn  Zn156  1  0.43757924  0.93327004  0.18665805  1
  Zn  Zn157  1  0.43624336  0.93925271  0.68700370  1
  Zn  Zn158  1  0.93321835  0.43771181  0.18741287  1
  Zn  Zn159  1  0.93629602  0.43792758  0.68838972  1
  Zn  Zn160  1  0.93916424  0.93698568  0.18608044  1
  Zn  Zn161  1  0.93923893  0.93624591  0.68627939  1
  Zn  Zn162  1  0.06463626  0.06247121  0.31332569  1
  Zn  Zn163  1  0.06525524  0.06260209  0.81147941  1
  Zn  Zn164  1  0.06095643  0.56276932  0.31327926  1
  Zn  Zn165  1  0.06134119  0.56438048  0.81504094  1
  Zn  Zn166  1  0.56189071  0.06161068  0.31293833  1
  Zn  Zn167  1  0.56480446  0.06288025  0.81285727  1
  Zn  Zn168  1  0.55945407  0.56798498  0.33045618  1
  Zn  Zn169  1  0.56223712  0.56226308  0.81377283  1
  Zn  Zn170  1  0.43997062  0.18491604  0.44048822  1
  Zn  Zn171  1  0.43798418  0.18892348  0.93895647  1
  Zn  Zn172  1  0.43823304  0.68690829  0.43472854  1
  Zn  Zn173  1  0.43750028  0.68778914  0.93821265  1
  Zn  Zn174  1  0.93769114  0.18577546  0.43741821  1
  Zn  Zn175  1  0.93544984  0.18695374  0.93766936  1
  Zn  Zn176  1  0.93751502  0.68856321  0.43667366  1
  Zn  Zn177  1  0.93692301  0.68771269  0.93772864  1
  Zn  Zn178  1  0.05999771  0.31090213  0.06295597  1
  Zn  Zn179  1  0.06382005  0.31161859  0.56284246  1
  Zn  Zn180  1  0.06238617  0.81354581  0.06205181  1
  Zn  Zn181  1  0.06261098  0.81186131  0.56384281  1
  Zn  Zn182  1  0.56094171  0.31360500  0.06344650  1
  Zn  Zn183  1  0.56180499  0.30827634  0.56406299  1
  Zn  Zn184  1  0.56484072  0.81453233  0.06293320  1
  Zn  Zn185  1  0.55891643  0.81207501  0.56027397  1
  O  O186  1  0.12024934  0.12034993  0.11891169  1
  O  O187  1  0.11265411  0.12695422  0.62409750  1
  O  O188  1  0.11164629  0.63097952  0.11898898  1
  O  O189  1  0.11894016  0.61936413  0.61878232  1
  O  O190  1  0.61922457  0.12048166  0.11943017  1
  O  O191  1  0.60907033  0.13166308  0.61979180  1
  O  O192  1  0.64170670  0.61644720  0.11351665  1
  O  O193  1  0.61297091  0.62592249  0.62360266  1
  O  O194  1  0.37801042  0.37644804  0.38419788  1
  O  O195  1  0.37828963  0.38100455  0.88359561  1
  O  O196  1  0.37703916  0.88077637  0.38495411  1
  O  O197  1  0.38160291  0.88385158  0.88038597  1
  O  O198  1  0.88053098  0.37962772  0.38114678  1
  O  O199  1  0.87947860  0.38056906  0.88120016  1
  O  O200  1  0.88025615  0.87643256  0.38794707  1
  O  O201  1  0.87727889  0.88911111  0.87537149  1
  O  O202  1  0.25678679  0.00695750  0.36809394  1
  O  O203  1  0.25725884  0.00851442  0.86826443  1
  O  O204  1  0.25322165  0.50400784  0.36739940  1
  O  O205  1  0.25425051  0.50718491  0.86954554  1
  O  O206  1  0.75210796  0.00114732  0.36258526  1
  O  O207  1  0.76022760  0.00249992  0.86540537  1
  O  O208  1  0.75708588  0.49027020  0.36145335  1
  O  O209  1  0.75506335  0.50495381  0.87037465  1
  O  O210  1  0.25335078  0.49840562  0.13910880  1
  O  O211  1  0.24291886  0.50002511  0.63210209  1
  O  O212  1  0.24413799  1.00093531  0.12955825  1
  O  O213  1  0.25761625  1.01317706  0.64337429  1
  O  O214  1  0.75762996  0.48784658  0.13764287  1
  O  O215  1  0.75005143  0.49196134  0.63365850  1
  O  O216  1  0.74648768  0.99701411  0.13106083  1
  O  O217  1  0.75808476  0.99764106  0.63936423  1
  O  O218  1  0.00397873  0.37160163  0.25580955  1
  O  O219  1  0.00351289  0.37002437  0.75650524  1
  O  O220  1  0.00196946  0.86594710  0.25183295  1
  O  O221  1  0.00062082  0.86540322  0.75284706  1
  O  O222  1  0.50490134  0.37384147  0.25697246  1
  O  O223  1  0.50569370  0.37379079  0.75707669  1
  O  O224  1  0.50295471  0.86860459  0.24966588  1
  O  O225  1  0.50580308  0.87264258  0.75527147  1
  O  O226  1  0.49346421  0.12463651  0.24278453  1
  O  O227  1  0.50279776  0.12214868  0.73544935  1
  O  O228  1  0.49783743  0.62035497  0.24764710  1
  O  O229  1  0.49392584  0.63185100  0.74434530  1
  O  O230  1  0.99277117  0.12932682  0.24656922  1
  O  O231  1  0.99652022  0.12952007  0.74232904  1
  O  O232  1  0.99293127  0.62801897  0.24228054  1
  O  O233  1  0.99289489  0.62925833  0.74519450  1
  O  O234  1  0.36840211  0.26162131  -0.00257815  1
  O  O235  1  0.37023115  0.25718781  0.50721638  1
  O  O236  1  0.36995065  0.75386401  0.00622832  1
  O  O237  1  0.37023022  0.75741123  0.50699233  1
  O  O238  1  0.86819138  0.25708279  0.00074402  1
  O  O239  1  0.87080662  0.25520559  0.50502109  1
  O  O240  1  0.86964694  0.75220166  0.00543747  1
  O  O241  1  0.86975118  0.75626669  0.50522085  1
  O  O242  1  0.13214982  0.24870153  0.49419773  1
  O  O243  1  0.12908782  0.24604408  0.99342963  1
  O  O244  1  0.12984837  0.74302140  0.49390499  1
  O  O245  1  0.12944683  0.74312418  0.99361370  1
  O  O246  1  0.63174210  0.25201466  0.48947345  1
  O  O247  1  0.62941102  0.24665114  0.99471528  1
  O  O248  1  0.64382429  0.75434940  0.50632738  1
  O  O249  1  0.63218538  0.75122282  0.99178347  1
  O  O250  1  0.49643505  0.24184204  0.12636815  1
  O  O251  1  0.49269512  0.23884422  0.62671243  1
  O  O252  1  0.48468834  0.75093400  0.11844620  1
  O  O253  1  0.49006333  0.74306217  0.63024866  1
  O  O254  1  0.99808968  0.24257393  0.13311523  1
  O  O255  1  0.99524151  0.24252525  0.62999900  1
  O  O256  1  0.99492219  0.74097966  0.12981991  1
  O  O257  1  0.99357482  0.74159531  0.63028899  1
  O  O258  1  0.00483105  0.25528463  0.37072585  1
  O  O259  1  0.00429130  0.25509574  0.86956752  1
  O  O260  1  0.00807216  0.74884105  0.36810617  1
  O  O261  1  0.00583677  0.74906115  0.86908154  1
  O  O262  1  0.50952197  0.25460352  0.37544077  1
  O  O263  1  0.50502693  0.25602204  0.87333087  1
  O  O264  1  0.50036690  0.75126315  0.36961930  1
  O  O265  1  0.50383966  0.75622893  0.86971775  1
  O  O266  1  0.25104068  0.13008414  0.49313451  1
  O  O267  1  0.24425908  0.13078395  0.98951212  1
  O  O268  1  0.24410877  0.63027960  0.49391960  1
  O  O269  1  0.24391112  0.62903399  0.99365564  1
  O  O270  1  0.74848808  0.13125256  0.49926013  1
  O  O271  1  0.74297811  0.13287584  1.00012727  1
  O  O272  1  0.75462605  0.64076029  0.50823332  1
  O  O273  1  0.75316313  0.63250472  0.99056655  1
  O  O274  1  0.25679135  0.37248573  -0.00122495  1
  O  O275  1  0.25904518  0.36771217  0.50134399  1
  O  O276  1  0.25729495  0.86822556  -0.00214491  1
  O  O277  1  0.26313774  0.87049816  0.49645810  1
  O  O278  1  0.75338175  0.37267744  0.00814335  1
  O  O279  1  0.75705349  0.36905683  0.50649300  1
  O  O280  1  0.75369362  0.87026728  0.00423747  1
  O  O281  1  0.76117252  0.86898114  0.50337772  1
  O  O282  1  0.13232157  0.48964832  0.25833724  1
  O  O283  1  0.12800430  0.49668282  0.74554652  1
  O  O284  1  0.13199836  1.00096894  0.24263619  1
  O  O285  1  0.14173399  0.99928861  0.75211646  1
  O  O286  1  0.63275171  0.49602141  0.25376987  1
  O  O287  1  0.63138367  0.49216351  0.75006560  1
  O  O288  1  0.63715032  1.00304580  0.24264514  1
  O  O289  1  0.63620886  0.99077810  0.75838102  1
  O  O290  1  0.36993174  0.00615495  0.25423341  1
  O  O291  1  0.36666448  -0.00310519  0.76345280  1
  O  O292  1  0.36279245  0.49683175  0.25818572  1
  O  O293  1  0.36848046  0.50550205  0.75565163  1
  O  O294  1  0.86855150  0.00885431  0.24979008  1
  O  O295  1  0.86978741  0.00451080  0.75659373  1
  O  O296  1  0.86796443  0.50632302  0.25608983  1
  O  O297  1  0.86895419  0.50509116  0.75662081  1
  O  O298  1  0.11782789  0.36904617  0.36763218  1
  O  O299  1  0.11760456  0.37012637  0.86991503  1
  O  O300  1  0.12343147  0.86440593  0.37135239  1
  O  O301  1  0.12381285  0.86540786  0.86925703  1
  O  O302  1  0.61864351  0.36705173  0.36976292  1
  O  O303  1  0.61947826  0.36860972  0.86964079  1
  O  O304  1  0.62276112  0.86297379  0.36842535  1
  O  O305  1  0.61902493  0.87036207  0.86643875  1
  O  O306  1  0.38114043  0.12571115  0.12952477  1
  O  O307  1  0.38986257  0.13717699  0.61855005  1
  O  O308  1  0.37201565  0.63834804  0.12231856  1
  O  O309  1  0.38190801  0.63374519  0.63100939  1
  O  O310  1  0.88183009  0.12682992  0.13591219  1
  O  O311  1  0.88629341  0.13094271  0.63032773  1
  O  O312  1  0.88360704  0.63107711  0.13408890  1
  O  O313  1  0.88105719  0.62917410  0.63216891  1
  O  O314  1  0.25148415  0.25412281  0.11486662  1
  O  O315  1  0.25867466  0.24930343  0.61993690  1
  O  O316  1  0.25905117  0.75068653  0.11629371  1
  O  O317  1  0.26342999  0.74093143  0.61827336  1
  O  O318  1  0.75154279  0.26107598  0.11991548  1
  O  O319  1  0.75649927  0.25433479  0.62045592  1
  O  O320  1  0.75861593  0.75792728  0.11726741  1
  O  O321  1  0.75867827  0.75553646  0.61778704  1
  O  O322  1  0.24538497  0.24466274  0.38067245  1
  O  O323  1  0.24482686  0.24433353  0.87896876  1
  O  O324  1  0.24582975  0.74361911  0.38002992  1
  O  O325  1  0.24539027  0.74422554  0.87945461  1
  O  O326  1  0.74107931  0.25021656  0.38098343  1
  O  O327  1  0.74301166  0.24936580  0.88295298  1
  O  O328  1  0.75571816  0.75398375  0.39280715  1
  O  O329  1  0.74578843  0.74618981  0.87849201  1
  O  O330  1  0.00581310  0.12143962  0.00526486  1
  O  O331  1  0.00075045  0.11669954  0.50794449  1
  O  O332  1  0.00276976  0.62024688  0.00810851  1
  O  O333  1  0.00462848  0.61886232  0.50551819  1
  O  O334  1  0.50531613  0.11988808  0.00504205  1
  O  O335  1  0.50317590  0.11405806  0.50777397  1
  O  O336  1  0.49874096  0.60749295  -0.00540986  1
  O  O337  1  0.49593438  0.62340776  0.51418753  1
  O  O338  1  0.48773556  0.37233034  0.49673483  1
  O  O339  1  0.49096559  0.38259232  0.99389017  1
  O  O340  1  0.48877444  0.88257693  0.50067853  1
  O  O341  1  0.49549629  0.88250224  0.99314127  1
  O  O342  1  0.99424999  0.37984351  0.49602822  1
  O  O343  1  0.99443940  0.37942324  0.99545025  1
  O  O344  1  0.99306291  0.88297450  0.49991442  1
  O  O345  1  0.99814469  0.88509054  0.99595578  1
  O  O346  1  0.48951062  0.48974055  0.38121953  1
  O  O347  1  0.49230270  0.49401399  0.88253262  1
  O  O348  1  0.49349117  0.99911464  0.38418328  1
  O  O349  1  0.49285432  0.99763331  0.87898577  1
  O  O350  1  0.99328045  0.49406629  0.38165769  1
  O  O351  1  0.99261416  0.49471348  0.88069769  1
  O  O352  1  0.99965292  1.00043281  0.38886864  1
  O  O353  1  0.99165157  1.00255242  0.87863401  1
  O  O354  1  0.00659693  0.00689117  0.11908079  1
  O  O355  1  -0.00197355  0.00925588  0.61508634  1
  O  O356  1  -0.00867040  0.51230320  0.11955568  1
  O  O357  1  0.00447051  0.50481808  0.61986416  1
  O  O358  1  0.50552215  0.00582017  0.11742510  1
  O  O359  1  0.49148583  0.01283936  0.61664573  1
  O  O360  1  0.49454441  0.49389118  0.10981409  1
  O  O361  1  0.49901923  0.51167038  0.62632439  1
  O  O362  1  0.23931763  0.38200867  0.25008808  1
  O  O363  1  0.24146439  0.38333582  0.75027169  1
  O  O364  1  0.24888358  0.88560970  0.24770454  1
  O  O365  1  0.25133620  0.89204979  0.75521481  1
  O  O366  1  0.74463999  0.38213939  0.24366590  1
  O  O367  1  0.74492523  0.37950160  0.74601765  1
  O  O368  1  0.75485827  0.88717838  0.24197096  1
  O  O369  1  0.74162284  0.88253476  0.74809434  1
  O  O370  1  0.25607214  0.12042083  0.25471589  1
  O  O371  1  0.24575597  0.11877718  0.76459547  1
  O  O372  1  0.25056984  0.61474966  0.25577513  1
  O  O373  1  0.25509295  0.62063086  0.75551653  1
  O  O374  1  0.75907105  0.11705113  0.24795521  1
  O  O375  1  0.75564343  0.11707455  0.75067470  1
  O  O376  1  0.76357345  0.61472176  0.24232958  1
  O  O377  1  0.75457111  0.62060139  0.75507019  1
  O  O378  1  0.37084013  0.11961494  0.36984431  1
  O  O379  1  0.36588808  0.11659507  0.88225432  1
  O  O380  1  0.36687917  0.61554571  0.37494121  1
  O  O381  1  0.36889149  0.62164230  0.86894490  1
  O  O382  1  0.87332154  0.12269215  0.36299471  1
  O  O383  1  0.87383358  0.11632735  0.86782290  1
  O  O384  1  0.88266577  0.61802210  0.36180824  1
  O  O385  1  0.86937906  0.61965686  0.86903607  1
  O  O386  1  0.12232006  0.37112235  0.13995720  1
  O  O387  1  0.12555894  0.38158073  0.63221581  1
  O  O388  1  0.12898696  0.88342459  0.12589633  1
  O  O389  1  0.12982850  0.86870490  0.63073644  1
  O  O390  1  0.63591196  0.37122171  0.13219138  1
  O  O391  1  0.63140069  0.37241670  0.63273057  1
  O  O392  1  0.63439706  0.88446235  0.12434438  1
  O  O393  1  0.62162768  0.87132126  0.64036128  1
  O  O394  1  0.11921090  0.25807705  0.25680485  1
  O  O395  1  0.11930645  0.25602027  0.75545523  1
  O  O396  1  0.11986905  0.74841258  0.25599795  1
  O  O397  1  0.11773891  0.74586800  0.75770221  1
  O  O398  1  0.62448830  0.25736608  0.26077381  1
  O  O399  1  0.62283331  0.25537984  0.75779207  1
  O  O400  1  0.62501450  0.75208615  0.24756224  1
  O  O401  1  0.61971848  0.75904229  0.75616346  1
  O  O402  1  0.37679418  0.24231894  0.24842765  1
  O  O403  1  0.37605496  0.25770173  0.73724208  1
  O  O404  1  0.37280417  0.74725135  0.23285235  1
  O  O405  1  0.37897858  0.74767629  0.74346235  1
  O  O406  1  0.87993274  0.24147636  0.25066010  1
  O  O407  1  0.88050557  0.24507730  0.74546131  1
  O  O408  1  0.87931941  0.74168398  0.24572343  1
  O  O409  1  0.87906423  0.74451293  0.74604134  1
  O  O410  1  0.37178110  0.48741337  0.49672869  1
  O  O411  1  0.38053258  0.49245441  0.99423760  1
  O  O412  1  0.38169817  0.99192558  0.49463724  1
  O  O413  1  0.37980385  0.99566487  0.98981267  1
  O  O414  1  0.87962500  0.49434926  0.49588037  1
  O  O415  1  0.87967181  0.49486303  0.99484966  1
  O  O416  1  0.88356252  0.99190846  0.49938526  1
  O  O417  1  0.88087847  1.00358901  0.98997607  1
  O  O418  1  0.12086216  0.00700292  0.00272455  1
  O  O419  1  0.11886915  0.00080525  0.50049848  1
  O  O420  1  0.11470160  0.50903649  -0.00660454  1
  O  O421  1  0.11928973  0.50410571  0.50450375  1
  O  O422  1  0.62038911  0.00637518  0.00321630  1
  O  O423  1  0.61253357  -0.00539917  0.49475118  1
  O  O424  1  0.60708261  0.49619439  -0.00635722  1
  O  O425  1  0.62146450  0.49946677  0.50791548  1
  O  O426  1  0.37122696  0.37359149  0.11138655  1
  O  O427  1  0.37415489  0.36667894  0.61649025  1
  O  O428  1  0.37187245  0.86490349  0.11559864  1
  O  O429  1  0.38082650  0.86396610  0.61671563  1
  O  O430  1  0.86503154  0.37195657  0.11973445  1
  O  O431  1  0.87026578  0.36891709  0.62066217  1
  O  O432  1  0.87025403  0.86925094  0.12199208  1
  O  O433  1  0.87711482  0.86880140  0.61364650  1
  O  O434  1  0.13296725  0.13262963  0.37587319  1
  O  O435  1  0.13242162  0.13180618  0.88023657  1
  O  O436  1  0.12998897  0.62985601  0.38074658  1
  O  O437  1  0.13008619  0.63155086  0.88109857  1
  O  O438  1  0.62708138  0.13625246  0.37700103  1
  O  O439  1  0.62560167  0.13180904  0.88273105  1
  O  O440  1  0.62939186  0.63026181  0.38615680  1
  O  O441  1  0.63106706  0.63239098  0.87732623  1
