# generated using pymatgen
data_V93Zn93O256
_symmetry_space_group_name_H-M   'P 1'
_cell_length_a   17.05633446
_cell_length_b   17.05314078
_cell_length_c   17.05584585
_cell_angle_alpha   90.01659874
_cell_angle_beta   89.99552534
_cell_angle_gamma   90.07846431
_symmetry_Int_Tables_number   1
_chemical_formula_structural   V93Zn93O256
_chemical_formula_sum   'V93 Zn93 O256'
_cell_volume   4960.92791072
_cell_formula_units_Z   1
loop_
 _symmetry_equiv_pos_site_id
 _symmetry_equiv_pos_as_xyz
  1  'x, y, z'
loop_
 _atom_site_type_symbol
 _atom_site_label
 _atom_site_symmetry_multiplicity
 _atom_site_fract_x
 _atom_site_fract_y
 _atom_site_fract_z
 _atom_site_occupancy
  V  V0  1  0.37509884  0.12475141  0.25055049  1
  V  V1  1  0.24968386  0.62542481  0.37478048  1
  V  V2  1  0.87510708  0.25150454  0.12536509  1
  V  V3  1  0.12651844  0.25069822  0.88239841  1
  V  V4  1  0.75029161  0.25098409  -0.00039529  1
  V  V5  1  0.24947003  0.50092636  0.24965356  1
  V  V6  1  0.37264116  0.87443871  -0.00039855  1
  V  V7  1  0.62543815  0.62436655  0.50048460  1
  V  V8  1  0.50078279  0.86827183  0.87108272  1
  V  V9  1  0.12487794  0.50131623  0.62451332  1
  V  V10  1  0.50002134  0.74916899  0.25005021  1
  V  V11  1  0.74969625  0.38317503  0.12907779  1
  V  V12  1  0.49750606  0.47740841  -0.00282404  1
  V  V13  1  0.12147091  0.50114118  0.11983173  1
  V  V14  1  0.62524276  0.87521062  0.25027224  1
  V  V15  1  0.00092573  0.00087607  -0.00007668  1
  V  V16  1  0.12555876  0.74902734  0.37543812  1
  V  V17  1  0.87361744  0.87488373  -0.00023298  1
  V  V18  1  0.24925310  -0.00057030  0.24993164  1
  V  V19  1  -0.00076085  0.74919037  0.24879461  1
  V  V20  1  0.12464015  0.87534935  0.25074877  1
  V  V21  1  0.12774124  -0.00207922  0.62824067  1
  V  V22  1  0.62575265  0.12470881  0.49898236  1
  V  V23  1  0.24985127  0.37506529  0.62217118  1
  V  V24  1  0.62257909  0.86777897  0.75127805  1
  V  V25  1  0.75063285  0.12563797  0.87502586  1
  V  V26  1  0.37488942  0.75038242  0.12528165  1
  V  V27  1  0.62507815  0.74963420  0.37624062  1
  V  V28  1  -0.00042592  0.12509605  0.62461358  1
  V  V29  1  0.75000110  0.12508355  0.37411487  1
  V  V30  1  0.50017751  -0.00036529  0.49951761  1
  V  V31  1  0.50033656  -0.00012859  -0.00174011  1
  V  V32  1  0.62229774  0.25204799  0.87554612  1
  V  V33  1  0.87479226  0.87436194  0.49980628  1
  V  V34  1  0.87434630  0.37639020  0.50016385  1
  V  V35  1  -0.00032215  0.62179540  0.11905023  1
  V  V36  1  -0.00032160  0.25020979  0.25043673  1
  V  V37  1  0.37602022  0.74970663  0.62784644  1
  V  V38  1  -0.00053012  0.50123964  0.49971017  1
  V  V39  1  0.37559911  0.62515521  0.24943004  1
  V  V40  1  0.25232622  0.37276148  0.12154100  1
  V  V41  1  0.74949678  -0.00112139  0.75011379  1
  V  V42  1  0.12432254  0.00046216  0.12354922  1
  V  V43  1  0.87398409  0.62481453  0.75017609  1
  V  V44  1  0.86823625  0.50092619  0.37162948  1
  V  V45  1  0.62481729  0.00132335  0.12531570  1
  V  V46  1  0.24980038  0.12516721  0.37470393  1
  V  V47  1  0.50577073  0.62527638  0.11436356  1
  V  V48  1  0.50024784  0.37679340  0.37444344  1
  V  V49  1  0.49932440  0.87492816  0.37591668  1
  V  V50  1  0.87482564  0.12620422  0.24963193  1
  V  V51  1  0.87580721  0.00011208  0.87481923  1
  V  V52  1  0.12251439  0.37513868  0.74945292  1
  V  V53  1  0.49989272  0.25036790  0.75157123  1
  V  V54  1  0.12541409  0.62513086  0.49951721  1
  V  V55  1  0.74254617  0.74758383  -0.00109798  1
  V  V56  1  -0.00080523  0.74955675  0.75102912  1
  V  V57  1  0.62901850  0.38509547  0.24835920  1
  V  V58  1  0.37544458  -0.00102053  0.37555944  1
  V  V59  1  0.25048560  0.12531719  0.87973443  1
  V  V60  1  0.12379492  0.37532801  0.25121696  1
  V  V61  1  0.37591600  0.24939233  0.62224513  1
  V  V62  1  0.75011527  0.37458899  0.62548402  1
  V  V63  1  0.74965598  0.87453280  0.62525064  1
  V  V64  1  0.50107889  0.12460983  0.62384547  1
  V  V65  1  0.50086541  0.25107929  0.24976729  1
  V  V66  1  0.37624281  0.49943305  0.37485319  1
  V  V67  1  0.37131233  0.25304679  0.12160539  1
  V  V68  1  0.12570731  0.74925387  0.87622205  1
  V  V69  1  0.74213115  0.62396695  0.87971067  1
  V  V70  1  0.87460508  0.25049265  0.62428715  1
  V  V71  1  0.86851012  0.62183106  0.24968917  1
  V  V72  1  0.49971161  0.12479273  0.12573724  1
  V  V73  1  0.12473077  0.12537618  0.50030098  1
  V  V74  1  0.25033490  0.25062051  0.50009301  1
  V  V75  1  0.25139033  0.49984904  0.75092896  1
  V  V76  1  0.87449029  0.12527633  0.74934855  1
  V  V77  1  0.62575698  0.25069616  0.37418882  1
  V  V78  1  0.12447816  0.25088529  0.37426734  1
  V  V79  1  0.75029341  0.87494924  0.12359428  1
  V  V80  1  -0.00027266  -0.00052715  0.49904629  1
  V  V81  1  0.62197166  0.37462021  0.75173212  1
  V  V82  1  0.87516911  0.74989349  0.62560733  1
  V  V83  1  0.87974010  0.37985647  -0.00018717  1
  V  V84  1  0.25285534  0.62327763  0.87927784  1
  V  V85  1  0.88120912  0.49996221  0.87834041  1
  V  V86  1  0.74875197  0.49890011  0.75129220  1
  V  V87  1  -0.00017085  0.25113578  0.75127494  1
  V  V88  1  -0.00062530  0.87489983  0.37495530  1
  V  V89  1  0.00025019  0.87417268  0.87482185  1
  V  V90  1  0.75076003  0.00063068  0.24903407  1
  V  V91  1  0.50203396  0.62660589  0.63105182  1
  V  V92  1  0.38038641  0.62623370  0.75435279  1
  Zn  Zn93  1  0.87497430  -0.00038048  0.37407836  1
  Zn  Zn94  1  0.62625784  0.12568821  0.00074811  1
  Zn  Zn95  1  0.61834036  0.74173081  0.87461765  1
  Zn  Zn96  1  0.37292658  -0.00011820  0.87077396  1
  Zn  Zn97  1  0.37746188  0.37676848  0.49962880  1
  Zn  Zn98  1  0.75155837  0.74949019  0.49783530  1
  Zn  Zn99  1  0.25081222  0.75158725  0.50152460  1
  Zn  Zn100  1  0.31001262  0.30901425  -0.04243549  1
  Zn  Zn101  1  0.00029157  0.62607302  0.62525408  1
  Zn  Zn102  1  -0.00013817  0.12659078  0.12349897  1
  Zn  Zn103  1  0.25160019  0.87284091  0.62646999  1
  Zn  Zn104  1  0.37454100  0.87212013  0.50191729  1
  Zn  Zn105  1  0.37666822  0.47587110  0.88180065  1
  Zn  Zn106  1  0.74632201  0.62379678  0.37070548  1
  Zn  Zn107  1  0.12855550  0.87462183  0.74984678  1
  Zn  Zn108  1  0.12648797  0.13013380  0.00295633  1
  Zn  Zn109  1  -0.00161485  0.37661643  0.37476215  1
  Zn  Zn110  1  0.49958730  0.49829750  0.50197732  1
  Zn  Zn111  1  0.62929073  0.50813408  0.11654261  1
  Zn  Zn112  1  0.11985207  0.62207735  -0.00195119  1
  Zn  Zn113  1  0.62415276  -0.00166816  0.62539016  1
  Zn  Zn114  1  0.62382176  0.49931532  0.62455212  1
  Zn  Zn115  1  0.75081750  0.24952794  0.49935500  1
  Zn  Zn116  1  0.87492493  0.74868489  0.12432396  1
  Zn  Zn117  1  0.25438834  -0.00214744  0.75021290  1
  Zn  Zn118  1  0.24958207  0.87344787  0.12496424  1
  Zn  Zn119  1  0.24811360  0.74811125  0.00312085  1
  Zn  Zn120  1  0.00202009  0.37743493  0.87878610  1
  Zn  Zn121  1  0.37362889  0.12193311  0.75022899  1
  Zn  Zn122  1  0.18758799  0.18735099  0.18751419  1
  Zn  Zn123  1  0.18788914  0.18611359  0.69127385  1
  Zn  Zn124  1  0.18706037  0.68786681  0.18730427  1
  Zn  Zn125  1  0.19059086  0.68582691  0.68934562  1
  Zn  Zn126  1  0.68803812  0.19109203  0.18755741  1
  Zn  Zn127  1  0.68750239  0.18664318  0.68590203  1
  Zn  Zn128  1  0.68695266  0.68990642  0.18608871  1
  Zn  Zn129  1  0.68986449  0.68773527  0.68832455  1
  Zn  Zn130  1  0.31245109  0.31386021  0.30992383  1
  Zn  Zn131  1  0.30851847  0.30723492  0.79691872  1
  Zn  Zn132  1  0.31191077  0.81268293  0.31258606  1
  Zn  Zn133  1  0.31167809  0.81264536  0.80990995  1
  Zn  Zn134  1  0.81175567  0.31367696  0.31302273  1
  Zn  Zn135  1  0.81151729  0.31334935  0.81298292  1
  Zn  Zn136  1  0.81266057  0.80983514  0.31230679  1
  Zn  Zn137  1  0.81061668  0.81121315  0.81325563  1
  Zn  Zn138  1  0.18778870  0.43836051  0.43737830  1
  Zn  Zn139  1  0.18461433  0.44069233  0.93612341  1
  Zn  Zn140  1  0.18980622  0.93498634  0.44171562  1
  Zn  Zn141  1  0.18788873  0.93954739  0.93562576  1
  Zn  Zn142  1  0.68707016  0.43829666  0.43856503  1
  Zn  Zn143  1  0.68651637  0.43853051  0.94031833  1
  Zn  Zn144  1  0.68791607  0.93820923  0.43764294  1
  Zn  Zn145  1  0.68629732  0.93633252  0.93620142  1
  Zn  Zn146  1  0.31140043  0.06401136  0.06132012  1
  Zn  Zn147  1  0.31375796  0.06297717  0.56199438  1
  Zn  Zn148  1  0.31752015  0.55864038  0.06261161  1
  Zn  Zn149  1  0.31336257  0.56322531  0.56155871  1
  Zn  Zn150  1  0.81323271  0.06401268  0.06204250  1
  Zn  Zn151  1  0.81148939  0.06035760  0.56166245  1
  Zn  Zn152  1  0.81419577  0.56456810  0.06103292  1
  Zn  Zn153  1  0.81087606  0.56216746  0.56286460  1
  Zn  Zn154  1  0.43978033  0.43946937  0.18500366  1
  Zn  Zn155  1  0.43622542  0.43923065  0.68849314  1
  Zn  Zn156  1  0.43729666  0.93687805  0.18763871  1
  Zn  Zn157  1  0.43842942  0.93871396  0.68851740  1
  Zn  Zn158  1  0.93793042  0.43849663  0.18870090  1
  Zn  Zn159  1  0.93754230  0.43902717  0.68801638  1
  Zn  Zn160  1  0.93687040  0.93784555  0.18669518  1
  Zn  Zn161  1  0.93951473  0.93610194  0.68767956  1
  Zn  Zn162  1  0.06089690  0.06348765  0.31195706  1
  Zn  Zn163  1  0.06367460  0.06502375  0.81285304  1
  Zn  Zn164  1  0.05847237  0.56222117  0.31041544  1
  Zn  Zn165  1  0.06299549  0.56426919  0.81097196  1
  Zn  Zn166  1  0.56298471  0.06271747  0.31265566  1
  Zn  Zn167  1  0.56434020  0.06118474  0.81163740  1
  Zn  Zn168  1  0.56052579  0.56398202  0.31088915  1
  Zn  Zn169  1  0.55811088  0.55488941  0.81875463  1
  Zn  Zn170  1  0.43843593  0.18828258  0.43756233  1
  Zn  Zn171  1  0.43961690  0.18422805  0.93573254  1
  Zn  Zn172  1  0.43855428  0.68574595  0.44105665  1
  Zn  Zn173  1  0.43526717  0.68809952  0.93830967  1
  Zn  Zn174  1  0.93713292  0.18806278  0.43654539  1
  Zn  Zn175  1  0.93940418  0.18880724  0.93880772  1
  Zn  Zn176  1  0.93803019  0.68674931  0.43690161  1
  Zn  Zn177  1  0.93209753  0.68848459  0.93764864  1
  Zn  Zn178  1  0.06119667  0.31625171  0.06581701  1
  Zn  Zn179  1  0.06108864  0.31399510  0.56152138  1
  Zn  Zn180  1  0.06135818  0.81165590  0.06233035  1
  Zn  Zn181  1  0.06166659  0.81203997  0.56217890  1
  Zn  Zn182  1  0.56417227  0.31136366  0.06543161  1
  Zn  Zn183  1  0.56318488  0.31177845  0.56170817  1
  Zn  Zn184  1  0.56194874  0.81275723  0.06229052  1
  Zn  Zn185  1  0.56083958  0.81069286  0.56414884  1
  O  O186  1  0.12409897  0.11349030  0.12405154  1
  O  O187  1  0.11888685  0.11945648  0.61958958  1
  O  O188  1  0.11745824  0.61781753  0.12485651  1
  O  O189  1  0.12520676  0.61827825  0.61897243  1
  O  O190  1  0.61822611  0.12019097  0.12422683  1
  O  O191  1  0.61915324  0.12374295  0.61737658  1
  O  O192  1  0.61168256  0.62238810  0.13540328  1
  O  O193  1  0.61798230  0.62569587  0.62074100  1
  O  O194  1  0.38168860  0.38128862  0.37312185  1
  O  O195  1  0.36073746  0.36521655  0.87602108  1
  O  O196  1  0.38250971  0.88145922  0.37441826  1
  O  O197  1  0.38336083  0.87521964  0.88289491  1
  O  O198  1  0.87509522  0.38389701  0.38049175  1
  O  O199  1  0.87326479  0.38290696  0.88291847  1
  O  O200  1  0.88172683  0.87556432  0.38056982  1
  O  O201  1  0.87999817  0.88098960  0.87953666  1
  O  O202  1  0.25466470  0.00597338  0.37024260  1
  O  O203  1  0.25022082  0.01006416  0.87154940  1
  O  O204  1  0.25503339  0.50549476  0.36817611  1
  O  O205  1  0.25064107  0.50973711  0.87031093  1
  O  O206  1  0.75089356  0.00640634  0.36608557  1
  O  O207  1  0.75623975  0.00540737  0.87065409  1
  O  O208  1  0.76403665  0.50393366  0.37978332  1
  O  O209  1  0.75669309  0.50649728  0.87139227  1
  O  O210  1  0.24339595  0.49397715  0.13158489  1
  O  O211  1  0.24491278  0.49542908  0.63042955  1
  O  O212  1  0.24082348  0.99847185  0.13104304  1
  O  O213  1  0.23741897  1.00273188  0.62477846  1
  O  O214  1  0.74771936  0.48694069  0.11724510  1
  O  O215  1  0.74745364  0.49308247  0.63415508  1
  O  O216  1  0.74419693  0.99515568  0.12883009  1
  O  O217  1  0.74887002  0.99237613  0.63263736  1
  O  O218  1  0.00640869  0.36802897  0.25153335  1
  O  O219  1  0.00567944  0.36886054  0.75114175  1
  O  O220  1  0.00466060  0.86989499  0.25498419  1
  O  O221  1  0.00228932  0.86736401  0.75822058  1
  O  O222  1  0.50889231  0.37008953  0.25362044  1
  O  O223  1  0.51012496  0.36219377  0.74337310  1
  O  O224  1  0.50594496  0.86983608  0.25509084  1
  O  O225  1  0.51040493  0.88216318  0.76140902  1
  O  O226  1  0.49460384  0.13014633  0.24532389  1
  O  O227  1  0.50384922  0.13589560  0.74310316  1
  O  O228  1  0.49285114  0.63112248  0.24290368  1
  O  O229  1  0.49032688  0.61672487  0.74535496  1
  O  O230  1  0.99297557  0.13215927  0.24811171  1
  O  O231  1  0.99311628  0.13065859  0.74415181  1
  O  O232  1  0.99188998  0.63083243  0.24117854  1
  O  O233  1  0.99160153  0.63177619  0.74955267  1
  O  O234  1  0.37925390  0.24204191  0.01775252  1
  O  O235  1  0.36785051  0.25200101  0.50455310  1
  O  O236  1  0.37409642  0.76138772  0.00633042  1
  O  O237  1  0.37412970  0.74776798  0.51280267  1
  O  O238  1  0.86946844  0.25882994  0.00451734  1
  O  O239  1  0.87473913  0.25728729  0.50663682  1
  O  O240  1  0.86341172  0.75776317  0.00108159  1
  O  O241  1  0.87533130  0.75628364  0.50659413  1
  O  O242  1  0.12979075  0.24462221  0.49495071  1
  O  O243  1  0.11614112  0.25214513  0.98638308  1
  O  O244  1  0.12474456  0.74278951  0.49273891  1
  O  O245  1  0.12625139  0.74675615  0.98831165  1
  O  O246  1  0.62686101  0.24308834  0.49169194  1
  O  O247  1  0.63003562  0.25029682  0.99037819  1
  O  O248  1  0.62428632  0.74078406  0.49422703  1
  O  O249  1  0.63886992  0.75786848  0.99566734  1
  O  O250  1  0.49273016  0.24446295  0.13134170  1
  O  O251  1  0.49660629  0.24430809  0.63163846  1
  O  O252  1  0.49582421  0.74505393  0.13076969  1
  O  O253  1  0.49173711  0.73508240  0.62392677  1
  O  O254  1  0.99320515  0.24958619  0.13232025  1
  O  O255  1  0.99498787  0.24427911  0.63037900  1
  O  O256  1  0.99925889  0.74120119  0.13158614  1
  O  O257  1  0.99335766  0.74891205  0.63312401  1
  O  O258  1  0.00728010  0.25211269  0.36890375  1
  O  O259  1  0.00720480  0.25217968  0.86762535  1
  O  O260  1  0.00633055  0.75514901  0.36866830  1
  O  O261  1  0.00634975  0.75304217  0.87178256  1
  O  O262  1  0.50550362  0.25597137  0.36831858  1
  O  O263  1  0.51191769  0.24176710  0.86453571  1
  O  O264  1  0.50479877  0.75451370  0.36931747  1
  O  O265  1  0.50259776  0.76379502  0.88217368  1
  O  O266  1  0.24409420  0.13102164  0.49364922  1
  O  O267  1  0.24498800  0.12043011  0.98715118  1
  O  O268  1  0.24254214  0.62513421  0.49153212  1
  O  O269  1  0.25133226  0.62491975  0.98873948  1
  O  O270  1  0.74400822  0.12500733  0.49263185  1
  O  O271  1  0.74890210  0.13218747  0.99334413  1
  O  O272  1  0.73653150  0.62758595  0.50060567  1
  O  O273  1  0.75528561  0.63475836  0.99117306  1
  O  O274  1  0.24246267  0.37871456  0.01761088  1
  O  O275  1  0.25058985  0.36803120  0.50567880  1
  O  O276  1  0.26336549  0.87564801  -0.00009951  1
  O  O277  1  0.25623620  0.87057637  0.50692643  1
  O  O278  1  0.75805597  0.36923577  0.00778783  1
  O  O279  1  0.75597064  0.37372004  0.50771889  1
  O  O280  1  0.75481342  0.86939630  0.00349004  1
  O  O281  1  0.75621362  0.87426860  0.50666316  1
  O  O282  1  0.13022964  0.49582985  0.24249597  1
  O  O283  1  0.13068200  0.49552963  0.74503861  1
  O  O284  1  0.12872687  0.99557051  0.24264644  1
  O  O285  1  0.12242370  1.00014618  0.73727495  1
  O  O286  1  0.62060700  0.48684219  0.24667409  1
  O  O287  1  0.62860172  0.48748714  0.75250774  1
  O  O288  1  0.63012101  0.99475760  0.24439817  1
  O  O289  1  0.63249823  0.98999445  0.74906563  1
  O  O290  1  0.36994039  0.00525578  0.25475766  1
  O  O291  1  0.37399712  0.00537618  0.75291940  1
  O  O292  1  0.36942010  0.50591642  0.25421859  1
  O  O293  1  0.36878465  0.50810125  0.75573782  1
  O  O294  1  0.86805629  0.00702972  0.25001404  1
  O  O295  1  0.87065744  0.00530610  0.75565489  1
  O  O296  1  0.88218357  0.50957229  0.26063666  1
  O  O297  1  0.86773550  0.50355003  0.75859353  1
  O  O298  1  0.12449327  0.36887878  0.36841935  1
  O  O299  1  0.12364166  0.36888639  0.86904081  1
  O  O300  1  0.11931283  0.86994625  0.37013942  1
  O  O301  1  0.11939369  0.86449004  0.87536274  1
  O  O302  1  0.62217630  0.37110925  0.36673334  1
  O  O303  1  0.63369421  0.36181551  0.86330245  1
  O  O304  1  0.61908949  0.87028952  0.36932919  1
  O  O305  1  0.61731083  0.87447496  0.86761687  1
  O  O306  1  0.37876543  0.13114710  0.13208563  1
  O  O307  1  0.38353213  0.13258390  0.62408605  1
  O  O308  1  0.38304038  0.63136028  0.13102869  1
  O  O309  1  0.38208595  0.62818903  0.63416237  1
  O  O310  1  0.87485134  0.13366743  0.13166221  1
  O  O311  1  0.87998781  0.12975000  0.62969012  1
  O  O312  1  0.88308642  0.62322563  0.13280498  1
  O  O313  1  0.87478169  0.63132709  0.63258736  1
  O  O314  1  0.25870238  0.25951960  0.13211605  1
  O  O315  1  0.25445413  0.25426707  0.61993132  1
  O  O316  1  0.25751654  0.75283938  0.12270139  1
  O  O317  1  0.26240861  0.74718397  0.62387630  1
  O  O318  1  0.75582341  0.25970241  0.11920573  1
  O  O319  1  0.75756654  0.25585307  0.62400129  1
  O  O320  1  0.75112284  0.75669156  0.11573291  1
  O  O321  1  0.75805498  0.75753209  0.62397327  1
  O  O322  1  0.24470112  0.24449599  0.37870201  1
  O  O323  1  0.24035847  0.24435406  0.87620000  1
  O  O324  1  0.24310247  0.74252412  0.37452686  1
  O  O325  1  0.24110354  0.74100011  0.87567868  1
  O  O326  1  0.74338425  0.24302890  0.37561098  1
  O  O327  1  0.74289886  0.24470723  0.87897050  1
  O  O328  1  0.74018672  0.74652583  0.37681129  1
  O  O329  1  0.74968214  0.74019467  0.88234294  1
  O  O330  1  0.00300124  0.11618767  0.00282360  1
  O  O331  1  0.00523707  0.12025987  0.50505348  1
  O  O332  1  -0.00275696  0.63037332  0.01494287  1
  O  O333  1  0.00732664  0.61855765  0.50171835  1
  O  O334  1  0.50211688  0.11409673  0.00585637  1
  O  O335  1  0.50631973  0.12016562  0.50341096  1
  O  O336  1  0.49827753  0.63001332  0.01306891  1
  O  O337  1  0.51034768  0.62262158  0.50983017  1
  O  O338  1  0.49948924  0.37702461  0.49085701  1
  O  O339  1  0.49495850  0.37821355  1.00464042  1
  O  O340  1  0.49917525  0.88112979  0.49308997  1
  O  O341  1  0.49334600  0.88254743  0.99381727  1
  O  O342  1  0.99244467  0.38298468  0.49859893  1
  O  O343  1  0.98341714  0.37319204  1.00041757  1
  O  O344  1  0.99451756  0.88011977  0.49415269  1
  O  O345  1  0.99340310  0.87997598  0.99415160  1
  O  O346  1  0.49283039  0.49373748  0.37390822  1
  O  O347  1  0.49412070  0.50006835  0.89256926  1
  O  O348  1  0.49482104  0.99489533  0.37872575  1
  O  O349  1  0.50029459  0.99286621  0.88605572  1
  O  O350  1  0.98989417  0.49908265  0.38199844  1
  O  O351  1  0.98535412  0.49946455  0.87025462  1
  O  O352  1  0.99988299  0.99317957  0.38128297  1
  O  O353  1  0.99538261  0.99476846  0.87942629  1
  O  O354  1  0.00961750  0.00069705  0.12001786  1
  O  O355  1  0.00660740  0.00584848  0.61917506  1
  O  O356  1  0.01090130  0.50952932  0.13303917  1
  O  O357  1  0.00666190  0.50254406  0.61872524  1
  O  O358  1  0.50472938  0.00431444  0.11798714  1
  O  O359  1  0.50185014  0.00696624  0.61701049  1
  O  O360  1  0.50087968  0.50684196  0.11324571  1
  O  O361  1  0.50196954  0.51207731  0.62440845  1
  O  O362  1  0.24285716  0.38116420  0.24217314  1
  O  O363  1  0.24066832  0.38047912  0.73987899  1
  O  O364  1  0.24269228  0.88244848  0.24953980  1
  O  O365  1  0.24548098  0.87850317  0.74450667  1
  O  O366  1  0.74170945  0.36986042  0.23955601  1
  O  O367  1  0.74192152  0.37856353  0.74503047  1
  O  O368  1  0.74468449  0.87996513  0.24389056  1
  O  O369  1  0.74373394  0.88032361  0.74647678  1
  O  O370  1  0.25513048  0.11911804  0.25611080  1
  O  O371  1  0.25102221  0.12484238  0.76376615  1
  O  O372  1  0.25576548  0.62003325  0.25477439  1
  O  O373  1  0.25818753  0.61825851  0.75973000  1
  O  O374  1  0.75459912  0.12056708  0.25391723  1
  O  O375  1  0.75561765  0.11964235  0.75464605  1
  O  O376  1  0.76478920  0.62992051  0.24774453  1
  O  O377  1  0.75549423  0.61914891  0.75866729  1
  O  O378  1  0.36989504  0.11990581  0.36935316  1
  O  O379  1  0.36439010  0.12478050  0.87439239  1
  O  O380  1  0.37060224  0.62028195  0.36863632  1
  O  O381  1  0.36601843  0.62973477  0.86755087  1
  O  O382  1  0.86829643  0.12381077  0.36784326  1
  O  O383  1  0.87033812  0.12023496  0.86900701  1
  O  O384  1  0.87424959  0.61873346  0.36669645  1
  O  O385  1  0.86587002  0.61721661  0.87085143  1
  O  O386  1  0.13088266  0.38211124  0.13199004  1
  O  O387  1  0.12982328  0.38106436  0.62917969  1
  O  O388  1  0.12561815  0.88415030  0.13092143  1
  O  O389  1  0.12343707  0.88684570  0.62535972  1
  O  O390  1  0.63438550  0.37332647  0.13368989  1
  O  O391  1  0.63079274  0.37414167  0.63586348  1
  O  O392  1  0.62964946  0.88102628  0.13106285  1
  O  O393  1  0.62948458  0.87485936  0.63415019  1
  O  O394  1  0.11992720  0.25462115  0.25486521  1
  O  O395  1  0.11928742  0.25602310  0.75872153  1
  O  O396  1  0.11924809  0.75558040  0.25540678  1
  O  O397  1  0.11891399  0.74708201  0.76187377  1
  O  O398  1  0.61919242  0.25860621  0.25504241  1
  O  O399  1  0.61984966  0.25578453  0.75591859  1
  O  O400  1  0.61928102  0.75664543  0.25599287  1
  O  O401  1  0.63144049  0.76396853  0.75455729  1
  O  O402  1  0.38070689  0.24362996  0.24289478  1
  O  O403  1  0.38660667  0.24529749  0.74045543  1
  O  O404  1  0.38091880  0.74559352  0.24502907  1
  O  O405  1  0.37076059  0.73517025  0.74242652  1
  O  O406  1  0.87975400  0.24647974  0.24500751  1
  O  O407  1  0.87923365  0.24479743  0.74480441  1
  O  O408  1  0.88211231  0.74099353  0.24802207  1
  O  O409  1  0.87958987  0.74487116  0.74647752  1
  O  O410  1  0.37718437  0.49822700  0.49024014  1
  O  O411  1  0.39039475  0.49880906  1.00101908  1
  O  O412  1  0.38247976  0.99959834  0.49216936  1
  O  O413  1  0.38591350  0.99119094  1.00147703  1
  O  O414  1  0.87993941  0.49676600  0.49330293  1
  O  O415  1  0.86718398  0.49078356  0.98921694  1
  O  O416  1  0.88259946  0.99290771  0.49844332  1
  O  O417  1  0.88000042  0.99497332  0.99395342  1
  O  O418  1  0.11879132  -0.00249231  0.01014057  1
  O  O419  1  0.11938973  0.00619722  0.50738808  1
  O  O420  1  0.12706751  0.50215347  0.01568729  1
  O  O421  1  0.11980116  0.50519260  0.50451446  1
  O  O422  1  0.61517320  -0.00038728  0.00625695  1
  O  O423  1  0.61767976  0.00690282  0.50034577  1
  O  O424  1  0.60677510  0.49127980  0.00162440  1
  O  O425  1  0.62261129  0.51088404  0.50263289  1
  O  O426  1  0.36427223  0.36482007  0.13444883  1
  O  O427  1  0.36800063  0.36819755  0.62432972  1
  O  O428  1  0.37574438  0.86967049  0.11616392  1
  O  O429  1  0.37994870  0.85966018  0.62699511  1
  O  O430  1  0.86809564  0.37275552  0.11996496  1
  O  O431  1  0.86963221  0.37047220  0.62072649  1
  O  O432  1  0.86774710  0.87421510  0.11803726  1
  O  O433  1  0.87043056  0.86982668  0.62020436  1
  O  O434  1  0.13051490  0.13029935  0.38008778  1
  O  O435  1  0.13096309  0.13533031  0.87606724  1
  O  O436  1  0.12957023  0.62918180  0.37818296  1
  O  O437  1  0.13321401  0.63068505  0.87697217  1
  O  O438  1  0.63003225  0.13096323  0.37835570  1
  O  O439  1  0.63239483  0.13525463  0.87536525  1
  O  O440  1  0.62396930  0.62991521  0.38269587  1
  O  O441  1  0.63854700  0.62377217  0.86787467  1
