# generated using pymatgen
data_V93Zn93O256
_symmetry_space_group_name_H-M   'P 1'
_cell_length_a   17.05793104
_cell_length_b   17.05280597
_cell_length_c   17.05390057
_cell_angle_alpha   89.98481503
_cell_angle_beta   90.05444211
_cell_angle_gamma   90.06133666
_symmetry_Int_Tables_number   1
_chemical_formula_structural   V93Zn93O256
_chemical_formula_sum   'V93 Zn93 O256'
_cell_volume   4960.72864348
_cell_formula_units_Z   1
loop_
 _symmetry_equiv_pos_site_id
 _symmetry_equiv_pos_as_xyz
  1  'x, y, z'
loop_
 _atom_site_type_symbol
 _atom_site_label
 _atom_site_symmetry_multiplicity
 _atom_site_fract_x
 _atom_site_fract_y
 _atom_site_fract_z
 _atom_site_occupancy
  V  V0  1  0.62451178  0.62448557  -0.00192885  1
  V  V1  1  0.00168048  0.37769483  0.37800765  1
  V  V2  1  0.49983182  0.50005645  -0.00192737  1
  V  V3  1  0.74919543  0.37395782  0.62460699  1
  V  V4  1  0.00481538  0.61114093  0.62264283  1
  V  V5  1  0.87533176  0.62366423  0.74843588  1
  V  V6  1  0.49508018  -0.00729371  0.00079985  1
  V  V7  1  0.62394816  0.12440508  -0.00084688  1
  V  V8  1  0.00173659  0.87559945  0.37717229  1
  V  V9  1  -0.00110641  0.12594085  0.12602477  1
  V  V10  1  0.12266369  0.61362497  0.50359541  1
  V  V11  1  0.74953734  0.75214063  0.00078940  1
  V  V12  1  0.37513456  0.62536580  0.25003120  1
  V  V13  1  0.50596779  0.75389655  0.74877207  1
  V  V14  1  0.24899707  0.74977991  0.49823502  1
  V  V15  1  0.37459706  0.25046883  0.12381904  1
  V  V16  1  0.37139215  0.50031382  0.87019542  1
  V  V17  1  0.75208021  0.12423803  0.37773126  1
  V  V18  1  0.75226790  -0.00055396  0.25163492  1
  V  V19  1  0.00017916  0.25048518  0.24931784  1
  V  V20  1  0.12451145  0.50093393  0.12298351  1
  V  V21  1  0.75175247  0.74931667  0.50024541  1
  V  V22  1  0.50148230  0.87564552  0.37613567  1
  V  V23  1  -0.00299158  0.87578536  0.87663203  1
  V  V24  1  0.61840387  0.24889273  0.87050747  1
  V  V25  1  0.37585553  0.74889195  0.62630774  1
  V  V26  1  0.74430843  0.87393886  0.63030272  1
  V  V27  1  0.87689775  0.87516349  0.50168521  1
  V  V28  1  0.12310016  0.12602739  0.00004795  1
  V  V29  1  0.87739197  0.74888827  0.62492270  1
  V  V30  1  0.50357370  0.87525302  0.87073043  1
  V  V31  1  0.87260577  0.37476574  0.00146602  1
  V  V32  1  0.38095131  0.25099242  0.62900410  1
  V  V33  1  0.62384445  0.49975045  0.12343943  1
  V  V34  1  0.00066810  0.62542001  0.12485576  1
  V  V35  1  0.50037168  0.37457241  0.37469302  1
  V  V36  1  0.74998274  0.37383538  0.12510317  1
  V  V37  1  0.24820285  0.25079236  -0.00077210  1
  V  V38  1  0.37689338  0.37577122  0.49898485  1
  V  V39  1  0.75073396  0.24982336  0.50123538  1
  V  V40  1  0.74352484  -0.00426964  0.75050589  1
  V  V41  1  0.00049448  0.00245027  0.50630227  1
  V  V42  1  0.87642885  0.62538214  0.24980301  1
  V  V43  1  0.87926390  0.13027266  0.74797832  1
  V  V44  1  0.50153509  0.75001006  0.24926214  1
  V  V45  1  0.12449560  0.87617554  0.74880982  1
  V  V46  1  0.74762234  0.12357959  0.87491285  1
  V  V47  1  0.62535705  -0.00051220  0.12563059  1
  V  V48  1  0.25011302  0.00073965  0.25037837  1
  V  V49  1  0.87719299  0.37762203  0.50007835  1
  V  V50  1  0.50052972  0.24951521  0.24947964  1
  V  V51  1  0.25161754  0.50063178  0.24830967  1
  V  V52  1  0.37218035  -0.00567926  0.87911496  1
  V  V53  1  0.75027710  0.50070993  0.24964957  1
  V  V54  1  -0.00138528  0.50091231  0.00003943  1
  V  V55  1  0.62481759  0.37487593  0.24880614  1
  V  V56  1  0.50080202  0.49972661  0.49877420  1
  V  V57  1  0.00125993  0.74999954  0.24980484  1
  V  V58  1  0.24964430  0.62555744  0.87485470  1
  V  V59  1  -0.00159409  -0.00057569  0.00077270  1
  V  V60  1  0.37895957  0.12798951  0.75210542  1
  V  V61  1  0.62625195  0.24923118  0.37551780  1
  V  V62  1  0.25139689  0.24980365  0.49982944  1
  V  V63  1  0.87797921  0.50057651  0.37643008  1
  V  V64  1  0.49795889  0.37200402  0.87021344  1
  V  V65  1  0.12510330  0.74869945  0.87738339  1
  V  V66  1  0.24588680  0.38137910  0.62802625  1
  V  V67  1  0.37339975  0.37558293  -0.00191000  1
  V  V68  1  0.87456203  0.25013702  0.12527238  1
  V  V69  1  0.62043689  0.37251572  0.75011247  1
  V  V70  1  0.50295920  0.12503471  0.62659535  1
  V  V71  1  0.25162153  0.12553859  0.37559895  1
  V  V72  1  0.62378626  0.49853084  0.62433843  1
  V  V73  1  0.12695580  0.87570400  0.24959845  1
  V  V74  1  0.12502799  0.12612349  0.50143637  1
  V  V75  1  0.37449793  0.12487004  0.25080035  1
  V  V76  1  -0.00253859  0.36973033  0.86993563  1
  V  V77  1  0.11927080  0.25157781  0.86710646  1
  V  V78  1  0.74832416  0.62492465  0.87416637  1
  V  V79  1  0.62656636  0.62456137  0.49813062  1
  V  V80  1  0.24916864  0.37600631  0.12314904  1
  V  V81  1  0.62679365  0.87418000  0.25089409  1
  V  V82  1  0.37636168  0.87557966  0.49843166  1
  V  V83  1  0.12687195  0.74905702  0.37571471  1
  V  V84  1  0.37337876  0.75716530  0.11823181  1
  V  V85  1  0.24862291  0.87736300  0.62582392  1
  V  V86  1  0.49976121  0.12446098  0.12511182  1
  V  V87  1  0.24915624  0.12572688  0.87477108  1
  V  V88  1  -0.00061698  0.74926356  0.74910122  1
  V  V89  1  0.12445931  0.00069379  0.12677918  1
  V  V90  1  0.12506190  0.37552984  0.24919258  1
  V  V91  1  0.74775300  0.49933094  0.75014692  1
  V  V92  1  0.87332270  0.49856813  0.87556537  1
  Zn  Zn93  1  0.74786100  0.24836606  0.00136328  1
  Zn  Zn94  1  0.62050798  -0.00626248  0.62730574  1
  Zn  Zn95  1  0.75235731  0.87449912  0.12529725  1
  Zn  Zn96  1  0.37680136  0.00084464  0.37589816  1
  Zn  Zn97  1  0.24856111  0.62238690  0.37621511  1
  Zn  Zn98  1  0.87607519  0.75224460  0.12503163  1
  Zn  Zn99  1  0.11188618  0.37647618  0.73849674  1
  Zn  Zn100  1  0.87284777  0.87674607  0.00321575  1
  Zn  Zn101  1  0.75269536  0.62640214  0.37450513  1
  Zn  Zn102  1  0.49928270  0.62464481  0.62591395  1
  Zn  Zn103  1  0.12597886  0.00389285  0.62867914  1
  Zn  Zn104  1  0.23735886  0.50780105  0.74055008  1
  Zn  Zn105  1  0.37500047  0.62466951  0.74877113  1
  Zn  Zn106  1  0.12525831  0.25089022  0.37450964  1
  Zn  Zn107  1  0.62926098  0.74881048  0.37322508  1
  Zn  Zn108  1  0.88176820  0.25567224  0.63106078  1
  Zn  Zn109  1  0.62619215  0.75348269  0.87013945  1
  Zn  Zn110  1  0.25648241  0.75886463  -0.00557569  1
  Zn  Zn111  1  0.87275828  0.00092722  0.87599434  1
  Zn  Zn112  1  0.49982375  0.62557835  0.12291291  1
  Zn  Zn113  1  0.01001152  0.14110467  0.63655859  1
  Zn  Zn114  1  0.25382534  0.88076764  0.11742398  1
  Zn  Zn115  1  0.50253337  0.00012453  0.50175020  1
  Zn  Zn116  1  0.87716441  0.00061471  0.37664457  1
  Zn  Zn117  1  0.37571367  0.50062091  0.37351843  1
  Zn  Zn118  1  0.12555207  0.62548619  0.00015881  1
  Zn  Zn119  1  0.24866659  0.00133405  0.75128594  1
  Zn  Zn120  1  0.62482167  0.12177954  0.50327215  1
  Zn  Zn121  1  0.87694549  0.12465351  0.25111626  1
  Zn  Zn122  1  0.18642719  0.18807417  0.18812838  1
  Zn  Zn123  1  0.19323575  0.19146078  0.68746156  1
  Zn  Zn124  1  0.18936775  0.68767354  0.18712908  1
  Zn  Zn125  1  0.18580448  0.68761749  0.68767932  1
  Zn  Zn126  1  0.68821011  0.18565205  0.18834127  1
  Zn  Zn127  1  0.69141058  0.18787665  0.68992641  1
  Zn  Zn128  1  0.68810697  0.68591461  0.18552459  1
  Zn  Zn129  1  0.68738564  0.68631052  0.68475401  1
  Zn  Zn130  1  0.31260289  0.31221533  0.31227895  1
  Zn  Zn131  1  0.31033168  0.31089558  0.81122328  1
  Zn  Zn132  1  0.31288592  0.81258336  0.31010310  1
  Zn  Zn133  1  0.31412637  0.81338124  0.81060233  1
  Zn  Zn134  1  0.81332883  0.31179096  0.31174094  1
  Zn  Zn135  1  0.80655115  0.31044605  0.81558268  1
  Zn  Zn136  1  0.81530828  0.81215955  0.31547329  1
  Zn  Zn137  1  0.81262809  0.81059613  0.81293556  1
  Zn  Zn138  1  0.19202825  0.43694352  0.43577620  1
  Zn  Zn139  1  0.18323134  0.43868379  0.93349315  1
  Zn  Zn140  1  0.18794390  0.93935737  0.43751948  1
  Zn  Zn141  1  0.18683890  0.93654542  0.94075498  1
  Zn  Zn142  1  0.68958401  0.43733043  0.43627208  1
  Zn  Zn143  1  0.68662467  0.43577299  0.93754375  1
  Zn  Zn144  1  0.68558687  0.93836130  0.44234610  1
  Zn  Zn145  1  0.68440014  0.93780909  0.93672184  1
  Zn  Zn146  1  0.31076788  0.06372608  0.06247535  1
  Zn  Zn147  1  0.31619999  0.06139251  0.56106011  1
  Zn  Zn148  1  0.31240145  0.56688213  0.06008818  1
  Zn  Zn149  1  0.31252286  0.56393075  0.55706294  1
  Zn  Zn150  1  0.81341405  0.06222001  0.06214784  1
  Zn  Zn151  1  0.81306303  0.06034138  0.56624074  1
  Zn  Zn152  1  0.81223338  0.56457226  0.06322665  1
  Zn  Zn153  1  0.81330744  0.56152143  0.56314699  1
  Zn  Zn154  1  0.43802141  0.43819036  0.18581098  1
  Zn  Zn155  1  0.43710345  0.43754782  0.68704961  1
  Zn  Zn156  1  0.43827853  0.93756540  0.19041726  1
  Zn  Zn157  1  0.43581077  0.93981762  0.69078326  1
  Zn  Zn158  1  0.93800181  0.43800060  0.18872140  1
  Zn  Zn159  1  0.93413164  0.43630208  0.68891530  1
  Zn  Zn160  1  0.93629321  0.93561363  0.18731573  1
  Zn  Zn161  1  0.93272946  0.94075948  0.68939936  1
  Zn  Zn162  1  0.06338036  0.06271792  0.31532719  1
  Zn  Zn163  1  0.06330356  0.06021475  0.81411959  1
  Zn  Zn164  1  0.06440095  0.56308436  0.31338429  1
  Zn  Zn165  1  0.06206120  0.55845749  0.80887599  1
  Zn  Zn166  1  0.56486443  0.06182324  0.31339531  1
  Zn  Zn167  1  0.56074429  0.06125733  0.81119222  1
  Zn  Zn168  1  0.56165086  0.56282708  0.31234621  1
  Zn  Zn169  1  0.55949670  0.56463548  0.81019048  1
  Zn  Zn170  1  0.43813438  0.18774672  0.44011400  1
  Zn  Zn171  1  0.43791587  0.18522374  0.93855271  1
  Zn  Zn172  1  0.43902082  0.68898369  0.43645353  1
  Zn  Zn173  1  0.43957094  0.68639073  0.93495133  1
  Zn  Zn174  1  0.93828440  0.19063923  0.43943153  1
  Zn  Zn175  1  0.93394617  0.18682211  0.93765080  1
  Zn  Zn176  1  0.94192798  0.68643710  0.43961417  1
  Zn  Zn177  1  0.93505062  0.68687323  0.93828668  1
  Zn  Zn178  1  0.06075415  0.31335641  0.05890951  1
  Zn  Zn179  1  0.06097712  0.31165828  0.56059391  1
  Zn  Zn180  1  0.06421502  0.81384580  0.06317745  1
  Zn  Zn181  1  0.06350601  0.80795569  0.56244568  1
  Zn  Zn182  1  0.56188259  0.31235351  0.05881953  1
  Zn  Zn183  1  0.56362824  0.31056639  0.56137508  1
  Zn  Zn184  1  0.56352072  0.81222837  0.06294781  1
  Zn  Zn185  1  0.56316992  0.80972624  0.56071860  1
  O  O186  1  0.11849980  0.12121682  0.11964168  1
  O  O187  1  0.12762527  0.12536780  0.61587222  1
  O  O188  1  0.11953072  0.61869347  0.12323305  1
  O  O189  1  0.11656840  0.63127453  0.61685627  1
  O  O190  1  0.61834987  0.11941377  0.12071189  1
  O  O191  1  0.61101115  0.13030579  0.62851281  1
  O  O192  1  0.62290630  0.61662007  0.11706564  1
  O  O193  1  0.62455958  0.61748957  0.61334570  1
  O  O194  1  0.38299606  0.37414917  0.38086320  1
  O  O195  1  0.37624880  0.38099985  0.87866073  1
  O  O196  1  0.38559508  0.87377835  0.37921703  1
  O  O197  1  0.38220959  0.88826187  0.87096744  1
  O  O198  1  0.88139312  0.38169110  0.37977322  1
  O  O199  1  0.87816765  0.37791259  0.88097640  1
  O  O200  1  0.88423544  0.87675573  0.38414111  1
  O  O201  1  0.88897068  0.87443988  0.87533417  1
  O  O202  1  0.25267166  0.00737005  0.36845615  1
  O  O203  1  0.25733751  0.00731417  0.87696742  1
  O  O204  1  0.25565776  0.50129572  0.36396581  1
  O  O205  1  0.25853109  0.50857460  0.87765050  1
  O  O206  1  0.74982978  0.00801774  0.36884089  1
  O  O207  1  0.74904320  0.00422788  0.86755383  1
  O  O208  1  0.76172869  0.49934863  0.36771199  1
  O  O209  1  0.75398634  0.50415495  0.86959177  1
  O  O210  1  0.24524704  0.49505482  0.12725064  1
  O  O211  1  0.26011949  0.48465232  0.62396777  1
  O  O212  1  0.24241324  1.00294958  0.13222865  1
  O  O213  1  0.25164509  0.98663562  0.62560449  1
  O  O214  1  0.74425381  0.49404222  0.13048442  1
  O  O215  1  0.74381307  0.49368105  0.63049566  1
  O  O216  1  0.74396068  1.00165070  0.13622949  1
  O  O217  1  0.75042173  0.98926304  0.63336613  1
  O  O218  1  0.00546014  0.37036441  0.25729467  1
  O  O219  1  -0.00595723  0.37582722  0.76611451  1
  O  O220  1  0.00680587  0.87071006  0.25712891  1
  O  O221  1  0.00347957  0.87060863  0.75706045  1
  O  O222  1  0.50505248  0.36897133  0.25372173  1
  O  O223  1  0.50771930  0.38043708  0.75774323  1
  O  O224  1  0.50655508  0.87049734  0.25796108  1
  O  O225  1  0.49380459  0.86632700  0.75845815  1
  O  O226  1  0.49591894  0.13012885  0.24494870  1
  O  O227  1  0.48681521  0.12066053  0.74271900  1
  O  O228  1  0.49246833  0.63063803  0.24796510  1
  O  O229  1  0.49382629  0.63564272  0.74615851  1
  O  O230  1  1.00019553  0.13151606  0.24512031  1
  O  O231  1  0.98303135  0.11701540  0.75253244  1
  O  O232  1  0.99629889  0.62996759  0.24466933  1
  O  O233  1  0.99488664  0.62981057  0.74353569  1
  O  O234  1  0.36879177  0.25473385  0.00408112  1
  O  O235  1  0.37055956  0.25551077  0.50882561  1
  O  O236  1  0.37899347  0.74331898  0.01606878  1
  O  O237  1  0.37078712  0.75525467  0.50768575  1
  O  O238  1  0.87142257  0.25647886  0.00757790  1
  O  O239  1  0.86805562  0.26417653  0.49795390  1
  O  O240  1  0.86170443  0.75089773  -0.00021600  1
  O  O241  1  0.87169933  0.75452077  0.50594982  1
  O  O242  1  0.13210693  0.24023905  0.49800700  1
  O  O243  1  0.12955231  0.24444996  0.99266780  1
  O  O244  1  0.13124258  0.74412648  0.49354481  1
  O  O245  1  0.12286338  0.74782337  0.98495988  1
  O  O246  1  0.63311187  0.24784537  0.49284599  1
  O  O247  1  0.62480751  0.24262749  0.99070245  1
  O  O248  1  0.63197777  0.73865655  0.49995438  1
  O  O249  1  0.63245027  0.74372982  0.99708317  1
  O  O250  1  0.49456153  0.24497265  0.12910894  1
  O  O251  1  0.48725562  0.24313289  0.62034693  1
  O  O252  1  0.49025489  0.74892448  0.13045106  1
  O  O253  1  0.49065533  0.75221883  0.63106878  1
  O  O254  1  0.99510582  0.24595188  0.12938675  1
  O  O255  1  0.99427817  0.25191595  0.62521830  1
  O  O256  1  1.00121300  0.74333724  0.13184313  1
  O  O257  1  0.99448204  0.74454588  0.63223945  1
  O  O258  1  0.00083838  0.26170615  0.36885302  1
  O  O259  1  0.00790988  0.25823183  0.88321133  1
  O  O260  1  0.00711060  0.75602158  0.37011795  1
  O  O261  1  0.00603234  0.75558643  0.86960017  1
  O  O262  1  0.50622261  0.25424461  0.36923503  1
  O  O263  1  0.50979806  0.25516242  0.88031359  1
  O  O264  1  0.50325267  0.76029181  0.36851117  1
  O  O265  1  0.49690344  0.75921164  0.86641140  1
  O  O266  1  0.24430269  0.12879287  0.49665020  1
  O  O267  1  0.24317575  0.13158205  0.99437401  1
  O  O268  1  0.24187216  0.63309826  0.49864800  1
  O  O269  1  0.24773278  0.63182641  0.98641813  1
  O  O270  1  0.75121520  0.12997312  0.49300187  1
  O  O271  1  0.74109117  0.12296221  0.99326600  1
  O  O272  1  0.74248168  0.62932874  0.49999181  1
  O  O273  1  0.74491869  0.63164178  0.99368788  1
  O  O274  1  0.25416219  0.37059084  0.00373670  1
  O  O275  1  0.25683794  0.37044239  0.50805538  1
  O  O276  1  0.24672240  0.87040612  0.00506736  1
  O  O277  1  0.25478271  0.86994469  0.50729340  1
  O  O278  1  0.75537534  0.37424171  0.00763041  1
  O  O279  1  0.75707066  0.37013309  0.50415256  1
  O  O280  1  0.74850701  0.86463192  -0.00114668  1
  O  O281  1  0.75744676  0.86971571  0.50886639  1
  O  O282  1  0.13088773  0.49475817  0.24294848  1
  O  O283  1  0.13041098  0.48527372  0.76285675  1
  O  O284  1  0.13019276  0.99626920  0.24602841  1
  O  O285  1  0.12865225  0.99298127  0.74709415  1
  O  O286  1  0.62941741  0.49433293  0.24431203  1
  O  O287  1  0.62923556  0.49462927  0.74427456  1
  O  O288  1  0.63381660  0.99543871  0.24557574  1
  O  O289  1  0.63880826  1.00489339  0.74678218  1
  O  O290  1  0.36899440  0.00817225  0.25057798  1
  O  O291  1  0.37139496  0.00987631  0.76192235  1
  O  O292  1  0.37123397  0.50953311  0.24745044  1
  O  O293  1  0.37070529  0.50044305  0.76215424  1
  O  O294  1  0.86439947  0.00209820  0.25405466  1
  O  O295  1  0.86343921  0.01009614  0.75370436  1
  O  O296  1  0.87010635  0.50434815  0.25762018  1
  O  O297  1  0.86654688  0.50476986  0.75608766  1
  O  O298  1  0.11637979  0.37598936  0.36984819  1
  O  O299  1  0.11248339  0.36432450  0.88065961  1
  O  O300  1  0.12086165  0.86980978  0.37023179  1
  O  O301  1  0.11615713  0.86767297  0.86902156  1
  O  O302  1  0.62085364  0.36938194  0.36825653  1
  O  O303  1  0.61899454  0.36750254  0.87088633  1
  O  O304  1  0.61718508  0.87302666  0.37037757  1
  O  O305  1  0.60778931  0.87411581  0.87668135  1
  O  O306  1  0.38017164  0.13158186  0.13017983  1
  O  O307  1  0.38033130  0.13166639  0.63225004  1
  O  O308  1  0.37700364  0.63350628  0.13482385  1
  O  O309  1  0.37447605  0.63862425  0.62365160  1
  O  O310  1  0.88167856  0.13181891  0.12679192  1
  O  O311  1  0.87328496  0.12656819  0.64085658  1
  O  O312  1  0.88268274  0.62598757  0.13269952  1
  O  O313  1  0.88317004  0.62870204  0.62899568  1
  O  O314  1  0.25472747  0.25557291  0.11893823  1
  O  O315  1  0.26242217  0.25860310  0.61890993  1
  O  O316  1  0.26540295  0.74968877  0.12464288  1
  O  O317  1  0.25746014  0.75905400  0.62108170  1
  O  O318  1  0.75524425  0.25589202  0.12482900  1
  O  O319  1  0.75395448  0.25749274  0.61916451  1
  O  O320  1  0.75108927  0.75050685  0.11269189  1
  O  O321  1  0.75784224  0.75525071  0.62157490  1
  O  O322  1  0.24893355  0.24456960  0.38181153  1
  O  O323  1  0.24112895  0.24619312  0.88092118  1
  O  O324  1  0.24448062  0.74945027  0.38064224  1
  O  O325  1  0.24273295  0.74391294  0.87233226  1
  O  O326  1  0.74588603  0.24260370  0.37880009  1
  O  O327  1  0.73658134  0.24276706  0.87997599  1
  O  O328  1  0.74926792  0.74682116  0.38437824  1
  O  O329  1  0.74689507  0.74397142  0.88132199  1
  O  O330  1  0.00426775  0.11991820  0.00558456  1
  O  O331  1  0.00918245  0.11888910  0.49978747  1
  O  O332  1  -0.00012628  0.61806695  0.00574519  1
  O  O333  1  0.01023497  0.63002360  0.51150887  1
  O  O334  1  0.50443303  0.11491788  0.00577122  1
  O  O335  1  0.49997178  0.12314221  0.51265628  1
  O  O336  1  0.50671425  0.61719364  -0.00094776  1
  O  O337  1  0.51005138  0.61997401  0.50042867  1
  O  O338  1  0.49676630  0.37948741  0.49415020  1
  O  O339  1  0.49240871  0.38009620  0.99158551  1
  O  O340  1  0.49558672  0.87265615  0.49086707  1
  O  O341  1  0.50179628  0.88769368  0.99333784  1
  O  O342  1  0.99071605  0.37185354  0.48763343  1
  O  O343  1  0.99131644  0.38128451  0.99264173  1
  O  O344  1  0.99786296  0.88270302  0.49781013  1
  O  O345  1  1.00101044  0.87982651  0.99059910  1
  O  O346  1  0.49944939  0.49160895  0.38024611  1
  O  O347  1  0.48965240  0.49446646  0.87863470  1
  O  O348  1  0.49973736  0.98696947  0.37436666  1
  O  O349  1  0.49238459  0.99468404  0.88143567  1
  O  O350  1  0.98889106  0.48869531  0.36617572  1
  O  O351  1  0.99131799  0.49150857  0.88084391  1
  O  O352  1  1.00072725  0.99502614  0.38798018  1
  O  O353  1  1.00125016  0.98925029  0.88184782  1
  O  O354  1  0.00527410  0.00631653  0.12148622  1
  O  O355  1  0.00197822  0.00274448  0.61411127  1
  O  O356  1  0.00513039  0.50461699  0.12031487  1
  O  O357  1  -0.00346307  0.51249086  0.63127966  1
  O  O358  1  0.50346693  0.00418696  0.11862479  1
  O  O359  1  0.50031518  0.01002233  0.62640233  1
  O  O360  1  0.50626764  0.49959154  0.11577725  1
  O  O361  1  0.50595007  0.50109073  0.61715115  1
  O  O362  1  0.24562318  0.37948437  0.24231440  1
  O  O363  1  0.25421847  0.37336907  0.73205890  1
  O  O364  1  0.24398223  0.88267144  0.24671605  1
  O  O365  1  0.24453131  0.87551284  0.74046022  1
  O  O366  1  0.74398254  0.38008384  0.24490474  1
  O  O367  1  0.74281616  0.38062475  0.74533220  1
  O  O368  1  0.74558527  0.88517286  0.25350484  1
  O  O369  1  0.75892323  0.88287753  0.74149850  1
  O  O370  1  0.25478044  0.12170018  0.25550082  1
  O  O371  1  0.26015553  0.12363359  0.75616279  1
  O  O372  1  0.25922325  0.61917602  0.25057228  1
  O  O373  1  0.25298950  0.62497849  0.76069514  1
  O  O374  1  0.75026280  0.11607578  0.25985762  1
  O  O375  1  0.75720341  0.11569172  0.75553103  1
  O  O376  1  0.75725199  0.61833353  0.25172445  1
  O  O377  1  0.75495758  0.61899291  0.75334862  1
  O  O378  1  0.37012133  0.12534043  0.36846966  1
  O  O379  1  0.37064652  0.11968436  0.86895501  1
  O  O380  1  0.37408523  0.62574441  0.36153694  1
  O  O381  1  0.36648023  0.61691019  0.87473732  1
  O  O382  1  0.86333864  0.12470722  0.37438354  1
  O  O383  1  0.86685490  0.12397106  0.86613451  1
  O  O384  1  0.87825207  0.61430090  0.37109538  1
  O  O385  1  0.86890385  0.61848860  0.86795364  1
  O  O386  1  0.12976847  0.38059361  0.12861695  1
  O  O387  1  0.14293781  0.36822118  0.62174812  1
  O  O388  1  0.12420683  0.88354213  0.13356609  1
  O  O389  1  0.13525417  0.87309383  0.62967014  1
  O  O390  1  0.62921663  0.37922267  0.12949939  1
  O  O391  1  0.62946764  0.37882386  0.62973558  1
  O  O392  1  0.62726855  0.88249030  0.13264402  1
  O  O393  1  0.64125527  0.87056447  0.62150910  1
  O  O394  1  0.11902066  0.25824766  0.25134604  1
  O  O395  1  0.13088063  0.25554704  0.76380118  1
  O  O396  1  0.12098932  0.75509417  0.25532153  1
  O  O397  1  0.11928737  0.75575256  0.75950749  1
  O  O398  1  0.61948202  0.25512807  0.25456110  1
  O  O399  1  0.63082448  0.25618412  0.76294102  1
  O  O400  1  0.62003290  0.75518973  0.25017016  1
  O  O401  1  0.61057251  0.74386951  0.74951402  1
  O  O402  1  0.38075037  0.24529766  0.24299784  1
  O  O403  1  0.36949207  0.23934347  0.74096678  1
  O  O404  1  0.38063431  0.74250952  0.24129460  1
  O  O405  1  0.38267096  0.74996940  0.73955726  1
  O  O406  1  0.88219566  0.24919882  0.24312495  1
  O  O407  1  0.86564638  0.23372935  0.75244122  1
  O  O408  1  0.88356659  0.74295235  0.25114841  1
  O  O409  1  0.87998658  0.74208283  0.74502301  1
  O  O410  1  0.38309148  0.49462784  0.49646216  1
  O  O411  1  0.37848647  0.49510429  0.99064005  1
  O  O412  1  0.37978902  0.99033577  0.49656271  1
  O  O413  1  0.38447078  1.00964963  0.99038857  1
  O  O414  1  0.86759520  0.48827926  0.48886651  1
  O  O415  1  0.87803868  0.49490142  0.99456881  1
  O  O416  1  0.88494929  0.99498770  0.50054596  1
  O  O417  1  0.88278604  0.99778017  0.99606717  1
  O  O418  1  0.11807454  0.00781347  0.00601877  1
  O  O419  1  0.11876438  0.00977637  0.50301078  1
  O  O420  1  0.11702071  0.50159687  0.00546911  1
  O  O421  1  0.13197945  0.51505131  0.49438993  1
  O  O422  1  0.61463619  0.00506629  0.00524118  1
  O  O423  1  0.62142121  0.00445885  0.50919300  1
  O  O424  1  0.61981030  0.50383955  0.00380139  1
  O  O425  1  0.62183589  0.50535792  0.50423374  1
  O  O426  1  0.36914975  0.36982556  0.11830633  1
  O  O427  1  0.37087934  0.36702624  0.61937411  1
  O  O428  1  0.37599263  0.86001407  0.13151055  1
  O  O429  1  0.36775242  0.86705496  0.62070457  1
  O  O430  1  0.86964378  0.37077509  0.12117906  1
  O  O431  1  0.86792223  0.37853312  0.61510278  1
  O  O432  1  0.87031001  0.87031199  0.12161882  1
  O  O433  1  0.86835728  0.86823544  0.62058755  1
  O  O434  1  0.13205987  0.12715769  0.38614726  1
  O  O435  1  0.12814895  0.13296591  0.87951366  1
  O  O436  1  0.12491400  0.63206494  0.38338656  1
  O  O437  1  0.13183408  0.63398749  0.87295033  1
  O  O438  1  0.63609678  0.13079426  0.37604277  1
  O  O439  1  0.62601132  0.13114614  0.87832837  1
  O  O440  1  0.62874198  0.62406370  0.38687850  1
  O  O441  1  0.63126444  0.62529874  0.88049722  1
