# generated using pymatgen
data_V93Zn93O256
_symmetry_space_group_name_H-M   'P 1'
_cell_length_a   17.05921345
_cell_length_b   17.05207778
_cell_length_c   17.05582400
_cell_angle_alpha   90.06299152
_cell_angle_beta   90.12242984
_cell_angle_gamma   89.95124661
_symmetry_Int_Tables_number   1
_chemical_formula_structural   V93Zn93O256
_chemical_formula_sum   'V93 Zn93 O256'
_cell_volume   4961.43839970
_cell_formula_units_Z   1
loop_
 _symmetry_equiv_pos_site_id
 _symmetry_equiv_pos_as_xyz
  1  'x, y, z'
loop_
 _atom_site_type_symbol
 _atom_site_label
 _atom_site_symmetry_multiplicity
 _atom_site_fract_x
 _atom_site_fract_y
 _atom_site_fract_z
 _atom_site_occupancy
  V  V0  1  0.49574545  0.74893793  0.74640015  1
  V  V1  1  0.50491469  0.50151934  0.00832528  1
  V  V2  1  0.50017096  0.87443606  0.87544586  1
  V  V3  1  0.50010421  0.25016422  0.24975778  1
  V  V4  1  0.36767771  0.86324442  0.50589895  1
  V  V5  1  0.37403100  0.49997888  0.37603246  1
  V  V6  1  0.87692714  0.87606059  0.00139569  1
  V  V7  1  0.37325019  -0.00028331  0.87507968  1
  V  V8  1  0.24893959  0.25159148  0.49854220  1
  V  V9  1  0.25791061  0.74978792  0.00365528  1
  V  V10  1  0.62599576  0.74841767  0.87600970  1
  V  V11  1  0.00042891  0.00030775  0.00000054  1
  V  V12  1  0.50081092  0.37569420  0.87491024  1
  V  V13  1  0.11985691  0.24911257  0.37103363  1
  V  V14  1  0.49879901  -0.00179633  0.50056037  1
  V  V15  1  0.37481850  0.12461011  0.25082091  1
  V  V16  1  0.11936878  0.37246621  0.24965254  1
  V  V17  1  0.62702566  0.62175435  0.00784852  1
  V  V18  1  0.87590689  0.12508685  0.74953336  1
  V  V19  1  0.49879037  0.12588023  0.62471819  1
  V  V20  1  0.37434823  0.37628604  0.49863067  1
  V  V21  1  0.00069017  0.50041195  0.00065766  1
  V  V22  1  0.74718198  0.38127965  0.12537469  1
  V  V23  1  0.00069849  0.24966363  0.74901035  1
  V  V24  1  0.49548121  0.62651604  0.62413468  1
  V  V25  1  0.00100971  0.12901232  0.12748325  1
  V  V26  1  0.75046942  0.24998845  -0.00002230  1
  V  V27  1  0.62600469  0.12575982  -0.00008436  1
  V  V28  1  0.62425351  0.75026812  0.37234754  1
  V  V29  1  -0.00214664  0.62399745  0.62545661  1
  V  V30  1  -0.00086379  0.37277999  0.37372533  1
  V  V31  1  0.87906594  0.25059020  0.12758160  1
  V  V32  1  0.11884456  0.86720032  0.25069057  1
  V  V33  1  0.00154002  -0.00216574  0.49897524  1
  V  V34  1  0.87873268  0.62948748  0.25144520  1
  V  V35  1  0.75049271  0.12465215  0.37398972  1
  V  V36  1  0.62321928  0.49955856  0.62497984  1
  V  V37  1  0.49928057  0.37518487  0.37384575  1
  V  V38  1  0.12997254  -0.00191603  0.62292722  1
  V  V39  1  0.74954635  0.37482705  0.62366681  1
  V  V40  1  0.37534085  0.63199791  0.24381847  1
  V  V41  1  0.75010297  -0.00026224  0.74968655  1
  V  V42  1  0.12900590  0.12627888  -0.00199969  1
  V  V43  1  -0.00001504  0.37541227  0.87491294  1
  V  V44  1  0.24978212  0.62487053  0.87684279  1
  V  V45  1  0.87418817  0.87385985  0.50095359  1
  V  V46  1  0.75103313  0.74944196  -0.00065538  1
  V  V47  1  0.62482280  -0.00007119  0.62592146  1
  V  V48  1  0.12554072  0.37545397  0.74969680  1
  V  V49  1  0.50104010  0.12469269  0.12548580  1
  V  V50  1  0.62459156  0.25018520  0.87513383  1
  V  V51  1  0.37512382  0.37505996  0.00145818  1
  V  V52  1  0.62530934  0.38211507  0.24615764  1
  V  V53  1  0.87469046  0.00049942  0.37487060  1
  V  V54  1  0.49868559  0.50005701  0.49976077  1
  V  V55  1  0.37449837  0.25008363  0.62630839  1
  V  V56  1  0.12653701  0.00034534  0.12618338  1
  V  V57  1  0.87395566  0.37430252  0.49904228  1
  V  V58  1  0.12742763  0.63176368  0.50045738  1
  V  V59  1  0.87562376  0.37456328  0.00105221  1
  V  V60  1  0.24835755  0.63143080  0.37942295  1
  V  V61  1  0.62505067  0.87499956  0.74976320  1
  V  V62  1  0.62418243  0.37425721  0.75037185  1
  V  V63  1  0.74837618  0.74953215  0.50156361  1
  V  V64  1  0.49929898  0.87367025  0.37493694  1
  V  V65  1  0.75096465  0.87591660  0.12576489  1
  V  V66  1  0.37392752  0.00004980  0.37633617  1
  V  V67  1  0.12394351  0.49909922  0.12566024  1
  V  V68  1  0.37573864  0.49962866  0.87551807  1
  V  V69  1  0.62502219  0.12383136  0.49936659  1
  V  V70  1  0.87288872  0.49966972  0.37366240  1
  V  V71  1  0.24941251  0.12567820  0.37387430  1
  V  V72  1  0.75017369  0.25004402  0.50010930  1
  V  V73  1  -0.00010438  0.50008309  0.50001571  1
  V  V74  1  0.24908503  0.49899637  0.25027092  1
  V  V75  1  -0.00225558  0.74975106  0.75132191  1
  V  V76  1  0.62565649  0.87534623  0.25000214  1
  V  V77  1  0.87861084  0.75129443  0.12735999  1
  V  V78  1  0.50136515  -0.00133733  -0.00064834  1
  V  V79  1  0.37382348  0.62645971  0.74841636  1
  V  V80  1  0.37470166  0.25059842  0.12357205  1
  V  V81  1  0.75064858  0.50039813  0.75049876  1
  V  V82  1  0.88064163  0.12996226  0.25045085  1
  V  V83  1  0.62670118  -0.00019877  0.12515128  1
  V  V84  1  0.25754267  0.87158754  0.12624364  1
  V  V85  1  0.00142788  0.62984061  0.12896757  1
  V  V86  1  0.12789325  0.87559384  0.74963594  1
  V  V87  1  0.87424890  0.50066770  0.87419073  1
  V  V88  1  0.74959512  0.62421719  0.37439033  1
  V  V89  1  0.24893180  0.49858947  0.74683460  1
  V  V90  1  0.12609843  0.74992966  0.87709152  1
  V  V91  1  0.62434731  0.24955124  0.37438633  1
  V  V92  1  0.87584176  -0.00033485  0.87527937  1
  Zn  Zn93  1  0.12483419  0.49868163  0.62300241  1
  Zn  Zn94  1  0.74885117  0.12542539  0.87491592  1
  Zn  Zn95  1  0.11719782  0.74654960  0.37225911  1
  Zn  Zn96  1  0.87195895  0.62673363  0.75203149  1
  Zn  Zn97  1  0.00107589  0.87446639  0.87706871  1
  Zn  Zn98  1  0.25298863  -0.00033627  0.74752609  1
  Zn  Zn99  1  0.49430310  0.75620047  0.24089539  1
  Zn  Zn100  1  0.12569323  0.62572796  0.00202209  1
  Zn  Zn101  1  0.87530712  0.24911046  0.62372346  1
  Zn  Zn102  1  0.24985591  0.37532260  0.62339523  1
  Zn  Zn103  1  0.25101653  0.25138848  -0.00173911  1
  Zn  Zn104  1  0.24966806  0.85545079  0.62298915  1
  Zn  Zn105  1  0.49784143  0.63229257  0.12277573  1
  Zn  Zn106  1  0.24881324  0.37371479  0.12368009  1
  Zn  Zn107  1  0.25099116  0.12573803  0.87085454  1
  Zn  Zn108  1  0.24991957  -0.00157154  0.25041885  1
  Zn  Zn109  1  0.49903082  0.24916369  0.75081287  1
  Zn  Zn110  1  0.62347905  0.62444279  0.49863638  1
  Zn  Zn111  1  0.75103250  0.00109072  0.24936775  1
  Zn  Zn112  1  0.00230580  0.12475656  0.62412282  1
  Zn  Zn113  1  0.38138346  0.87008778  0.00683373  1
  Zn  Zn114  1  0.74612382  0.50409943  0.24563136  1
  Zn  Zn115  1  0.74859393  0.87399450  0.62596941  1
  Zn  Zn116  1  0.87125365  0.75015571  0.62783592  1
  Zn  Zn117  1  0.13028424  0.24868145  0.87444739  1
  Zn  Zn118  1  0.75045887  0.62465194  0.87412401  1
  Zn  Zn119  1  -0.00623717  0.86569794  0.36707246  1
  Zn  Zn120  1  0.12420972  0.12556872  0.49963618  1
  Zn  Zn121  1  0.37320397  0.12374555  0.74988891  1
  Zn  Zn122  1  0.19000727  0.18852887  0.18611779  1
  Zn  Zn123  1  0.18983602  0.18348894  0.68663726  1
  Zn  Zn124  1  0.19081131  0.68717497  0.18698507  1
  Zn  Zn125  1  0.18189319  0.68408740  0.69096648  1
  Zn  Zn126  1  0.69065617  0.19034977  0.18765927  1
  Zn  Zn127  1  0.68773831  0.18782356  0.68758307  1
  Zn  Zn128  1  0.68986274  0.69035958  0.18779013  1
  Zn  Zn129  1  0.68378804  0.68545150  0.68775176  1
  Zn  Zn130  1  0.30944314  0.31190314  0.31063328  1
  Zn  Zn131  1  0.31204756  0.31057347  0.81606846  1
  Zn  Zn132  1  0.30797971  0.81376871  0.31522061  1
  Zn  Zn133  1  0.31262623  0.81339148  0.81476551  1
  Zn  Zn134  1  0.81078881  0.31171194  0.31155880  1
  Zn  Zn135  1  0.81185419  0.31274359  0.81286913  1
  Zn  Zn136  1  0.81079752  0.81167188  0.31331742  1
  Zn  Zn137  1  0.81206473  0.81472507  0.81526708  1
  Zn  Zn138  1  0.18769584  0.44134402  0.43764206  1
  Zn  Zn139  1  0.18756795  0.43703598  0.93740810  1
  Zn  Zn140  1  0.18937462  0.93612303  0.43492818  1
  Zn  Zn141  1  0.18944044  0.93614817  0.93951243  1
  Zn  Zn142  1  0.68588746  0.43839842  0.43637274  1
  Zn  Zn143  1  0.68771624  0.43785873  0.93726069  1
  Zn  Zn144  1  0.68795152  0.93764181  0.43658773  1
  Zn  Zn145  1  0.68910967  0.93743042  0.93652648  1
  Zn  Zn146  1  0.31332556  0.05898594  0.06262790  1
  Zn  Zn147  1  0.31124271  0.06213028  0.55898756  1
  Zn  Zn148  1  0.31071780  0.55931619  0.06196726  1
  Zn  Zn149  1  0.31062201  0.68178375  0.56104135  1
  Zn  Zn150  1  0.81259842  0.06337704  0.06309225  1
  Zn  Zn151  1  0.81245335  0.06216832  0.56431679  1
  Zn  Zn152  1  0.81448414  0.56382977  0.06124776  1
  Zn  Zn153  1  0.81262497  0.56216495  0.56282952  1
  Zn  Zn154  1  0.43578410  0.43989619  0.18792420  1
  Zn  Zn155  1  0.43638494  0.43789199  0.68713091  1
  Zn  Zn156  1  0.43897900  0.93974865  0.18941443  1
  Zn  Zn157  1  0.43758722  0.93682489  0.68700268  1
  Zn  Zn158  1  0.93630047  0.44087738  0.18792010  1
  Zn  Zn159  1  0.93545933  0.43789220  0.68641241  1
  Zn  Zn160  1  0.93807128  0.94302894  0.18645098  1
  Zn  Zn161  1  0.93944171  0.93734558  0.68526351  1
  Zn  Zn162  1  0.06268403  0.05762623  0.31219577  1
  Zn  Zn163  1  0.06228880  0.06084860  0.81315824  1
  Zn  Zn164  1  0.06170174  0.56007452  0.31391594  1
  Zn  Zn165  1  0.06283592  0.56307360  0.81467611  1
  Zn  Zn166  1  0.56180331  0.05995433  0.31265510  1
  Zn  Zn167  1  0.55967887  0.06422144  0.81156378  1
  Zn  Zn168  1  0.56055784  0.56410534  0.31315632  1
  Zn  Zn169  1  0.56414551  0.56243559  0.81594708  1
  Zn  Zn170  1  0.43696127  0.18786172  0.43842849  1
  Zn  Zn171  1  0.43831407  0.18696993  0.93765952  1
  Zn  Zn172  1  0.44062920  0.68621575  0.43056448  1
  Zn  Zn173  1  0.43954803  0.68556950  0.93554220  1
  Zn  Zn174  1  0.93843978  0.18642971  0.43750101  1
  Zn  Zn175  1  0.94005164  0.18772773  0.93725162  1
  Zn  Zn176  1  0.93938950  0.68935199  0.43639094  1
  Zn  Zn177  1  0.93763446  0.68625564  0.93889877  1
  Zn  Zn178  1  0.06216006  0.31051949  0.06288299  1
  Zn  Zn179  1  0.06257288  0.31250705  0.56240795  1
  Zn  Zn180  1  0.06670966  0.81261921  0.06358351  1
  Zn  Zn181  1  0.06056660  0.81202603  0.56426447  1
  Zn  Zn182  1  0.56236924  0.31267880  0.06250630  1
  Zn  Zn183  1  0.56181412  0.31225795  0.56194810  1
  Zn  Zn184  1  0.56271579  0.80908412  0.06495763  1
  Zn  Zn185  1  0.56130011  0.81317520  0.56198031  1
  O  O186  1  0.12069467  0.12094639  0.11931776  1
  O  O187  1  0.12226978  0.11277909  0.62086446  1
  O  O188  1  0.11607850  0.61858624  0.12755953  1
  O  O189  1  0.11323557  0.62061173  0.61904337  1
  O  O190  1  0.62075547  0.12111953  0.12069617  1
  O  O191  1  0.61973425  0.12012816  0.61841066  1
  O  O192  1  0.62736417  0.62808016  0.11089895  1
  O  O193  1  0.61264789  0.61741000  0.62345176  1
  O  O194  1  0.38043939  0.37842773  0.37734237  1
  O  O195  1  0.38174560  0.38037892  0.88085995  1
  O  O196  1  0.37863879  0.87877646  0.38411164  1
  O  O197  1  0.38280344  0.88353335  0.87769190  1
  O  O198  1  0.87898886  0.37861066  0.37876915  1
  O  O199  1  0.88054792  0.37996592  0.88139188  1
  O  O200  1  0.87295772  0.88102676  0.38513307  1
  O  O201  1  0.87804457  0.88185514  0.88356746  1
  O  O202  1  0.25662114  0.00824035  0.37406369  1
  O  O203  1  0.26273137  -0.00094501  0.87591348  1
  O  O204  1  0.25450616  0.50891352  0.36913252  1
  O  O205  1  0.25564905  0.50453519  0.86821485  1
  O  O206  1  0.75669409  0.00791107  0.37509853  1
  O  O207  1  0.75746492  0.00238957  0.86790454  1
  O  O208  1  0.75580513  0.50643929  0.37400294  1
  O  O209  1  0.75702705  0.49865572  0.86828408  1
  O  O210  1  0.24127493  0.49773878  0.13213027  1
  O  O211  1  0.24689031  0.49684522  0.64460423  1
  O  O212  1  0.24350961  0.98985688  0.12555422  1
  O  O213  1  0.23757531  0.99500637  0.62187279  1
  O  O214  1  0.75649666  0.48480821  0.12482973  1
  O  O215  1  0.74361783  0.49445352  0.62905944  1
  O  O216  1  0.74404712  0.99354363  0.12501338  1
  O  O217  1  0.74227807  0.99874073  0.63144923  1
  O  O218  1  0.01176016  0.38258947  0.25684327  1
  O  O219  1  0.00611667  0.36889834  0.75370306  1
  O  O220  1  0.01539751  0.88121139  0.24685993  1
  O  O221  1  0.00933518  0.86536248  0.74901238  1
  O  O222  1  0.50682879  0.37046591  0.25351392  1
  O  O223  1  0.50677227  0.37526407  0.75677694  1
  O  O224  1  0.50653505  0.87609308  0.25769246  1
  O  O225  1  0.50508057  0.86618924  0.75387267  1
  O  O226  1  0.49544054  0.13047921  0.24547417  1
  O  O227  1  0.49591006  0.12861523  0.73970903  1
  O  O228  1  0.48316455  0.62253527  0.25029351  1
  O  O229  1  0.49557930  0.62983553  0.74428714  1
  O  O230  1  0.98811052  0.11836203  0.24446878  1
  O  O231  1  0.99318551  0.13316797  0.75021075  1
  O  O232  1  0.98998848  0.61750528  0.24029839  1
  O  O233  1  1.00134797  0.63360837  0.74260202  1
  O  O234  1  0.37822473  0.25720246  0.00713356  1
  O  O235  1  0.36973392  0.25654083  0.50601493  1
  O  O236  1  0.36207682  0.75116531  -0.00783236  1
  O  O237  1  0.37775126  0.75921790  0.49736167  1
  O  O238  1  0.87069666  0.25576560  0.00523572  1
  O  O239  1  0.86855355  0.25566407  0.50026530  1
  O  O240  1  0.87101664  0.75603382  0.00647636  1
  O  O241  1  0.86472681  0.75800873  0.50032295  1
  O  O242  1  0.13014761  0.25030978  0.48968754  1
  O  O243  1  0.12495101  0.23862789  0.99819193  1
  O  O244  1  0.11952249  0.73435182  0.50103326  1
  O  O245  1  0.13574889  0.74890041  0.99368206  1
  O  O246  1  0.62968561  0.24396365  0.49375439  1
  O  O247  1  0.63014025  0.24521460  0.99532513  1
  O  O248  1  0.63386497  0.75066540  0.49296389  1
  O  O249  1  0.63186459  0.74231774  0.99463607  1
  O  O250  1  0.49553370  0.24381318  0.13075186  1
  O  O251  1  0.49006343  0.24490436  0.62282059  1
  O  O252  1  0.49893093  0.74551549  0.12891623  1
  O  O253  1  0.50885396  0.74016216  0.63677139  1
  O  O254  1  0.99065562  0.24189062  0.12056793  1
  O  O255  1  0.99786725  0.24858956  0.63680659  1
  O  O256  1  0.99535838  0.73722832  0.11877975  1
  O  O257  1  0.99858065  0.74112565  0.63476231  1
  O  O258  1  0.01209151  0.25585929  0.38068488  1
  O  O259  1  0.00145521  0.25660325  0.86351075  1
  O  O260  1  0.00432428  0.75416692  0.37551134  1
  O  O261  1  0.00571225  0.75013699  0.86673714  1
  O  O262  1  0.50475608  0.25543538  0.36951678  1
  O  O263  1  0.50636910  0.25782933  0.87431787  1
  O  O264  1  0.50750629  0.75608991  0.36885408  1
  O  O265  1  0.50673293  0.75399926  0.86674864  1
  O  O266  1  0.24732332  0.13305060  0.49105638  1
  O  O267  1  0.23745337  0.12331419  1.00129040  1
  O  O268  1  0.24067982  0.62249455  0.49037773  1
  O  O269  1  0.24883375  0.63204634  0.99535802  1
  O  O270  1  0.74495451  0.12972917  0.49471115  1
  O  O271  1  0.74411951  0.13227426  0.99919905  1
  O  O272  1  0.74916614  0.63444857  0.49472040  1
  O  O273  1  0.74396902  0.63039398  0.99862629  1
  O  O274  1  0.25960864  0.37516772  0.00257190  1
  O  O275  1  0.25595036  0.37030651  0.50021622  1
  O  O276  1  0.25138994  0.86629244  0.00948609  1
  O  O277  1  0.26508671  0.87424214  0.49812265  1
  O  O278  1  0.75479323  0.37011736  0.00755402  1
  O  O279  1  0.75393400  0.36959411  0.50349108  1
  O  O280  1  0.75657638  0.86980035  0.00599966  1
  O  O281  1  0.75706604  0.86665754  0.50034564  1
  O  O282  1  0.12932504  0.49162648  0.24633535  1
  O  O283  1  0.13084390  0.49085935  0.75239819  1
  O  O284  1  0.12867231  0.99127739  0.24291094  1
  O  O285  1  0.12193037  0.98989113  0.74077835  1
  O  O286  1  0.62487381  0.48576080  0.25447946  1
  O  O287  1  0.62995959  0.49379872  0.74525346  1
  O  O288  1  0.62712927  0.99409798  0.24317627  1
  O  O289  1  0.62952708  0.99528479  0.74579273  1
  O  O290  1  0.37461180  0.00742005  0.25875037  1
  O  O291  1  0.37486579  -0.00183745  0.76074037  1
  O  O292  1  0.36896022  0.50656692  0.25747558  1
  O  O293  1  0.36779695  0.50462090  0.75596218  1
  O  O294  1  0.87272550  0.01018670  0.25621520  1
  O  O295  1  0.87244887  0.00642071  0.75379667  1
  O  O296  1  0.87160997  0.51098269  0.25586087  1
  O  O297  1  0.86863816  0.50006657  0.75669912  1
  O  O298  1  0.11986545  0.36894164  0.36844579  1
  O  O299  1  0.11792532  0.37400280  0.86504278  1
  O  O300  1  0.12854932  0.87427216  0.35818065  1
  O  O301  1  0.12331456  0.87013069  0.86587514  1
  O  O302  1  0.61970397  0.36872869  0.36671383  1
  O  O303  1  0.62012915  0.36966154  0.87020993  1
  O  O304  1  0.61967250  0.87101966  0.37015690  1
  O  O305  1  0.61959838  0.86958898  0.86923166  1
  O  O306  1  0.38216089  0.12877218  0.13026911  1
  O  O307  1  0.38007511  0.13513123  0.62075645  1
  O  O308  1  0.36996337  0.61995296  0.14218381  1
  O  O309  1  0.38986499  0.62597343  0.63072458  1
  O  O310  1  0.87972354  0.12993314  0.13239907  1
  O  O311  1  0.87862755  0.12552664  0.63779093  1
  O  O312  1  0.88217978  0.62961175  0.13234067  1
  O  O313  1  0.88688976  0.62717351  0.62691046  1
  O  O314  1  0.25988814  0.25285688  0.12117286  1
  O  O315  1  0.25859665  0.25186644  0.61796733  1
  O  O316  1  0.24490003  0.75871377  0.11432528  1
  O  O317  1  0.25372100  0.74387588  0.63298892  1
  O  O318  1  0.75821768  0.25945026  0.11928227  1
  O  O319  1  0.75059062  0.25665775  0.61744826  1
  O  O320  1  0.75838150  0.75670102  0.11861819  1
  O  O321  1  0.74896471  0.75032307  0.61413618  1
  O  O322  1  0.24069825  0.24583466  0.37930309  1
  O  O323  1  0.24792119  0.24372588  0.88080071  1
  O  O324  1  0.24162402  0.73444299  0.36866067  1
  O  O325  1  0.24509036  0.74492519  0.88188313  1
  O  O326  1  0.74366413  0.24444710  0.38071462  1
  O  O327  1  0.74327924  0.24980342  0.88241406  1
  O  O328  1  0.74490260  0.74454176  0.38401437  1
  O  O329  1  0.74407748  0.74958659  0.88209971  1
  O  O330  1  0.00832542  0.11984059  0.00602503  1
  O  O331  1  0.00048290  0.11039791  0.50119006  1
  O  O332  1  0.00134213  0.61837616  0.01134934  1
  O  O333  1  0.00485730  0.61952674  0.50799675  1
  O  O334  1  0.50712844  0.11913333  0.00688154  1
  O  O335  1  0.50599338  0.11892201  0.50397503  1
  O  O336  1  0.50845679  0.61760903  -0.00063364  1
  O  O337  1  0.50011530  0.62019212  0.50762842  1
  O  O338  1  0.49559859  0.37909343  0.49239926  1
  O  O339  1  0.49712858  0.38390471  0.99557909  1
  O  O340  1  0.49016683  0.87825462  0.49470545  1
  O  O341  1  0.50163547  0.88044811  0.99354614  1
  O  O342  1  0.99405002  0.38007083  0.49452556  1
  O  O343  1  0.99483235  0.38010670  0.99519190  1
  O  O344  1  0.98982000  0.88256024  0.50060817  1
  O  O345  1  0.99485767  0.88202865  1.00187204  1
  O  O346  1  0.49504629  0.49374337  0.37950235  1
  O  O347  1  0.49436568  0.49497519  0.88289730  1
  O  O348  1  0.49451523  0.99383101  0.38179993  1
  O  O349  1  0.49469283  0.99385876  0.87982405  1
  O  O350  1  0.99245864  0.49350374  0.38113194  1
  O  O351  1  0.99474614  0.49472036  0.88038971  1
  O  O352  1  0.99434636  0.99363532  0.38473014  1
  O  O353  1  0.99325184  0.99728991  0.88194874  1
  O  O354  1  0.00645022  0.00899590  0.11847550  1
  O  O355  1  0.01038989  -0.00172864  0.61519977  1
  O  O356  1  0.00376522  0.50883598  0.11994069  1
  O  O357  1  -0.00019383  0.50855073  0.61997557  1
  O  O358  1  0.50682717  0.00535848  0.11966842  1
  O  O359  1  0.50536747  0.00559612  0.61947525  1
  O  O360  1  0.49490186  0.50530758  0.11124111  1
  O  O361  1  0.50378401  0.50735354  0.62054259  1
  O  O362  1  0.23782007  0.38153140  0.24995642  1
  O  O363  1  0.24047796  0.38120041  0.75322796  1
  O  O364  1  0.24187384  0.87625329  0.24183899  1
  O  O365  1  0.23753219  0.87541246  0.74808990  1
  O  O366  1  0.74188824  0.37550057  0.24245316  1
  O  O367  1  0.74431688  0.37994896  0.74335017  1
  O  O368  1  0.74478493  0.87737171  0.24348933  1
  O  O369  1  0.74334757  0.88097889  0.74819473  1
  O  O370  1  0.25776166  0.12412832  0.25611869  1
  O  O371  1  0.25475474  0.11735088  0.75268248  1
  O  O372  1  0.25765392  0.61876019  0.25701798  1
  O  O373  1  0.25339828  0.61614812  0.75810968  1
  O  O374  1  0.75982704  0.12391377  0.25588886  1
  O  O375  1  0.75999090  0.11998608  0.75136381  1
  O  O376  1  0.75880673  0.62286204  0.25474950  1
  O  O377  1  0.75126512  0.61684727  0.75149964  1
  O  O378  1  0.37029940  0.12116671  0.37046969  1
  O  O379  1  0.37751071  0.11162030  0.87457193  1
  O  O380  1  0.36639412  0.61913218  0.36891979  1
  O  O381  1  0.36981432  0.61869070  0.86808832  1
  O  O382  1  0.87117417  0.12141765  0.36793425  1
  O  O383  1  0.87494137  0.11986997  0.86432497  1
  O  O384  1  0.87050950  0.62047779  0.36817660  1
  O  O385  1  0.87289484  0.61621275  0.87365235  1
  O  O386  1  0.12302449  0.37955561  0.13474488  1
  O  O387  1  0.12646705  0.37734861  0.63711776  1
  O  O388  1  0.13304975  0.88014338  0.13399180  1
  O  O389  1  0.12684387  0.87985383  0.63219070  1
  O  O390  1  0.63531498  0.36689376  0.13487647  1
  O  O391  1  0.62936062  0.38003367  0.62965844  1
  O  O392  1  0.63181860  0.88083685  0.12989252  1
  O  O393  1  0.62431509  0.88246246  0.63169687  1
  O  O394  1  0.13092967  0.26042318  0.26013445  1
  O  O395  1  0.11705772  0.25738996  0.74987928  1
  O  O396  1  0.12770753  0.76496305  0.24586384  1
  O  O397  1  0.11580832  0.75693687  0.75647424  1
  O  O398  1  0.61948392  0.25772213  0.25552963  1
  O  O399  1  0.62384446  0.25675271  0.75615780  1
  O  O400  1  0.62665496  0.75809640  0.25702729  1
  O  O401  1  0.61641477  0.75424133  0.75607185  1
  O  O402  1  0.38132072  0.24513873  0.24493212  1
  O  O403  1  0.37597987  0.25089425  0.73646368  1
  O  O404  1  0.37236901  0.73409904  0.25733766  1
  O  O405  1  0.38946433  0.74445153  0.75828440  1
  O  O406  1  0.87011275  0.23810333  0.24450057  1
  O  O407  1  0.88287373  0.24272728  0.74981531  1
  O  O408  1  0.86932069  0.73710810  0.24444870  1
  O  O409  1  0.88573505  0.75092495  0.74958353  1
  O  O410  1  0.38442662  0.49064659  0.49036082  1
  O  O411  1  0.38340481  0.49621918  0.99424045  1
  O  O412  1  0.38082816  0.99160156  0.49427398  1
  O  O413  1  0.38404760  0.99696186  0.99247147  1
  O  O414  1  0.87937511  0.49401186  0.49338959  1
  O  O415  1  0.88102121  0.49319396  0.99505379  1
  O  O416  1  0.88103028  0.99281681  0.49643308  1
  O  O417  1  0.88039974  0.99624082  0.99586416  1
  O  O418  1  0.12001621  0.00624883  0.00611060  1
  O  O419  1  0.11679634  -0.00451810  0.50522220  1
  O  O420  1  0.11825159  0.50089878  0.00695619  1
  O  O421  1  0.11746724  0.50913388  0.50164219  1
  O  O422  1  0.62095407  0.00543817  0.00502497  1
  O  O423  1  0.61912659  0.00428940  0.50483997  1
  O  O424  1  0.61559288  0.50884199  -0.00702341  1
  O  O425  1  0.61680919  0.50054026  0.50623837  1
  O  O426  1  0.37554991  0.36858311  0.11972580  1
  O  O427  1  0.37460040  0.36598006  0.61818760  1
  O  O428  1  0.36217226  0.88128625  0.12600915  1
  O  O429  1  0.37436404  0.87814320  0.60837613  1
  O  O430  1  0.86923525  0.36997189  0.12140413  1
  O  O431  1  0.86742217  0.37379437  0.61681998  1
  O  O432  1  0.87156459  0.87130436  0.12133679  1
  O  O433  1  0.87170032  0.87365689  0.61274861  1
  O  O434  1  0.12880010  0.13383531  0.37343897  1
  O  O435  1  0.12508295  0.12377537  0.88684820  1
  O  O436  1  0.13139963  0.62191681  0.38293982  1
  O  O437  1  0.13200996  0.63184252  0.87732014  1
  O  O438  1  0.62941192  0.12952953  0.37986124  1
  O  O439  1  0.62517886  0.13147550  0.88189718  1
  O  O440  1  0.63095938  0.63125632  0.37566534  1
  O  O441  1  0.62736843  0.63150333  0.88531435  1
