# generated using pymatgen
data_V93Zn93O256
_symmetry_space_group_name_H-M   'P 1'
_cell_length_a   17.04665157
_cell_length_b   17.04672374
_cell_length_c   17.04791842
_cell_angle_alpha   89.98633015
_cell_angle_beta   90.04160063
_cell_angle_gamma   89.87453528
_symmetry_Int_Tables_number   1
_chemical_formula_structural   V93Zn93O256
_chemical_formula_sum   'V93 Zn93 O256'
_cell_volume   4953.93378869
_cell_formula_units_Z   1
loop_
 _symmetry_equiv_pos_site_id
 _symmetry_equiv_pos_as_xyz
  1  'x, y, z'
loop_
 _atom_site_type_symbol
 _atom_site_label
 _atom_site_symmetry_multiplicity
 _atom_site_fract_x
 _atom_site_fract_y
 _atom_site_fract_z
 _atom_site_occupancy
  V  V0  1  0.24801993  0.00032747  0.24946909  1
  V  V1  1  0.87141299  0.75476673  0.62557451  1
  V  V2  1  0.24985904  0.50145542  0.25019589  1
  V  V3  1  -0.00444544  0.63190752  0.12474475  1
  V  V4  1  0.50075960  0.24932493  0.75116395  1
  V  V5  1  0.87398015  0.62930983  0.24880852  1
  V  V6  1  0.37822553  0.62143043  0.75478980  1
  V  V7  1  0.63003637  0.87390246  0.74336523  1
  V  V8  1  0.50049316  0.74968776  0.24908072  1
  V  V9  1  0.37295708  0.87387592  -0.00011941  1
  V  V10  1  0.75141836  -0.00368533  0.74398087  1
  V  V11  1  0.49887524  0.12499636  0.12462274  1
  V  V12  1  0.12643572  0.62726342  -0.00085281  1
  V  V13  1  0.62698250  0.75049039  0.87453094  1
  V  V14  1  0.37582100  0.74800426  0.62513942  1
  V  V15  1  0.75123656  0.62423565  0.87595075  1
  V  V16  1  0.37415134  0.62489741  0.24992363  1
  V  V17  1  0.62479180  0.49991266  0.12414072  1
  V  V18  1  0.24987559  0.37561038  0.12367576  1
  V  V19  1  0.62362792  0.37526981  0.25033283  1
  V  V20  1  0.37445788  0.24875276  0.62558551  1
  V  V21  1  0.87579590  0.62328581  0.75045432  1
  V  V22  1  0.87521408  0.11971366  0.75423616  1
  V  V23  1  0.49889976  0.25070268  0.24921697  1
  V  V24  1  0.49940688  0.87474272  0.37344213  1
  V  V25  1  0.00340791  0.74973047  0.75307714  1
  V  V26  1  0.62399151  0.12521624  -0.00049137  1
  V  V27  1  0.62585236  0.62514606  -0.00023860  1
  V  V28  1  0.24642999  0.25236820  -0.00379320  1
  V  V29  1  0.74982524  0.75401883  0.50226183  1
  V  V30  1  0.86771928  0.25231844  0.62585428  1
  V  V31  1  0.49947076  -0.00002747  -0.00109747  1
  V  V32  1  0.12510720  -0.00144256  0.62437936  1
  V  V33  1  0.12418333  0.75101986  0.37508076  1
  V  V34  1  0.50177964  0.87478389  0.87443310  1
  V  V35  1  0.87449981  0.25128307  0.12683387  1
  V  V36  1  0.00200234  0.62341734  0.62372500  1
  V  V37  1  0.37469711  -0.00084351  0.37459670  1
  V  V38  1  0.86715676  0.37876231  0.50407934  1
  V  V39  1  0.12157969  0.00164761  0.12287520  1
  V  V40  1  0.25444195  0.62127770  0.87696874  1
  V  V41  1  -0.00129948  0.25141394  0.25049507  1
  V  V42  1  0.12417272  0.50158929  0.12597310  1
  V  V43  1  0.24961597  0.74953890  0.49999283  1
  V  V44  1  0.37544318  0.87412460  0.49933551  1
  V  V45  1  0.62934372  0.37299911  0.74413536  1
  V  V46  1  0.62536863  0.62457323  0.50090792  1
  V  V47  1  0.12474984  0.37603246  0.25080204  1
  V  V48  1  0.37547685  0.37495058  0.50013876  1
  V  V49  1  -0.00124211  0.87657668  0.37477336  1
  V  V50  1  0.75080021  0.49396595  0.74474752  1
  V  V51  1  0.37478382  0.12541068  0.24883614  1
  V  V52  1  0.62436627  0.24958058  0.87440804  1
  V  V53  1  0.74871794  0.37522198  0.12486070  1
  V  V54  1  0.24704108  0.12753406  0.87414528  1
  V  V55  1  -0.00053033  0.00060697  0.50101039  1
  V  V56  1  0.00469864  0.25357382  0.75559897  1
  V  V57  1  0.75787701  0.87200721  0.12519547  1
  V  V58  1  0.75975650  0.75064227  0.00389347  1
  V  V59  1  -0.00462326  0.88387940  0.87689746  1
  V  V60  1  -0.00076494  0.12377906  0.62517123  1
  V  V61  1  0.75124978  0.50131953  0.25046166  1
  V  V62  1  0.50103850  0.62221704  0.62511723  1
  V  V63  1  0.49921714  0.37525914  0.37434511  1
  V  V64  1  0.62532428  0.75027106  0.37513623  1
  V  V65  1  0.12357745  0.87668758  0.24916096  1
  V  V66  1  0.50088808  0.12212668  0.62489010  1
  V  V67  1  0.24923612  0.37454770  0.62686646  1
  V  V68  1  0.49672016  0.50019038  -0.00718356  1
  V  V69  1  0.75333757  0.11642332  0.87673997  1
  V  V70  1  0.12474436  0.25126350  0.37568258  1
  V  V71  1  0.87361133  0.00103603  0.37608850  1
  V  V72  1  0.24824106  0.25003264  0.50048976  1
  V  V73  1  -0.00095131  0.50077829  -0.00074329  1
  V  V74  1  0.37490631  0.37933194  -0.00599644  1
  V  V75  1  0.74912476  0.12762498  0.37647492  1
  V  V76  1  0.87310874  0.87511105  0.50252459  1
  V  V77  1  0.24945625  0.12631702  0.37508191  1
  V  V78  1  0.12387523  0.12883678  -0.00220284  1
  V  V79  1  0.25061036  0.87468656  0.62680021  1
  V  V80  1  0.12512428  0.62373093  0.50013585  1
  V  V81  1  0.25242083  0.49964971  0.75090745  1
  V  V82  1  0.50062223  0.62614097  0.12460751  1
  V  V83  1  0.62596197  -0.00071534  0.12461515  1
  V  V84  1  0.87476628  0.37614657  -0.00026557  1
  V  V85  1  0.74884677  -0.00068596  0.25055265  1
  V  V86  1  0.25095775  -0.00040357  0.74929805  1
  V  V87  1  0.74944327  0.24974274  -0.00020306  1
  V  V88  1  0.87684951  0.49744790  0.87513789  1
  V  V89  1  0.50076475  0.49867577  0.50035975  1
  V  V90  1  0.37542688  0.12401565  0.75059192  1
  V  V91  1  0.62430118  0.12380513  0.50122564  1
  V  V92  1  -0.00323393  0.75183338  0.24784171  1
  Zn  Zn93  1  0.37344186  0.50001340  0.37537804  1
  Zn  Zn94  1  0.12767970  0.87484672  0.75356748  1
  Zn  Zn95  1  0.24982384  0.62468090  0.37455629  1
  Zn  Zn96  1  0.62443803  0.25100670  0.37615692  1
  Zn  Zn97  1  -0.00388181  0.12656899  0.12325282  1
  Zn  Zn98  1  0.00189745  0.49609004  0.49822702  1
  Zn  Zn99  1  0.12327426  0.12576463  0.49941336  1
  Zn  Zn100  1  0.37455484  -0.00161141  0.87420787  1
  Zn  Zn101  1  0.24815560  0.87301956  0.12251059  1
  Zn  Zn102  1  0.87667480  0.49962483  0.37527272  1
  Zn  Zn103  1  0.75190444  0.62434771  0.37574574  1
  Zn  Zn104  1  0.50240112  0.74991705  0.74922707  1
  Zn  Zn105  1  0.74545083  0.25520737  0.50482045  1
  Zn  Zn106  1  0.62635426  -0.00707120  0.62164522  1
  Zn  Zn107  1  0.37192476  0.75168504  0.12472576  1
  Zn  Zn108  1  0.87144660  0.88810298  -0.00517842  1
  Zn  Zn109  1  0.13043759  0.37129909  0.75639135  1
  Zn  Zn110  1  0.37403469  0.24995850  0.12364766  1
  Zn  Zn111  1  0.12462313  0.49449448  0.62518762  1
  Zn  Zn112  1  0.62441566  0.87402829  0.24812311  1
  Zn  Zn113  1  -0.00724281  0.00855702  -0.00521725  1
  Zn  Zn114  1  0.62998049  0.49418701  0.62191956  1
  Zn  Zn115  1  0.49814900  0.37759717  0.87203008  1
  Zn  Zn116  1  0.12725964  0.75187215  0.87569019  1
  Zn  Zn117  1  0.00901028  0.36915820  0.88199019  1
  Zn  Zn118  1  0.87416385  0.12672861  0.25025879  1
  Zn  Zn119  1  -0.00030774  0.37660764  0.38009376  1
  Zn  Zn120  1  0.25140357  0.75085872  -0.00027972  1
  Zn  Zn121  1  0.50016678  -0.00165469  0.50008551  1
  Zn  Zn122  1  0.18711415  0.18882151  0.18532722  1
  Zn  Zn123  1  0.18601867  0.18513869  0.68526929  1
  Zn  Zn124  1  0.18774745  0.69107465  0.18514805  1
  Zn  Zn125  1  0.18927133  0.68657971  0.68781052  1
  Zn  Zn126  1  0.68575874  0.18779147  0.18876268  1
  Zn  Zn127  1  0.68686380  0.18375676  0.68879870  1
  Zn  Zn128  1  0.68736731  0.68906061  0.18660565  1
  Zn  Zn129  1  0.68816188  0.68471864  0.68745950  1
  Zn  Zn130  1  0.31303757  0.31296961  0.31245096  1
  Zn  Zn131  1  0.31326495  0.31164406  0.81399875  1
  Zn  Zn132  1  0.31085855  0.81186860  0.31142148  1
  Zn  Zn133  1  0.31372053  0.80837755  0.81407237  1
  Zn  Zn134  1  0.81234597  0.31463186  0.31627921  1
  Zn  Zn135  1  0.81456478  0.31006803  0.81467722  1
  Zn  Zn136  1  0.81136789  0.81227113  0.31347692  1
  Zn  Zn137  1  0.81327580  0.81210156  0.81380232  1
  Zn  Zn138  1  0.18870964  0.43838124  0.43645196  1
  Zn  Zn139  1  0.18544070  0.43911470  0.93397931  1
  Zn  Zn140  1  0.18735045  0.93781593  0.43808446  1
  Zn  Zn141  1  0.18406440  0.93928629  0.93476408  1
  Zn  Zn142  1  0.68818055  0.43977073  0.43460115  1
  Zn  Zn143  1  0.68618888  0.43660829  0.93350138  1
  Zn  Zn144  1  0.68649043  0.93657903  0.43723207  1
  Zn  Zn145  1  0.68692205  0.93580740  0.93684473  1
  Zn  Zn146  1  0.31160201  0.06003476  0.06245387  1
  Zn  Zn147  1  0.31252130  0.06186894  0.56133042  1
  Zn  Zn148  1  0.31399772  0.56138299  0.06452976  1
  Zn  Zn149  1  0.31340938  0.56082033  0.56447118  1
  Zn  Zn150  1  0.81483497  0.06162208  0.06496541  1
  Zn  Zn151  1  0.81262265  0.06427667  0.56432051  1
  Zn  Zn152  1  0.81299380  0.56260479  0.06420424  1
  Zn  Zn153  1  0.81255312  0.56626796  0.56349735  1
  Zn  Zn154  1  0.43627937  0.43844045  0.18302227  1
  Zn  Zn155  1  0.43896472  0.43676724  0.68711915  1
  Zn  Zn156  1  0.43706192  0.93754266  0.18610861  1
  Zn  Zn157  1  0.44013524  0.93732442  0.68753560  1
  Zn  Zn158  1  0.93756793  0.43995340  0.18697262  1
  Zn  Zn159  1  0.93569638  0.43577452  0.68490421  1
  Zn  Zn160  1  0.93564169  0.94101951  0.18733317  1
  Zn  Zn161  1  0.93893151  0.93677877  0.69010278  1
  Zn  Zn162  1  0.06149489  0.06559996  0.31273855  1
  Zn  Zn163  1  0.06576485  0.06446316  0.81007472  1
  Zn  Zn164  1  0.05924509  0.56118679  0.31493148  1
  Zn  Zn165  1  0.06637630  0.55915939  0.81375482  1
  Zn  Zn166  1  0.56242852  0.06146268  0.31224643  1
  Zn  Zn167  1  0.56480997  0.05941418  0.81217395  1
  Zn  Zn168  1  0.56254950  0.56259457  0.31465563  1
  Zn  Zn169  1  0.56622604  0.56144006  0.81152427  1
  Zn  Zn170  1  0.43773903  0.18804141  0.43654666  1
  Zn  Zn171  1  0.43404882  0.18923257  0.93695288  1
  Zn  Zn172  1  0.43888038  0.68664230  0.43613915  1
  Zn  Zn173  1  0.43948338  0.69021612  0.93650943  1
  Zn  Zn174  1  0.93626604  0.19068687  0.43892042  1
  Zn  Zn175  1  0.93512411  0.18812588  0.93768350  1
  Zn  Zn176  1  0.93718459  0.68775082  0.43484497  1
  Zn  Zn177  1  0.93823260  0.68805785  0.93551819  1
  Zn  Zn178  1  0.06258478  0.31315885  0.06445015  1
  Zn  Zn179  1  0.05924579  0.31282753  0.56659040  1
  Zn  Zn180  1  0.06164686  0.81423540  0.06094959  1
  Zn  Zn181  1  0.06242842  0.81313684  0.56358805  1
  Zn  Zn182  1  0.56062508  0.31256863  0.06293287  1
  Zn  Zn183  1  0.56145430  0.30953102  0.56290250  1
  Zn  Zn184  1  0.56547928  0.81239382  0.06239492  1
  Zn  Zn185  1  0.55994111  0.80953871  0.56197890  1
  O  O186  1  0.12497241  0.11841233  0.11479443  1
  O  O187  1  0.11753522  0.11679827  0.62208554  1
  O  O188  1  0.11677501  0.62059226  0.11814331  1
  O  O189  1  0.11689335  0.62813132  0.61567923  1
  O  O190  1  0.61982565  0.11981979  0.11846726  1
  O  O191  1  0.61944547  0.12422537  0.61590530  1
  O  O192  1  0.62037846  0.61921680  0.11885831  1
  O  O193  1  0.61866102  0.62313948  0.61875784  1
  O  O194  1  0.38095364  0.37624684  0.38235790  1
  O  O195  1  0.37740393  0.37133074  0.88971581  1
  O  O196  1  0.37897019  0.87914353  0.37953463  1
  O  O197  1  0.38245211  0.87496718  0.88261247  1
  O  O198  1  0.87693716  0.37468328  0.39123336  1
  O  O199  1  0.87896557  0.37986864  0.88300780  1
  O  O200  1  0.87981366  0.88107937  0.38170986  1
  O  O201  1  0.89181988  0.87053055  0.87332795  1
  O  O202  1  0.25406236  0.00577726  0.36935001  1
  O  O203  1  0.25122111  0.01090169  0.86836904  1
  O  O204  1  0.25260172  0.50430891  0.36609360  1
  O  O205  1  0.24903880  0.51256600  0.86567387  1
  O  O206  1  0.75417262  0.00704373  0.37127828  1
  O  O207  1  0.74437934  0.01174206  0.86676857  1
  O  O208  1  0.75389850  0.50447276  0.36523554  1
  O  O209  1  0.75654935  0.50516618  0.86737749  1
  O  O210  1  0.24312024  0.49541506  0.13005505  1
  O  O211  1  0.25015400  0.49312391  0.63405585  1
  O  O212  1  0.23712756  0.99948409  0.13047980  1
  O  O213  1  0.24590676  0.99434310  0.62940419  1
  O  O214  1  0.74400996  0.49419392  0.12933743  1
  O  O215  1  0.75039061  0.50652228  0.64142290  1
  O  O216  1  0.74431247  0.99322015  0.13068628  1
  O  O217  1  0.74681451  1.00573576  0.63961320  1
  O  O218  1  0.00588201  0.36613473  0.24919860  1
  O  O219  1  -0.00329465  0.35914652  0.74765776  1
  O  O220  1  0.00331749  0.87168994  0.25491565  1
  O  O221  1  0.00145494  0.86631344  0.75932350  1
  O  O222  1  0.50364641  0.37166665  0.25306135  1
  O  O223  1  0.50806273  0.36874243  0.75260417  1
  O  O224  1  0.50010084  0.86796462  0.25530917  1
  O  O225  1  0.51037135  0.87328772  0.75667463  1
  O  O226  1  0.49465694  0.12974333  0.24461051  1
  O  O227  1  0.49588537  0.12918894  0.74566166  1
  O  O228  1  0.49282571  0.62847474  0.24479718  1
  O  O229  1  0.49289785  0.62336885  0.74607237  1
  O  O230  1  0.99827310  0.13978184  0.24849986  1
  O  O231  1  0.99176493  0.13126413  0.74736804  1
  O  O232  1  0.99420208  0.63050095  0.24220304  1
  O  O233  1  0.99656497  0.63114214  0.74362872  1
  O  O234  1  0.36389414  0.25797990  0.00249285  1
  O  O235  1  0.36898947  0.25479578  0.50604097  1
  O  O236  1  0.37587487  0.76159549  0.00143206  1
  O  O237  1  0.36929721  0.75346892  0.50452434  1
  O  O238  1  0.86868322  0.25594749  0.00592564  1
  O  O239  1  0.87295991  0.25938679  0.50915553  1
  O  O240  1  0.86145889  0.75054135  -0.00450415  1
  O  O241  1  0.86940451  0.75371005  0.50669631  1
  O  O242  1  0.13048488  0.24946556  0.49475577  1
  O  O243  1  0.13611650  0.24208981  1.00598785  1
  O  O244  1  0.12904050  0.74315246  0.49584861  1
  O  O245  1  0.12557028  0.73575927  0.99945947  1
  O  O246  1  0.62728868  0.23842915  0.49859946  1
  O  O247  1  0.62995164  0.24480399  0.99538212  1
  O  O248  1  0.63287182  0.74570050  0.49684454  1
  O  O249  1  0.63371654  0.74356071  0.99363724  1
  O  O250  1  0.49782085  0.24250292  0.13048284  1
  O  O251  1  0.49331832  0.24265190  0.63169717  1
  O  O252  1  0.50044852  0.74286880  0.13069889  1
  O  O253  1  0.49305748  0.74049913  0.62711438  1
  O  O254  1  0.99403727  0.25095905  0.13445416  1
  O  O255  1  0.98862896  0.24256534  0.63532276  1
  O  O256  1  1.00626891  0.73882811  0.13037656  1
  O  O257  1  0.99319580  0.74242408  0.63281680  1
  O  O258  1  0.00547148  0.25196332  0.36606158  1
  O  O259  1  -0.00695891  0.24902645  0.85843908  1
  O  O260  1  0.00480470  0.75782109  0.36926366  1
  O  O261  1  0.00163489  0.75415471  0.86416802  1
  O  O262  1  0.50080775  0.25694953  0.36716807  1
  O  O263  1  0.50681885  0.24902481  0.86844874  1
  O  O264  1  0.50543177  0.75516227  0.36936012  1
  O  O265  1  0.50993476  0.75607963  0.87235083  1
  O  O266  1  0.24902341  0.13231130  0.49330232  1
  O  O267  1  0.24455946  0.13216094  0.99371921  1
  O  O268  1  0.24083202  0.63072916  0.50118074  1
  O  O269  1  0.24347332  0.62149438  0.99310027  1
  O  O270  1  0.74171382  0.12430694  0.49198865  1
  O  O271  1  0.74440396  0.12968282  0.99359932  1
  O  O272  1  0.74565778  0.63620338  0.49915820  1
  O  O273  1  0.74582563  0.63106802  0.99693374  1
  O  O274  1  0.25497123  0.37096349  0.00242826  1
  O  O275  1  0.25525217  0.36961393  0.50653700  1
  O  O276  1  0.26054988  0.87571755  -0.00339049  1
  O  O277  1  0.25545944  0.86901480  0.50580176  1
  O  O278  1  0.75392580  0.36979560  0.00453209  1
  O  O279  1  0.76195072  0.37335950  0.49776314  1
  O  O280  1  0.75088655  0.86734554  0.00550995  1
  O  O281  1  0.75573577  0.86211056  0.49723969  1
  O  O282  1  0.12926657  0.49647310  0.24489296  1
  O  O283  1  0.14109002  0.50359513  0.74507909  1
  O  O284  1  0.12782582  0.99701785  0.24312829  1
  O  O285  1  0.13331194  0.99924827  0.74162159  1
  O  O286  1  0.62990467  0.49575530  0.24351428  1
  O  O287  1  0.63421782  0.49026497  0.74989822  1
  O  O288  1  0.63106164  0.99832533  0.24297024  1
  O  O289  1  0.63368436  0.99085195  0.74808199  1
  O  O290  1  0.36821444  0.00523208  0.25486812  1
  O  O291  1  0.36851241  0.00667522  0.75055779  1
  O  O292  1  0.36949820  0.50945087  0.24838184  1
  O  O293  1  0.36621807  0.51131858  0.74462652  1
  O  O294  1  0.86772630  0.00351661  0.25850340  1
  O  O295  1  0.86845794  0.01195416  0.74483479  1
  O  O296  1  0.86914771  0.51048443  0.24859353  1
  O  O297  1  0.86945966  0.50301888  0.75448766  1
  O  O298  1  0.12454809  0.36852105  0.36815712  1
  O  O299  1  0.12031765  0.37853761  0.86853222  1
  O  O300  1  0.11790816  0.87133792  0.36956205  1
  O  O301  1  0.11347939  0.86975360  0.87278807  1
  O  O302  1  0.61802846  0.37365423  0.36792814  1
  O  O303  1  0.62310673  0.36697289  0.86450590  1
  O  O304  1  0.61772776  0.86825442  0.37321063  1
  O  O305  1  0.62101628  0.86959473  0.86664901  1
  O  O306  1  0.38077486  0.12421763  0.13102420  1
  O  O307  1  0.37970260  0.12992460  0.63042125  1
  O  O308  1  0.38168924  0.62597213  0.13484531  1
  O  O309  1  0.38049292  0.62913435  0.63339094  1
  O  O310  1  0.87552558  0.13636754  0.12994529  1
  O  O311  1  0.88016677  0.13118099  0.63457294  1
  O  O312  1  0.88666102  0.62088118  0.13343109  1
  O  O313  1  0.88500364  0.63439338  0.62943977  1
  O  O314  1  0.25066111  0.25708192  0.11432335  1
  O  O315  1  0.25541503  0.25399354  0.62126393  1
  O  O316  1  0.25277603  0.75532323  0.11835432  1
  O  O317  1  0.25592984  0.75467203  0.62001274  1
  O  O318  1  0.75329136  0.25617411  0.11983163  1
  O  O319  1  0.76365794  0.24135002  0.62549600  1
  O  O320  1  0.74245783  0.76033478  0.11484715  1
  O  O321  1  0.76303304  0.74235118  0.61715333  1
  O  O322  1  0.24475667  0.24572390  0.38020595  1
  O  O323  1  0.25349548  0.23939022  0.88436112  1
  O  O324  1  0.24186216  0.74830088  0.38166933  1
  O  O325  1  0.24672371  0.73523760  0.87681588  1
  O  O326  1  0.74743690  0.23787724  0.37730159  1
  O  O327  1  0.74477972  0.23946422  0.88050200  1
  O  O328  1  0.74463920  0.74777184  0.38529380  1
  O  O329  1  0.74644808  0.74391354  0.88298891  1
  O  O330  1  0.01219139  0.12943234  -0.00023807  1
  O  O331  1  -0.00123851  0.11812779  0.50670482  1
  O  O332  1  0.00590602  0.62204504  0.00641316  1
  O  O333  1  0.00749715  0.62781341  0.50894203  1
  O  O334  1  0.50426901  0.12079961  0.00409299  1
  O  O335  1  0.50860272  0.12428756  0.50450340  1
  O  O336  1  0.50510008  0.61854914  0.00381300  1
  O  O337  1  0.50503192  0.61898105  0.50501701  1
  O  O338  1  0.49522815  0.37817773  0.49550917  1
  O  O339  1  0.49262865  0.38288535  0.99999565  1
  O  O340  1  0.49273400  0.87446170  0.49248524  1
  O  O341  1  0.49438631  0.88013285  0.99476511  1
  O  O342  1  0.98736390  0.37634332  0.50193474  1
  O  O343  1  0.99314509  0.38257017  1.00270248  1
  O  O344  1  0.99379849  0.88005586  0.49446522  1
  O  O345  1  0.99844729  0.87315423  0.98484858  1
  O  O346  1  0.49790300  0.49286389  0.38224981  1
  O  O347  1  0.50701568  0.49912455  0.88964269  1
  O  O348  1  0.49200467  0.99330188  0.37525629  1
  O  O349  1  0.49920569  0.99342817  0.88160410  1
  O  O350  1  0.99473002  0.49553623  0.38010024  1
  O  O351  1  0.99254002  0.50167330  0.88177885  1
  O  O352  1  0.99395068  0.99613600  0.38006417  1
  O  O353  1  1.00570275  0.98627817  0.87181705  1
  O  O354  1  0.01198482  0.00504163  0.12581006  1
  O  O355  1  0.00425274  0.00378230  0.62079653  1
  O  O356  1  0.00521457  0.51090536  0.11955733  1
  O  O357  1  0.00133938  0.51420999  0.62611338  1
  O  O358  1  0.50598314  0.00584994  0.11908790  1
  O  O359  1  0.50342692  0.00744342  0.62114063  1
  O  O360  1  0.50661712  0.50605332  0.11533480  1
  O  O361  1  0.50336289  0.50488435  0.61810159  1
  O  O362  1  0.24495117  0.38045773  0.24363870  1
  O  O363  1  0.25494008  0.38396851  0.74627577  1
  O  O364  1  0.24121446  0.88270912  0.24944088  1
  O  O365  1  0.25095608  0.88003669  0.74469644  1
  O  O366  1  0.74447454  0.38046886  0.24451227  1
  O  O367  1  0.74303304  0.38329703  0.75775297  1
  O  O368  1  0.74801201  0.87948195  0.24225286  1
  O  O369  1  0.74295083  0.88531068  0.75904329  1
  O  O370  1  0.25434836  0.12076889  0.25492122  1
  O  O371  1  0.25431069  0.12196209  0.75671937  1
  O  O372  1  0.25813863  0.62085003  0.24871032  1
  O  O373  1  0.25838014  0.61928059  0.75573233  1
  O  O374  1  0.74848738  0.11953830  0.26115552  1
  O  O375  1  0.75620158  0.11746457  0.75840233  1
  O  O376  1  0.75975617  0.62124089  0.24678450  1
  O  O377  1  0.75604114  0.61686774  0.75692458  1
  O  O378  1  0.36926420  0.11963999  0.36892182  1
  O  O379  1  0.36420564  0.12297467  0.86950052  1
  O  O380  1  0.37413454  0.62336119  0.36159922  1
  O  O381  1  0.36823781  0.63058663  0.86502927  1
  O  O382  1  0.86413209  0.11998975  0.37662441  1
  O  O383  1  0.86409405  0.13113049  0.86502521  1
  O  O384  1  0.87462011  0.62259452  0.36257265  1
  O  O385  1  0.87050658  0.61833035  0.86931440  1
  O  O386  1  0.13031645  0.38242576  0.13023689  1
  O  O387  1  0.13329506  0.37482860  0.63314787  1
  O  O388  1  0.12318782  0.88581271  0.12951480  1
  O  O389  1  0.13230600  0.88027340  0.62727621  1
  O  O390  1  0.62980134  0.38033094  0.12989141  1
  O  O391  1  0.62287395  0.37247237  0.63973200  1
  O  O392  1  0.63506344  0.88269012  0.12498091  1
  O  O393  1  0.62106466  0.87171767  0.63921353  1
  O  O394  1  0.11823391  0.25615168  0.25382688  1
  O  O395  1  0.10695091  0.24577080  0.74452848  1
  O  O396  1  0.11767077  0.75644458  0.25522450  1
  O  O397  1  0.11306799  0.74948054  0.74928759  1
  O  O398  1  0.61713324  0.25761556  0.25095542  1
  O  O399  1  0.62165405  0.25472893  0.75439995  1
  O  O400  1  0.61838798  0.75007761  0.25707233  1
  O  O401  1  0.62865826  0.75709017  0.75640368  1
  O  O402  1  0.38016262  0.24335886  0.24694280  1
  O  O403  1  0.38038332  0.24377865  0.74522493  1
  O  O404  1  0.38079578  0.74102775  0.24851491  1
  O  O405  1  0.37689457  0.73782666  0.74353754  1
  O  O406  1  0.88327522  0.25305727  0.24594645  1
  O  O407  1  0.88055001  0.24049354  0.74393655  1
  O  O408  1  0.88166108  0.73935423  0.25501635  1
  O  O409  1  0.88210882  0.74419462  0.74325175  1
  O  O410  1  0.38172102  0.49291115  0.49949208  1
  O  O411  1  0.38573672  0.49215102  1.00575461  1
  O  O412  1  0.37499214  0.99227418  0.49216599  1
  O  O413  1  0.38095450  0.99133575  0.99770791  1
  O  O414  1  0.87450242  0.48780340  0.50476452  1
  O  O415  1  0.87914670  0.49565083  0.99542029  1
  O  O416  1  0.87908088  0.99443092  0.49691918  1
  O  O417  1  0.88099646  1.00131471  1.00046687  1
  O  O418  1  0.12192113  0.01039163  0.00759179  1
  O  O419  1  0.11724016  0.00080606  0.50590264  1
  O  O420  1  0.11977287  0.51031252  0.00592894  1
  O  O421  1  0.12498197  0.51204067  0.50377274  1
  O  O422  1  0.61978122  0.00633250  0.00418633  1
  O  O423  1  0.62375720  0.00990424  0.50225331  1
  O  O424  1  0.61927370  0.50475364  0.00482496  1
  O  O425  1  0.62049240  0.50550261  0.50261482  1
  O  O426  1  0.36769351  0.37379959  0.11315556  1
  O  O427  1  0.37021992  0.36743786  0.62016864  1
  O  O428  1  0.37288763  0.87575016  0.11260189  1
  O  O429  1  0.37082789  0.86841633  0.61963610  1
  O  O430  1  0.86772826  0.37166864  0.11937611  1
  O  O431  1  0.87702675  0.36549324  0.61459743  1
  O  O432  1  0.86078069  0.87914308  0.12354835  1
  O  O433  1  0.88339618  0.86143385  0.62019092  1
  O  O434  1  0.13195860  0.13255183  0.37644247  1
  O  O435  1  0.13610641  0.11978659  0.88559956  1
  O  O436  1  0.12314350  0.63220787  0.38532141  1
  O  O437  1  0.13345429  0.62474362  0.88487792  1
  O  O438  1  0.63194667  0.12454113  0.38383814  1
  O  O439  1  0.63359818  0.12979275  0.87965176  1
  O  O440  1  0.62599751  0.63256164  0.38325534  1
  O  O441  1  0.63228866  0.62953918  0.88019850  1
