# generated using pymatgen
data_V93Zn93O256
_symmetry_space_group_name_H-M   'P 1'
_cell_length_a   17.04205926
_cell_length_b   17.04132583
_cell_length_c   17.03990369
_cell_angle_alpha   90.02288780
_cell_angle_beta   90.05118844
_cell_angle_gamma   89.95770273
_symmetry_Int_Tables_number   1
_chemical_formula_structural   V93Zn93O256
_chemical_formula_sum   'V93 Zn93 O256'
_cell_volume   4948.71292584
_cell_formula_units_Z   1
loop_
 _symmetry_equiv_pos_site_id
 _symmetry_equiv_pos_as_xyz
  1  'x, y, z'
loop_
 _atom_site_type_symbol
 _atom_site_label
 _atom_site_symmetry_multiplicity
 _atom_site_fract_x
 _atom_site_fract_y
 _atom_site_fract_z
 _atom_site_occupancy
  V  V0  1  0.49991535  0.87574405  0.37679637  1
  V  V1  1  0.74930979  0.87356721  0.62495114  1
  V  V2  1  0.87849812  0.87446952  -0.00344123  1
  V  V3  1  0.87570411  0.49577333  0.37180623  1
  V  V4  1  0.00238749  0.75373310  0.75591858  1
  V  V5  1  0.00083970  0.25276061  0.25126100  1
  V  V6  1  0.12604047  0.12603575  0.50127590  1
  V  V7  1  0.62510891  -0.00046896  0.62627588  1
  V  V8  1  0.37476037  0.62561036  0.75084448  1
  V  V9  1  0.50110095  0.25112626  0.25160185  1
  V  V10  1  0.25337825  0.12352325  0.87587795  1
  V  V11  1  0.87240479  0.37055465  0.49537401  1
  V  V12  1  0.12374108  0.37494057  0.74967570  1
  V  V13  1  0.49937631  0.37100599  0.86908090  1
  V  V14  1  0.74899148  0.49957386  0.24714977  1
  V  V15  1  -0.00127833  0.49545030  0.49489540  1
  V  V16  1  0.12348446  0.62387741  0.49931245  1
  V  V17  1  0.49578572  0.62928025  0.12301924  1
  V  V18  1  0.00070050  0.12425597  0.62501024  1
  V  V19  1  0.62525078  0.87601098  0.25031609  1
  V  V20  1  0.62609481  0.12433550  0.00036264  1
  V  V21  1  0.62405821  0.37568535  0.24648693  1
  V  V22  1  0.12493867  0.12384606  0.00395682  1
  V  V23  1  0.75225800  0.00199502  0.25115103  1
  V  V24  1  0.87407837  0.74839536  0.62357915  1
  V  V25  1  0.75048485  0.12440635  0.87428436  1
  V  V26  1  0.50233860  0.12510177  0.12569884  1
  V  V27  1  0.62538075  0.75047454  0.37539261  1
  V  V28  1  0.12343416  0.25115511  0.87544766  1
  V  V29  1  0.12634897  -0.00160074  0.62691874  1
  V  V30  1  -0.00122814  0.75132322  0.24909427  1
  V  V31  1  0.75207996  -0.00257698  0.75068559  1
  V  V32  1  0.24943964  0.37500348  0.62566475  1
  V  V33  1  0.25058142  0.25087901  0.00142474  1
  V  V34  1  0.87536982  0.87533519  0.49876039  1
  V  V35  1  0.25143256  0.00157392  0.25210561  1
  V  V36  1  0.37282826  0.62999373  0.24645472  1
  V  V37  1  0.12517098  0.62730816  -0.00147428  1
  V  V38  1  0.87558391  0.12442381  0.25035975  1
  V  V39  1  -0.00138869  0.87602829  0.37602629  1
  V  V40  1  0.50445329  0.87327979  0.87726565  1
  V  V41  1  0.25635051  0.86753262  0.12794913  1
  V  V42  1  0.24827455  0.50074795  0.74906381  1
  V  V43  1  0.37447095  0.75044455  0.62660153  1
  V  V44  1  0.62602757  0.00113798  0.12492884  1
  V  V45  1  0.74910198  0.37592930  0.12164830  1
  V  V46  1  0.00248637  -0.00532356  -0.00375489  1
  V  V47  1  0.37747758  0.86990110  0.00585997  1
  V  V48  1  -0.00122143  0.62673396  0.12462775  1
  V  V49  1  -0.00019399  0.25014237  0.74960021  1
  V  V50  1  0.62309441  0.49860661  0.62226371  1
  V  V51  1  0.12338740  0.37596214  0.25275764  1
  V  V52  1  0.37485443  0.87495105  0.50205096  1
  V  V53  1  -0.00303087  0.49731832  -0.00366241  1
  V  V54  1  0.74925339  0.74946377  -0.00359308  1
  V  V55  1  0.74808266  0.62456763  0.37337940  1
  V  V56  1  0.62344740  0.62860135  -0.00331380  1
  V  V57  1  0.74347502  0.62800969  0.87170149  1
  V  V58  1  0.50432746  0.74876814  0.75401368  1
  V  V59  1  0.24946166  0.62790385  0.87493373  1
  V  V60  1  0.63061003  0.13255319  0.49879428  1
  V  V61  1  0.62305882  0.24901089  0.87013662  1
  V  V62  1  0.87551605  0.25117935  0.12352353  1
  V  V63  1  0.74834711  0.36854136  0.61839863  1
  V  V64  1  0.37659237  0.37778795  0.00010689  1
  V  V65  1  0.12610041  0.87653981  0.25129752  1
  V  V66  1  0.25328126  -0.00161373  0.75228306  1
  V  V67  1  0.24981605  0.62494429  0.37409549  1
  V  V68  1  0.87537007  0.12401843  0.74908044  1
  V  V69  1  0.37642704  0.12560384  0.25256727  1
  V  V70  1  0.87327538  0.24887458  0.62075341  1
  V  V71  1  0.62161814  0.37027146  0.74787055  1
  V  V72  1  0.75107323  0.25065836  -0.00159015  1
  V  V73  1  0.12590147  0.49903757  0.12659481  1
  V  V74  1  0.49788212  0.75091947  0.24809214  1
  V  V75  1  0.87511649  0.75033756  0.12445894  1
  V  V76  1  0.62608835  0.87127016  0.75355263  1
  V  V77  1  0.12347331  0.75061479  0.37654272  1
  V  V78  1  0.75023264  0.87422616  0.12433581  1
  V  V79  1  0.37778338  0.25014091  0.63224478  1
  V  V80  1  0.74844102  0.74934295  0.49887231  1
  V  V81  1  0.37612218  0.25108071  0.12583254  1
  V  V82  1  0.50021287  0.12909683  0.63283320  1
  V  V83  1  0.49802133  0.37556173  0.37394094  1
  V  V84  1  0.49831428  0.50180543  0.49871730  1
  V  V85  1  -0.00133549  0.62339206  0.62288212  1
  V  V86  1  0.12400078  0.25295408  0.37573435  1
  V  V87  1  0.49983294  -0.00051286  0.50229228  1
  V  V88  1  0.87301696  0.62214851  0.74843120  1
  V  V89  1  0.74903150  0.49881723  0.74715253  1
  V  V90  1  0.24963512  0.75026168  0.50212308  1
  V  V91  1  0.25048041  0.25071492  0.50147354  1
  V  V92  1  0.87853316  -0.00403227  0.87520176  1
  Zn  Zn93  1  0.25187046  0.37645603  0.12583585  1
  Zn  Zn94  1  0.25234773  0.49942526  0.25207490  1
  Zn  Zn95  1  0.87581669  0.00162051  0.37733218  1
  Zn  Zn96  1  0.00033300  -0.00029910  0.49940925  1
  Zn  Zn97  1  0.12031572  0.75734888  0.88098335  1
  Zn  Zn98  1  0.63317095  0.25569290  0.37880058  1
  Zn  Zn99  1  0.38243889  0.12756892  0.75544042  1
  Zn  Zn100  1  0.75593335  0.13043973  0.38107590  1
  Zn  Zn101  1  -0.00374128  0.37477164  0.87256092  1
  Zn  Zn102  1  0.12303018  0.49779278  0.62341420  1
  Zn  Zn103  1  0.62458392  0.50137562  0.12227264  1
  Zn  Zn104  1  0.37243578  0.50114655  0.37469545  1
  Zn  Zn105  1  0.62320877  0.62602015  0.50015396  1
  Zn  Zn106  1  0.37579577  0.00281717  0.37889704  1
  Zn  Zn107  1  0.87377331  0.62503848  0.24860957  1
  Zn  Zn108  1  0.37676245  0.49966706  0.87416790  1
  Zn  Zn109  1  0.50007193  -0.00049297  0.00038257  1
  Zn  Zn110  1  0.24861208  0.87338575  0.62866024  1
  Zn  Zn111  1  0.37344981  0.37538863  0.49997321  1
  Zn  Zn112  1  0.87407427  0.37376474  -0.00492272  1
  Zn  Zn113  1  0.25325907  0.12596445  0.37750411  1
  Zn  Zn114  1  0.25394381  0.74929179  0.00376609  1
  Zn  Zn115  1  0.12475694  -0.00110643  0.12651458  1
  Zn  Zn116  1  0.50052631  0.62509711  0.62491510  1
  Zn  Zn117  1  0.87238323  0.49668004  0.87229868  1
  Zn  Zn118  1  0.12054539  0.87940469  0.76069718  1
  Zn  Zn119  1  0.00130091  0.12447225  0.12487880  1
  Zn  Zn120  1  0.37755756  -0.00082959  0.87784650  1
  Zn  Zn121  1  0.50103749  0.50110158  -0.00071324  1
  Zn  Zn122  1  0.19150801  0.18863914  0.18787955  1
  Zn  Zn123  1  0.18909444  0.18743319  0.68869878  1
  Zn  Zn124  1  0.18568780  0.68813187  0.18850901  1
  Zn  Zn125  1  0.18527777  0.68513792  0.68549022  1
  Zn  Zn126  1  0.68946539  0.19054721  0.18948560  1
  Zn  Zn127  1  0.68768568  0.18759011  0.68737623  1
  Zn  Zn128  1  0.68511779  0.68633124  0.18608710  1
  Zn  Zn129  1  0.68453632  0.68561633  0.68473204  1
  Zn  Zn130  1  0.31059409  0.31292144  0.31261113  1
  Zn  Zn131  1  0.31086184  0.31260818  0.81325052  1
  Zn  Zn132  1  0.31377986  0.81201518  0.31586080  1
  Zn  Zn133  1  0.31502911  0.81388862  0.81684411  1
  Zn  Zn134  1  0.80868146  0.31066733  0.31100416  1
  Zn  Zn135  1  0.81191275  0.31333930  0.81034590  1
  Zn  Zn136  1  0.81281681  0.81295260  0.31229130  1
  Zn  Zn137  1  0.81560337  0.81036517  0.81303783  1
  Zn  Zn138  1  0.18814900  0.43721183  0.43683294  1
  Zn  Zn139  1  0.18765365  0.43820964  0.93550742  1
  Zn  Zn140  1  0.18843634  0.93717344  0.43889566  1
  Zn  Zn141  1  0.18846124  0.93431819  0.93854924  1
  Zn  Zn142  1  0.68584292  0.43868710  0.43478317  1
  Zn  Zn143  1  0.68556601  0.44013332  0.93534482  1
  Zn  Zn144  1  0.68870671  0.94231371  0.43681800  1
  Zn  Zn145  1  0.68881052  0.93709002  0.93775664  1
  Zn  Zn146  1  0.31592177  0.05752621  0.06496133  1
  Zn  Zn147  1  0.31377693  0.06451351  0.56458618  1
  Zn  Zn148  1  0.31244999  0.56262644  0.06356418  1
  Zn  Zn149  1  0.31323014  0.56293693  0.56354261  1
  Zn  Zn150  1  0.81433849  0.06270912  0.06361835  1
  Zn  Zn151  1  0.81319941  0.05948461  0.56371977  1
  Zn  Zn152  1  0.81182892  0.56337078  0.06129456  1
  Zn  Zn153  1  0.81033661  0.56060351  0.56007652  1
  Zn  Zn154  1  0.43838446  0.44387704  0.18651334  1
  Zn  Zn155  1  0.43503344  0.43833265  0.68734495  1
  Zn  Zn156  1  0.43789871  0.93984982  0.18881125  1
  Zn  Zn157  1  0.43649874  0.93831470  0.68899348  1
  Zn  Zn158  1  0.93705637  0.43563194  0.18471841  1
  Zn  Zn159  1  0.93651347  0.43620913  0.68360707  1
  Zn  Zn160  1  0.93911470  0.93907503  0.18386083  1
  Zn  Zn161  1  0.93753657  0.93605502  0.68530839  1
  Zn  Zn162  1  0.06297427  0.06365437  0.31541757  1
  Zn  Zn163  1  0.06409341  0.06326682  0.81440105  1
  Zn  Zn164  1  0.05992833  0.56443826  0.31235456  1
  Zn  Zn165  1  0.06208359  0.56347418  0.81129019  1
  Zn  Zn166  1  0.56240704  0.06138643  0.31427619  1
  Zn  Zn167  1  0.56518718  0.05758460  0.81467209  1
  Zn  Zn168  1  0.56251519  0.56231123  0.31115703  1
  Zn  Zn169  1  0.56169001  0.55738260  0.81245436  1
  Zn  Zn170  1  0.43953722  0.18860655  0.44172676  1
  Zn  Zn171  1  0.43958339  0.19018478  0.94041711  1
  Zn  Zn172  1  0.43608471  0.68789160  0.43544123  1
  Zn  Zn173  1  0.43634144  0.69023778  0.93625924  1
  Zn  Zn174  1  0.94183443  0.18842631  0.43596950  1
  Zn  Zn175  1  0.93808742  0.18501951  0.93659846  1
  Zn  Zn176  1  0.93510055  0.68553147  0.43565407  1
  Zn  Zn177  1  0.93191179  0.68286095  0.93567609  1
  Zn  Zn178  1  0.06196690  0.31305478  0.06396063  1
  Zn  Zn179  1  0.06012896  0.31352394  0.56279483  1
  Zn  Zn180  1  0.06540085  0.81559003  0.06575857  1
  Zn  Zn181  1  0.06175626  0.81306316  0.56597227  1
  Zn  Zn182  1  0.56263533  0.31137419  0.05997007  1
  Zn  Zn183  1  0.55818469  0.31269010  0.56227650  1
  Zn  Zn184  1  0.56424490  0.80958093  0.06271804  1
  Zn  Zn185  1  0.56154043  0.81184555  0.56517286  1
  O  O186  1  0.12813031  0.12473171  0.11273263  1
  O  O187  1  0.12069879  0.11817414  0.62182435  1
  O  O188  1  0.11972830  0.61793690  0.11813301  1
  O  O189  1  0.11749939  0.62085151  0.61576556  1
  O  O190  1  0.62205606  0.12139035  0.12053992  1
  O  O191  1  0.61939086  0.12106431  0.61830846  1
  O  O192  1  0.61636021  0.62372756  0.11558459  1
  O  O193  1  0.62112522  0.61452978  0.62077560  1
  O  O194  1  0.38619898  0.37711859  0.37498368  1
  O  O195  1  0.38189792  0.37294904  0.88257877  1
  O  O196  1  0.38272482  0.87616744  0.38399153  1
  O  O197  1  0.38596314  0.87700526  0.88480035  1
  O  O198  1  0.86638388  0.38646313  0.38243136  1
  O  O199  1  0.87770902  0.37892311  0.87658236  1
  O  O200  1  0.88098787  0.87574816  0.38122789  1
  O  O201  1  0.86863988  0.88328866  0.88383574  1
  O  O202  1  0.25184038  0.00154544  0.36389464  1
  O  O203  1  0.25109723  0.00986343  0.86951982  1
  O  O204  1  0.25032573  0.50909235  0.37246387  1
  O  O205  1  0.24973721  0.51181833  0.86901675  1
  O  O206  1  0.75360199  0.00760862  0.36657051  1
  O  O207  1  0.75667436  0.00534264  0.86945112  1
  O  O208  1  0.75652685  0.50444163  0.36785294  1
  O  O209  1  0.74909157  0.50915088  0.86513440  1
  O  O210  1  0.23524069  0.50066710  0.12734230  1
  O  O211  1  0.24757162  0.49349853  0.63062313  1
  O  O212  1  0.24957865  0.99189116  0.13854769  1
  O  O213  1  0.24197776  1.00277690  0.63572861  1
  O  O214  1  0.74963895  0.49406548  0.12962824  1
  O  O215  1  0.74361496  0.48968498  0.62723236  1
  O  O216  1  0.74603267  0.99369170  0.13024962  1
  O  O217  1  0.74553087  0.99260038  0.63242709  1
  O  O218  1  0.01118793  0.36417172  0.24382160  1
  O  O219  1  0.00525144  0.36776069  0.74794600  1
  O  O220  1  0.00577657  0.87089107  0.25409763  1
  O  O221  1  -0.00271280  0.85664937  0.74424242  1
  O  O222  1  0.50311492  0.37216857  0.25587553  1
  O  O223  1  0.50547024  0.38051078  0.76029514  1
  O  O224  1  0.50578942  0.87130144  0.25550213  1
  O  O225  1  0.50438447  0.86867693  0.75776397  1
  O  O226  1  0.49685881  0.13076686  0.24558757  1
  O  O227  1  0.50252694  0.11828624  0.73703309  1
  O  O228  1  0.49300216  0.63000204  0.24307251  1
  O  O229  1  0.49482313  0.63313483  0.75227334  1
  O  O230  1  0.99454890  0.13391591  0.24712439  1
  O  O231  1  0.99453916  0.12960727  0.74459313  1
  O  O232  1  0.99836230  0.63299361  0.24221034  1
  O  O233  1  0.99324607  0.63003203  0.74203485  1
  O  O234  1  0.37078139  0.25937406  0.00611828  1
  O  O235  1  0.36855624  0.25163699  0.51154969  1
  O  O236  1  0.37305345  0.76456143  -0.00181748  1
  O  O237  1  0.36970510  0.75431246  0.50630582  1
  O  O238  1  0.86906396  0.24840902  0.00541154  1
  O  O239  1  0.88412911  0.26260355  0.50364524  1
  O  O240  1  0.87028231  0.75420419  0.00474033  1
  O  O241  1  0.86822492  0.75450551  0.50417152  1
  O  O242  1  0.12791971  0.24769983  0.49317669  1
  O  O243  1  0.12957796  0.24291182  0.99650430  1
  O  O244  1  0.12867366  0.74432190  0.49609332  1
  O  O245  1  0.12498009  0.73617582  1.00234950  1
  O  O246  1  0.62056360  0.23518387  0.50192285  1
  O  O247  1  0.63176477  0.24320648  0.99229463  1
  O  O248  1  0.63061069  0.75028127  0.49383791  1
  O  O249  1  0.63319070  0.73699186  1.00256018  1
  O  O250  1  0.49507924  0.24484779  0.13092243  1
  O  O251  1  0.48978431  0.24137553  0.62127425  1
  O  O252  1  0.50555640  0.73799105  0.13292958  1
  O  O253  1  0.49310740  0.74910269  0.63621043  1
  O  O254  1  0.99596135  0.24728150  0.13448666  1
  O  O255  1  0.99389747  0.24353176  0.63029294  1
  O  O256  1  0.99504735  0.74649521  0.12936888  1
  O  O257  1  0.99313694  0.74201651  0.63158538  1
  O  O258  1  0.01237738  0.24695998  0.36278051  1
  O  O259  1  0.00622121  0.24864311  0.86742092  1
  O  O260  1  0.00415434  0.75477046  0.36956272  1
  O  O261  1  -0.00267870  0.73993073  0.85856645  1
  O  O262  1  0.50344073  0.26087779  0.37109087  1
  O  O263  1  0.50734791  0.26186023  0.87952421  1
  O  O264  1  0.50618749  0.75640040  0.36957058  1
  O  O265  1  0.49603089  0.75999829  0.86345304  1
  O  O266  1  0.24315966  0.13263270  0.50077425  1
  O  O267  1  0.24489524  0.12809491  0.99408217  1
  O  O268  1  0.24381755  0.63021376  0.49489820  1
  O  O269  1  0.24169776  0.62478885  0.99394889  1
  O  O270  1  0.73366710  0.11887425  0.50375046  1
  O  O271  1  0.74590939  0.12980020  0.99412202  1
  O  O272  1  0.74773575  0.63138308  0.49218552  1
  O  O273  1  0.74328593  0.62881133  0.99145214  1
  O  O274  1  0.25926953  0.36997965  -0.00047495  1
  O  O275  1  0.25059189  0.36885736  0.50700087  1
  O  O276  1  0.25876745  0.87513779  0.01144739  1
  O  O277  1  0.25598698  0.86771773  0.50300222  1
  O  O278  1  0.74917100  0.36836449  0.00320820  1
  O  O279  1  0.75894030  0.38195632  0.50850099  1
  O  O280  1  0.75561235  0.86902367  0.00529401  1
  O  O281  1  0.75413814  0.86977774  0.50527154  1
  O  O282  1  0.12024470  0.49270132  0.24241853  1
  O  O283  1  0.12991182  0.49394387  0.74715431  1
  O  O284  1  0.13436644  0.99570444  0.25052460  1
  O  O285  1  0.13318526  1.00157333  0.74352880  1
  O  O286  1  0.63118980  0.49334918  0.24692872  1
  O  O287  1  0.62936534  0.49096378  0.74169937  1
  O  O288  1  0.63134399  0.99580191  0.24473420  1
  O  O289  1  0.63324645  0.99240595  0.74519652  1
  O  O290  1  0.36749964  0.00675094  0.25359314  1
  O  O291  1  0.36498751  0.00544543  0.75299925  1
  O  O292  1  0.37267230  0.51419419  0.25210746  1
  O  O293  1  0.36668932  0.50728217  0.75174692  1
  O  O294  1  0.87191874  0.00971188  0.24828226  1
  O  O295  1  0.87163995  0.00405957  0.75388617  1
  O  O296  1  0.87041351  0.49869362  0.25740182  1
  O  O297  1  0.86691501  0.50553260  0.74585788  1
  O  O298  1  0.12881951  0.36459636  0.36504411  1
  O  O299  1  0.12322030  0.36804502  0.86824126  1
  O  O300  1  0.11952193  0.86917562  0.37114025  1
  O  O301  1  0.12802489  0.86874373  0.87292636  1
  O  O302  1  0.61415000  0.37603746  0.36729562  1
  O  O303  1  0.61788187  0.36973444  0.86903829  1
  O  O304  1  0.62057099  0.87098162  0.36959848  1
  O  O305  1  0.61499185  0.87890653  0.86940322  1
  O  O306  1  0.38199589  0.13069215  0.13089115  1
  O  O307  1  0.38431067  0.13251676  0.62709456  1
  O  O308  1  0.38291981  0.62281693  0.13298352  1
  O  O309  1  0.37706189  0.63215306  0.63325947  1
  O  O310  1  0.87673876  0.13245362  0.13494967  1
  O  O311  1  0.87977385  0.12907209  0.62919405  1
  O  O312  1  0.88131786  0.63252065  0.12496208  1
  O  O313  1  0.87752010  0.62952586  0.62788641  1
  O  O314  1  0.25811938  0.25291383  0.11877899  1
  O  O315  1  0.25608386  0.25464786  0.62057130  1
  O  O316  1  0.24666577  0.76336918  0.12574587  1
  O  O317  1  0.25548062  0.75085201  0.62023148  1
  O  O318  1  0.75543627  0.25624625  0.11817449  1
  O  O319  1  0.75610778  0.26154428  0.62760960  1
  O  O320  1  0.75510146  0.75485735  0.11862979  1
  O  O321  1  0.75429153  0.75445437  0.61953165  1
  O  O322  1  0.24048718  0.24902596  0.38138952  1
  O  O323  1  0.24408140  0.24109296  0.88100051  1
  O  O324  1  0.24259707  0.74520038  0.38204899  1
  O  O325  1  0.24844551  0.73608216  0.87680637  1
  O  O326  1  0.74423536  0.24213981  0.36886942  1
  O  O327  1  0.74472625  0.24285008  0.87836933  1
  O  O328  1  0.74463758  0.74527640  0.37901788  1
  O  O329  1  0.75593913  0.73633910  0.87951459  1
  O  O330  1  0.01087150  0.11842328  0.00119680  1
  O  O331  1  0.00782301  0.12379791  0.50761055  1
  O  O332  1  0.00722449  0.61776478  0.00377797  1
  O  O333  1  0.00280560  0.61658536  0.50289504  1
  O  O334  1  0.50806872  0.12424789  0.00738667  1
  O  O335  1  0.50899753  0.11925965  0.51209398  1
  O  O336  1  0.50571375  0.62826968  0.00503639  1
  O  O337  1  0.50073608  0.61417506  0.49987252  1
  O  O338  1  0.49903249  0.38317616  0.49021430  1
  O  O339  1  0.49116354  0.37530902  0.99193703  1
  O  O340  1  0.49534993  0.87962226  0.49687996  1
  O  O341  1  0.49656916  0.87337084  0.99401159  1
  O  O342  1  0.98806284  0.38632583  0.50476055  1
  O  O343  1  1.00039482  0.38596691  0.99840956  1
  O  O344  1  0.99348258  0.87410667  0.49461310  1
  O  O345  1  0.99504002  0.88607309  1.00644422  1
  O  O346  1  0.49905658  0.49222357  0.38152839  1
  O  O347  1  0.49742322  0.48685844  0.87926980  1
  O  O348  1  0.49969384  0.99237395  0.38344018  1
  O  O349  1  0.49843671  0.98814139  0.87743473  1
  O  O350  1  0.98794539  0.50586654  0.38343655  1
  O  O351  1  0.99936341  0.50007702  0.88552077  1
  O  O352  1  0.99891264  0.99138140  0.37856021  1
  O  O353  1  0.99396180  1.00783754  0.88748958  1
  O  O354  1  0.00401655  0.00508086  0.11255241  1
  O  O355  1  0.01092218  0.00566352  0.62647463  1
  O  O356  1  0.00842303  0.50474221  0.11764239  1
  O  O357  1  -0.00153938  0.50548612  0.61203522  1
  O  O358  1  0.50900133  0.00752387  0.12571316  1
  O  O359  1  0.50579200  0.00673627  0.62183580  1
  O  O360  1  0.50280654  0.51481963  0.12058999  1
  O  O361  1  0.50451699  0.49826679  0.61473138  1
  O  O362  1  0.23756012  0.37766115  0.24648378  1
  O  O363  1  0.24360450  0.38062345  0.74610815  1
  O  O364  1  0.24780827  0.88146905  0.24693994  1
  O  O365  1  0.25070000  0.88768641  0.75067323  1
  O  O366  1  0.74375912  0.38032788  0.24126155  1
  O  O367  1  0.74374546  0.37958305  0.73805485  1
  O  O368  1  0.74500870  0.88080153  0.24413269  1
  O  O369  1  0.74674215  0.87743882  0.74509765  1
  O  O370  1  0.25683136  0.11708135  0.25112312  1
  O  O371  1  0.24852798  0.11703121  0.76230291  1
  O  O372  1  0.25661604  0.62647406  0.25449153  1
  O  O373  1  0.25310232  0.62145720  0.75744922  1
  O  O374  1  0.76189118  0.11964566  0.24678697  1
  O  O375  1  0.75587117  0.11745284  0.75353362  1
  O  O376  1  0.75124675  0.61833121  0.25453286  1
  O  O377  1  0.75175329  0.62026459  0.75419942  1
  O  O378  1  0.37483978  0.12447356  0.36897319  1
  O  O379  1  0.36506397  0.12640699  0.87643296  1
  O  O380  1  0.36787443  0.62489634  0.36551799  1
  O  O381  1  0.36555481  0.62320678  0.87095732  1
  O  O382  1  0.87819019  0.12478255  0.36205216  1
  O  O383  1  0.86915827  0.11800255  0.86795381  1
  O  O384  1  0.86731451  0.61333208  0.37252096  1
  O  O385  1  0.86224464  0.61884609  0.86704794  1
  O  O386  1  0.12670894  0.38387638  0.13262876  1
  O  O387  1  0.13134241  0.37483071  0.63168905  1
  O  O388  1  0.13650751  0.87816329  0.13357154  1
  O  O389  1  0.12648607  0.88692279  0.63114488  1
  O  O390  1  0.63008784  0.37737180  0.12817396  1
  O  O391  1  0.63106912  0.37734578  0.62650898  1
  O  O392  1  0.63096710  0.87980161  0.13068938  1
  O  O393  1  0.63039816  0.88025568  0.63196466  1
  O  O394  1  0.12072478  0.25575737  0.25491221  1
  O  O395  1  0.11956858  0.25395318  0.75524685  1
  O  O396  1  0.11868954  0.75635041  0.25672216  1
  O  O397  1  0.10889237  0.74702947  0.74805267  1
  O  O398  1  0.61618127  0.25797714  0.24932786  1
  O  O399  1  0.63073676  0.25784348  0.75728406  1
  O  O400  1  0.61983348  0.75698132  0.25562493  1
  O  O401  1  0.61290968  0.75611436  0.74287201  1
  O  O402  1  0.38076910  0.24589796  0.24525610  1
  O  O403  1  0.36695085  0.24575106  0.73705143  1
  O  O404  1  0.38206978  0.73889150  0.25564785  1
  O  O405  1  0.38301845  0.74574391  0.74631628  1
  O  O406  1  0.88425170  0.24500016  0.24521871  1
  O  O407  1  0.87916932  0.24300792  0.74210206  1
  O  O408  1  0.88112813  0.74993133  0.24232682  1
  O  O409  1  0.88283544  0.74248575  0.74315421  1
  O  O410  1  0.38554750  0.49746794  0.49808922  1
  O  O411  1  0.37426425  0.48801858  0.99834403  1
  O  O412  1  0.38133419  0.99419918  0.50162139  1
  O  O413  1  0.37971032  0.98759264  0.99902883  1
  O  O414  1  0.87971262  0.49240886  0.49143909  1
  O  O415  1  0.88704852  0.50003004  0.99945879  1
  O  O416  1  0.87847910  0.99158515  0.49936135  1
  O  O417  1  0.88310426  0.99588256  0.99581193  1
  O  O418  1  0.11962279  0.00872272  0.00057693  1
  O  O419  1  0.12697394  0.00572672  0.51175677  1
  O  O420  1  0.11839443  0.50752614  0.00714522  1
  O  O421  1  0.11314683  0.50386920  0.49745060  1
  O  O422  1  0.62597590  0.00684439  0.00745137  1
  O  O423  1  0.61936186  0.00686945  0.50840932  1
  O  O424  1  0.62365940  0.51516993  0.00064372  1
  O  O425  1  0.61418130  0.50002346  0.50364382  1
  O  O426  1  0.37567980  0.37116927  0.11661016  1
  O  O427  1  0.36881701  0.36599972  0.62478511  1
  O  O428  1  0.36770687  0.88011521  0.11946716  1
  O  O429  1  0.37316726  0.86858290  0.61980303  1
  O  O430  1  0.86801825  0.36784449  0.12109630  1
  O  O431  1  0.86614710  0.36982297  0.61546382  1
  O  O432  1  0.86918590  0.86967401  0.11774794  1
  O  O433  1  0.86826648  0.86821584  0.61941004  1
  O  O434  1  0.12773326  0.13642370  0.38166894  1
  O  O435  1  0.13439259  0.12988057  0.88555889  1
  O  O436  1  0.12859702  0.63174013  0.37951545  1
  O  O437  1  0.13193780  0.62674544  0.88395752  1
  O  O438  1  0.62099702  0.12413398  0.39291885  1
  O  O439  1  0.63121466  0.12825252  0.87931541  1
  O  O440  1  0.63047766  0.63249632  0.37538019  1
  O  O441  1  0.63435562  0.62075841  0.88092066  1
