# generated using pymatgen
data_V93Zn93O256
_symmetry_space_group_name_H-M   'P 1'
_cell_length_a   17.04919384
_cell_length_b   17.05157956
_cell_length_c   17.05052598
_cell_angle_alpha   89.94041326
_cell_angle_beta   90.02518566
_cell_angle_gamma   89.92394664
_symmetry_Int_Tables_number   1
_chemical_formula_structural   V93Zn93O256
_chemical_formula_sum   'V93 Zn93 O256'
_cell_volume   4956.84781554
_cell_formula_units_Z   1
loop_
 _symmetry_equiv_pos_site_id
 _symmetry_equiv_pos_as_xyz
  1  'x, y, z'
loop_
 _atom_site_type_symbol
 _atom_site_label
 _atom_site_symmetry_multiplicity
 _atom_site_fract_x
 _atom_site_fract_y
 _atom_site_fract_z
 _atom_site_occupancy
  V  V0  1  0.74969169  0.50006014  0.74985528  1
  V  V1  1  0.74761356  0.75068644  -0.00063383  1
  V  V2  1  0.24885215  -0.00033908  0.75024779  1
  V  V3  1  0.12764319  0.37527557  0.24660721  1
  V  V4  1  0.25044163  0.62437840  0.87497388  1
  V  V5  1  0.00137947  0.62710407  0.62351214  1
  V  V6  1  0.50033815  0.74942107  0.24999090  1
  V  V7  1  0.24967273  0.49977725  0.74940917  1
  V  V8  1  0.37325619  0.25105391  0.62570992  1
  V  V9  1  0.12841328  0.49640216  0.12452789  1
  V  V10  1  0.62457403  0.87312997  0.75101919  1
  V  V11  1  0.75572975  0.12315464  0.37626287  1
  V  V12  1  0.12486649  -0.00020107  0.62423678  1
  V  V13  1  0.62540613  0.50049095  0.62637068  1
  V  V14  1  0.24931352  0.12472771  0.87466790  1
  V  V15  1  0.12220628  0.25207720  0.87343392  1
  V  V16  1  -0.00061584  0.12413833  0.12476727  1
  V  V17  1  -0.00393503  0.00116483  0.49116585  1
  V  V18  1  0.62401949  0.12329345  0.00050572  1
  V  V19  1  0.12533504  0.62410402  -0.00015175  1
  V  V20  1  0.74949227  0.62477695  0.87551643  1
  V  V21  1  0.87585778  0.37574136  -0.00155771  1
  V  V22  1  0.12663109  0.12655161  0.49806375  1
  V  V23  1  0.37419837  0.37444962  0.50150645  1
  V  V24  1  0.37053348  0.37453877  0.00427003  1
  V  V25  1  0.37319251  0.12489899  0.75108891  1
  V  V26  1  0.87619426  0.75198441  0.62381982  1
  V  V27  1  0.62601263  0.75044051  0.37487631  1
  V  V28  1  0.87358510  0.12537679  0.74952100  1
  V  V29  1  0.75106354  0.62550990  0.37409214  1
  V  V30  1  0.87587478  0.74923023  0.12341837  1
  V  V31  1  0.49847960  0.25013070  0.75242830  1
  V  V32  1  0.49967146  0.87206810  0.87690198  1
  V  V33  1  0.87405934  0.62629875  0.74827535  1
  V  V34  1  0.75788045  -0.00008392  0.25511442  1
  V  V35  1  0.37426346  0.50002885  0.87484177  1
  V  V36  1  0.50785491  0.25003071  0.25698082  1
  V  V37  1  0.37715132  0.62374974  0.24945497  1
  V  V38  1  0.87473478  0.24942487  0.12655191  1
  V  V39  1  0.00014163  -0.00006946  -0.00117686  1
  V  V40  1  0.00020741  0.49922458  -0.00095173  1
  V  V41  1  0.74136099  0.37812798  0.12598949  1
  V  V42  1  0.49974127  0.37416118  0.87517281  1
  V  V43  1  -0.00034862  0.37623776  0.37368181  1
  V  V44  1  0.62300931  0.24870172  0.87494650  1
  V  V45  1  -0.00005928  0.25030492  0.24943726  1
  V  V46  1  0.74944743  0.87617530  0.62472593  1
  V  V47  1  0.00128132  0.62419966  0.12410079  1
  V  V48  1  0.49978998  -0.00135973  0.00290328  1
  V  V49  1  0.50027747  0.50052251  0.50078927  1
  V  V50  1  0.37164250  0.25036434  0.12846072  1
  V  V51  1  0.12490052  0.87496776  0.74831708  1
  V  V52  1  -0.00193307  0.12819714  0.62496321  1
  V  V53  1  0.87579547  0.62538565  0.24925857  1
  V  V54  1  0.62640058  0.87769061  0.24966466  1
  V  V55  1  0.24808977  0.25073976  0.00423835  1
  V  V56  1  0.62619952  0.62528265  0.50115150  1
  V  V57  1  0.75013656  0.12451679  0.87474571  1
  V  V58  1  0.87574378  0.50040296  0.37339455  1
  V  V59  1  0.25002400  0.74929608  0.00052498  1
  V  V60  1  0.87388380  0.37625426  0.49837036  1
  V  V61  1  0.12549097  0.75102364  0.37450836  1
  V  V62  1  0.12549812  0.50039200  0.62321465  1
  V  V63  1  0.50670345  0.50097511  0.00654400  1
  V  V64  1  0.25212106  0.49400818  0.24457558  1
  V  V65  1  0.50026597  0.12412426  0.12520075  1
  V  V66  1  0.74869465  0.24927857  0.00145363  1
  V  V67  1  0.26267526  0.75464800  0.50266190  1
  V  V68  1  0.12612361  0.25075931  0.37497931  1
  V  V69  1  0.49443778  0.63071194  0.62724892  1
  V  V70  1  0.74219857  0.50131120  0.24496595  1
  V  V71  1  0.74446311  0.25271136  0.49378629  1
  V  V72  1  0.12598986  0.62762126  0.49926379  1
  V  V73  1  0.75161848  0.75101788  0.49931969  1
  V  V74  1  0.26252502  0.87198224  0.62180909  1
  V  V75  1  0.12594747  0.87380190  0.24973338  1
  V  V76  1  0.00174771  0.75023445  0.24931872  1
  V  V77  1  0.25145567  0.00110302  0.25118911  1
  V  V78  1  0.87594155  0.88055233  0.49321361  1
  V  V79  1  0.37404765  -0.00357273  0.38272491  1
  V  V80  1  0.62298500  0.12838530  0.49472658  1
  V  V81  1  0.37726997  0.74757526  0.12585841  1
  V  V82  1  0.12442937  0.75016683  0.87418737  1
  V  V83  1  0.49651085  0.87604471  0.38150414  1
  V  V84  1  0.37519081  0.87439239  0.00105441  1
  V  V85  1  0.50033846  0.12524773  0.62588754  1
  V  V86  1  0.62461692  0.00097929  0.62448051  1
  V  V87  1  0.87566044  0.87531310  -0.00255489  1
  V  V88  1  0.37718296  0.49809324  0.37484077  1
  V  V89  1  0.25054503  0.87417103  0.12568444  1
  V  V90  1  0.00124479  0.75180950  0.74878676  1
  V  V91  1  0.25080163  0.62602448  0.37470968  1
  V  V92  1  0.74998045  0.37617251  0.62418481  1
  Zn  Zn93  1  0.24756824  0.37282429  0.62569102  1
  Zn  Zn94  1  -0.00218708  0.87876154  0.37068848  1
  Zn  Zn95  1  0.00060797  0.87700661  0.87173911  1
  Zn  Zn96  1  0.87395739  -0.00021879  0.87294593  1
  Zn  Zn97  1  0.37633903  0.12482044  0.25329462  1
  Zn  Zn98  1  0.11998564  0.37505161  0.74757952  1
  Zn  Zn99  1  0.87837530  0.12068890  0.25619894  1
  Zn  Zn100  1  -0.00123649  0.25362461  0.74988143  1
  Zn  Zn101  1  0.50828006  0.36916431  0.38112907  1
  Zn  Zn102  1  0.24956934  0.25160754  0.50007480  1
  Zn  Zn103  1  0.25239786  0.12686076  0.37450676  1
  Zn  Zn104  1  0.75099500  0.87771774  0.12556205  1
  Zn  Zn105  1  0.50944123  0.61877998  0.13077147  1
  Zn  Zn106  1  0.49511517  -0.00300809  0.50371948  1
  Zn  Zn107  1  0.62646202  0.00066030  0.12665484  1
  Zn  Zn108  1  0.63018090  0.61875722  0.00619482  1
  Zn  Zn109  1  0.12665950  -0.00039518  0.12459226  1
  Zn  Zn110  1  -0.00049903  0.37741277  0.87057579  1
  Zn  Zn111  1  0.87711476  0.49964109  0.87299300  1
  Zn  Zn112  1  0.48824377  0.75416621  0.74287812  1
  Zn  Zn113  1  0.87320987  0.25262934  0.62474736  1
  Zn  Zn114  1  0.62267284  0.74671150  0.87404415  1
  Zn  Zn115  1  0.37292463  -0.00037775  0.87696079  1
  Zn  Zn116  1  0.62504234  0.37447759  0.75010912  1
  Zn  Zn117  1  0.74996842  0.00015599  0.75111149  1
  Zn  Zn118  1  0.62842802  0.37212267  0.25856384  1
  Zn  Zn119  1  0.37326570  0.63149663  0.74591076  1
  Zn  Zn120  1  0.12574790  0.12293943  -0.00042537  1
  Zn  Zn121  1  0.00019114  0.50163880  0.49794494  1
  Zn  Zn122  1  0.18528602  0.18573873  0.18740182  1
  Zn  Zn123  1  0.18722389  0.18869111  0.68708929  1
  Zn  Zn124  1  0.18945649  0.68460399  0.18730813  1
  Zn  Zn125  1  0.19079535  0.68919236  0.68573098  1
  Zn  Zn126  1  0.68814599  0.18483663  0.18745486  1
  Zn  Zn127  1  0.68722370  0.18979723  0.68535890  1
  Zn  Zn128  1  0.68637097  0.68732692  0.18376107  1
  Zn  Zn129  1  0.68479231  0.68907613  0.68675590  1
  Zn  Zn130  1  0.31473121  0.31216648  0.31642492  1
  Zn  Zn131  1  0.31015516  0.31393646  0.81457877  1
  Zn  Zn132  1  0.31360046  0.81248226  0.31393959  1
  Zn  Zn133  1  0.31221035  0.81244550  0.81126824  1
  Zn  Zn134  1  0.81198837  0.31177199  0.31250347  1
  Zn  Zn135  1  0.81108580  0.31036883  0.81175100  1
  Zn  Zn136  1  0.81303429  0.81214442  0.31187452  1
  Zn  Zn137  1  0.81231577  0.81219079  0.81261159  1
  Zn  Zn138  1  0.18916381  0.43864635  0.43482234  1
  Zn  Zn139  1  0.18701069  0.43548836  0.93665657  1
  Zn  Zn140  1  0.18687620  0.93546626  0.43809163  1
  Zn  Zn141  1  0.18591677  0.93656088  0.93677536  1
  Zn  Zn142  1  0.68535071  0.43871353  0.43425864  1
  Zn  Zn143  1  0.68831376  0.43506777  0.93487309  1
  Zn  Zn144  1  0.68624716  0.94128654  0.43741134  1
  Zn  Zn145  1  0.68695821  0.93930217  0.93586573  1
  Zn  Zn146  1  0.31397316  0.06345156  0.06368032  1
  Zn  Zn147  1  0.31164488  0.06120887  0.56537841  1
  Zn  Zn148  1  0.31655135  0.56337832  0.06338590  1
  Zn  Zn149  1  0.31188504  0.56400984  0.56072902  1
  Zn  Zn150  1  0.81122396  0.06045065  0.06617141  1
  Zn  Zn151  1  0.81082077  0.06223846  0.56295548  1
  Zn  Zn152  1  0.81356661  0.56134761  0.06315029  1
  Zn  Zn153  1  0.81335463  0.56207834  0.56206803  1
  Zn  Zn154  1  0.43778119  0.43225879  0.18803308  1
  Zn  Zn155  1  0.43730618  0.43987613  0.68723236  1
  Zn  Zn156  1  0.43695320  0.93673031  0.19010827  1
  Zn  Zn157  1  0.43842240  0.94060362  0.69079667  1
  Zn  Zn158  1  0.93620603  0.43757215  0.18603360  1
  Zn  Zn159  1  0.93726970  0.43867573  0.68645643  1
  Zn  Zn160  1  0.93763357  0.93586228  0.18443342  1
  Zn  Zn161  1  0.93760976  0.94029061  0.68330224  1
  Zn  Zn162  1  0.06564331  0.06312299  0.31109538  1
  Zn  Zn163  1  0.06248314  0.06444384  0.81336878  1
  Zn  Zn164  1  0.06430197  0.56256392  0.31155495  1
  Zn  Zn165  1  0.06193179  0.56317894  0.81167801  1
  Zn  Zn166  1  0.56320256  0.06259106  0.31420631  1
  Zn  Zn167  1  0.56106904  0.05953197  0.81393616  1
  Zn  Zn168  1  0.56274321  0.56156063  0.31587503  1
  Zn  Zn169  1  0.56211207  0.56266717  0.81319122  1
  Zn  Zn170  1  0.43415630  0.18359945  0.43844253  1
  Zn  Zn171  1  0.43558630  0.18581668  0.93843701  1
  Zn  Zn172  1  0.44010248  0.68536676  0.43630976  1
  Zn  Zn173  1  0.43570953  0.68598903  0.93565732  1
  Zn  Zn174  1  0.93521881  0.19202496  0.43785554  1
  Zn  Zn175  1  0.93630901  0.18748419  0.93740377  1
  Zn  Zn176  1  0.93906673  0.68963138  0.43668004  1
  Zn  Zn177  1  0.93794132  0.68728898  0.93519838  1
  Zn  Zn178  1  0.06258641  0.31332181  0.06273789  1
  Zn  Zn179  1  0.06076380  0.31455341  0.56046935  1
  Zn  Zn180  1  0.06350407  0.81321065  0.06285095  1
  Zn  Zn181  1  0.06694486  0.81460016  0.56092333  1
  Zn  Zn182  1  0.55945719  0.31051768  0.06419928  1
  Zn  Zn183  1  0.56227053  0.31264593  0.56523706  1
  Zn  Zn184  1  0.56336305  0.81059449  0.06503463  1
  Zn  Zn185  1  0.56372567  0.81158765  0.56240387  1
  O  O186  1  0.11113459  0.12320208  0.12179731  1
  O  O187  1  0.11634908  0.12139495  0.61730675  1
  O  O188  1  0.12043625  0.61836232  0.11893153  1
  O  O189  1  0.12126383  0.61871220  0.61939889  1
  O  O190  1  0.61773950  0.12440261  0.11722350  1
  O  O191  1  0.61977199  0.12031627  0.61827526  1
  O  O192  1  0.62068170  0.62836603  0.11766281  1
  O  O193  1  0.62003951  0.61915410  0.61932358  1
  O  O194  1  0.38109208  0.37946680  0.38573621  1
  O  O195  1  0.37943072  0.37844664  0.88567805  1
  O  O196  1  0.38651876  0.88317880  0.36824050  1
  O  O197  1  0.38336313  0.87628844  0.88311166  1
  O  O198  1  0.87998947  0.38073386  0.37841476  1
  O  O199  1  0.87286994  0.37470372  0.88876245  1
  O  O200  1  0.87743658  0.86918518  0.38955285  1
  O  O201  1  0.87847858  0.87606032  0.88543756  1
  O  O202  1  0.25702448  -0.00283184  0.36694250  1
  O  O203  1  0.24897873  0.00636526  0.86883626  1
  O  O204  1  0.25653471  0.50662906  0.36591314  1
  O  O205  1  0.25245958  0.50435004  0.86803582  1
  O  O206  1  0.74589586  0.01021476  0.36667084  1
  O  O207  1  0.75305816  0.00919844  0.87213036  1
  O  O208  1  0.75688746  0.50710774  0.36573695  1
  O  O209  1  0.75221281  0.50936007  0.87056058  1
  O  O210  1  0.24580159  0.50681863  0.13730648  1
  O  O211  1  0.24122831  0.50212705  0.63260049  1
  O  O212  1  0.25087348  0.99396897  0.13451213  1
  O  O213  1  0.24320886  0.99315967  0.63007146  1
  O  O214  1  0.75770171  0.48986383  0.13397953  1
  O  O215  1  0.74483888  0.49658779  0.62981894  1
  O  O216  1  0.74532182  0.99764985  0.13715629  1
  O  O217  1  0.74246456  0.99330836  0.62685722  1
  O  O218  1  0.00564061  0.36991785  0.25425452  1
  O  O219  1  0.00094982  0.37131265  0.75262170  1
  O  O220  1  0.00612164  0.86875391  0.24945740  1
  O  O221  1  0.00571677  0.87017829  0.74814608  1
  O  O222  1  0.50213497  0.35907184  0.24855202  1
  O  O223  1  0.49896527  0.36854319  0.75763984  1
  O  O224  1  0.50871254  0.87048756  0.25905215  1
  O  O225  1  0.50691872  0.87535362  0.75936602  1
  O  O226  1  0.49929377  0.13468100  0.24497357  1
  O  O227  1  0.49360410  0.12980429  0.74647109  1
  O  O228  1  0.49464823  0.63098153  0.25228582  1
  O  O229  1  0.49982391  0.62704218  0.74114745  1
  O  O230  1  0.99901907  0.12920772  0.24181164  1
  O  O231  1  0.99256423  0.12528970  0.73969525  1
  O  O232  1  0.99577478  0.63003481  0.24339822  1
  O  O233  1  0.99447163  0.63189679  0.74327247  1
  O  O234  1  0.36837673  0.25539086  0.00704817  1
  O  O235  1  0.37523699  0.25840103  0.50628336  1
  O  O236  1  0.36908315  0.75426716  0.00552622  1
  O  O237  1  0.36118456  0.74596371  0.49274654  1
  O  O238  1  0.86878570  0.25715863  0.00563352  1
  O  O239  1  0.86346911  0.25799558  0.50174092  1
  O  O240  1  0.86885452  0.75685718  0.00243590  1
  O  O241  1  0.87120396  0.75844695  0.50532464  1
  O  O242  1  0.12353088  0.24149673  0.49445570  1
  O  O243  1  0.13416676  0.24997780  0.99445963  1
  O  O244  1  0.13156406  0.74495075  0.49265310  1
  O  O245  1  0.13014078  0.74396925  0.99544922  1
  O  O246  1  0.63348885  0.24000280  0.50731277  1
  O  O247  1  0.62863570  0.24355586  0.99504301  1
  O  O248  1  0.63316829  0.74527320  0.49384948  1
  O  O249  1  0.64012774  0.75372944  0.99771608  1
  O  O250  1  0.49022508  0.24384286  0.13258053  1
  O  O251  1  0.49351640  0.24473904  0.63304194  1
  O  O252  1  0.49282095  0.75058492  0.13327552  1
  O  O253  1  0.50825944  0.73584420  0.62433931  1
  O  O254  1  0.99576477  0.24201927  0.12887096  1
  O  O255  1  0.99798493  0.23755424  0.62350605  1
  O  O256  1  0.99598735  0.74357125  0.12921648  1
  O  O257  1  0.99654672  0.74648900  0.62914398  1
  O  O258  1  0.00544916  0.25588259  0.36885023  1
  O  O259  1  0.01148271  0.25036150  0.87653018  1
  O  O260  1  0.00746047  0.75103018  0.36614048  1
  O  O261  1  0.00682817  0.75072996  0.86701460  1
  O  O262  1  0.49189313  0.24707318  0.35882020  1
  O  O263  1  0.50324275  0.25404349  0.87184177  1
  O  O264  1  0.50571009  0.75709016  0.37006051  1
  O  O265  1  0.50350411  0.76289598  0.87949496  1
  O  O266  1  0.23465378  0.12373057  0.50102389  1
  O  O267  1  0.24958814  0.13462714  0.99480234  1
  O  O268  1  0.24507772  0.63329882  0.49446671  1
  O  O269  1  0.24497686  0.62943316  0.99561807  1
  O  O270  1  0.74357823  0.13207956  0.49514783  1
  O  O271  1  0.74513365  0.13029466  0.99635974  1
  O  O272  1  0.74634914  0.63127759  0.49435028  1
  O  O273  1  0.75452812  0.63326402  0.99204797  1
  O  O274  1  0.26050775  0.36341883  -0.00533580  1
  O  O275  1  0.26288577  0.37594041  0.50107030  1
  O  O276  1  0.25442355  0.86889990  0.00539648  1
  O  O277  1  0.24392575  0.86656583  0.50968366  1
  O  O278  1  0.75627790  0.37071653  0.00745020  1
  O  O279  1  0.75325787  0.36953271  0.50302622  1
  O  O280  1  0.75936521  0.86830555  -0.00111716  1
  O  O281  1  0.75650657  0.87159233  0.50366475  1
  O  O282  1  0.13415893  0.49611020  0.24491844  1
  O  O283  1  0.13217372  0.50163406  0.74000805  1
  O  O284  1  0.13537508  0.99309626  0.24936056  1
  O  O285  1  0.12890872  0.99631177  0.74425468  1
  O  O286  1  0.64007435  0.50201046  0.25312438  1
  O  O287  1  0.63244257  0.49802369  0.74485764  1
  O  O288  1  0.63269339  0.99086916  0.25131705  1
  O  O289  1  0.62483208  0.98895869  0.74417887  1
  O  O290  1  0.36543806  0.00011513  0.25859707  1
  O  O291  1  0.36681045  0.00787169  0.75347164  1
  O  O292  1  0.37022917  0.50188501  0.25356416  1
  O  O293  1  0.36473131  0.50181338  0.75618158  1
  O  O294  1  0.86257471  -0.00032322  0.24557131  1
  O  O295  1  0.87385502  0.01235398  0.74970284  1
  O  O296  1  0.86787063  0.50678924  0.25401794  1
  O  O297  1  0.86761232  0.50907878  0.75014360  1
  O  O298  1  0.11952398  0.37089300  0.36858888  1
  O  O299  1  0.12338749  0.36362818  0.87371887  1
  O  O300  1  0.12273038  0.86835661  0.36712057  1
  O  O301  1  0.12359254  0.86764238  0.86691094  1
  O  O302  1  0.62010971  0.37603586  0.37168629  1
  O  O303  1  0.61855774  0.36591601  0.87380259  1
  O  O304  1  0.61916541  0.87105853  0.36691451  1
  O  O305  1  0.61718357  0.87514655  0.86715537  1
  O  O306  1  0.38160950  0.13494627  0.12714355  1
  O  O307  1  0.37984462  0.13031830  0.63074271  1
  O  O308  1  0.38145864  0.63050037  0.13187333  1
  O  O309  1  0.39016946  0.61588495  0.62516164  1
  O  O310  1  0.88524854  0.13057981  0.12628688  1
  O  O311  1  0.88252035  0.12588962  0.63094926  1
  O  O312  1  0.88178829  0.62980845  0.12959207  1
  O  O313  1  0.88040898  0.63237287  0.62831161  1
  O  O314  1  0.25865853  0.24218293  0.11535907  1
  O  O315  1  0.25690322  0.25292695  0.62173567  1
  O  O316  1  0.25643221  0.75341626  0.11984886  1
  O  O317  1  0.24403653  0.76003966  0.61440046  1
  O  O318  1  0.75543289  0.25657315  0.12113406  1
  O  O319  1  0.75078382  0.25719026  0.61363158  1
  O  O320  1  0.75835056  0.75233588  0.11472339  1
  O  O321  1  0.75539873  0.75596137  0.61863338  1
  O  O322  1  0.24250314  0.24693608  0.37885213  1
  O  O323  1  0.24262125  0.24497117  0.88350327  1
  O  O324  1  0.24473741  0.74587101  0.38078235  1
  O  O325  1  0.24301485  0.74465184  0.88202883  1
  O  O326  1  0.75116592  0.24259618  0.38656683  1
  O  O327  1  0.74319920  0.24427102  0.88218189  1
  O  O328  1  0.74574556  0.74439074  0.37958688  1
  O  O329  1  0.75001041  0.74148789  0.88240802  1
  O  O330  1  -0.00178501  0.11634228  0.00834445  1
  O  O331  1  0.00504879  0.12036315  0.50507187  1
  O  O332  1  0.00539697  0.62022241  0.00480372  1
  O  O333  1  0.00717432  0.62525187  0.50572792  1
  O  O334  1  0.50388685  0.11899456  0.00495115  1
  O  O335  1  0.50874439  0.12596446  0.50694246  1
  O  O336  1  0.49826092  0.60742232  -0.00253132  1
  O  O337  1  0.50687825  0.62039427  0.50624133  1
  O  O338  1  0.48988108  0.38091508  0.50327529  1
  O  O339  1  0.49075841  0.38123301  0.99599890  1
  O  O340  1  0.50903691  0.87669347  0.48516329  1
  O  O341  1  0.49604684  0.87834993  0.99539793  1
  O  O342  1  0.99266768  0.37783426  0.49132020  1
  O  O343  1  0.98959736  0.37992263  1.00019864  1
  O  O344  1  0.99309814  0.88471861  0.50036552  1
  O  O345  1  0.99230320  0.88225787  0.99964883  1
  O  O346  1  0.49267215  0.50034139  0.38370825  1
  O  O347  1  0.49347641  0.49334865  0.88353417  1
  O  O348  1  0.49162060  0.99255702  0.37526849  1
  O  O349  1  0.49794634  0.98798002  0.88286387  1
  O  O350  1  0.99404359  0.49464553  0.37390343  1
  O  O351  1  0.99715463  0.49905526  0.88305381  1
  O  O352  1  1.00400566  1.00019544  0.38753750  1
  O  O353  1  0.99722103  0.99994864  0.88677781  1
  O  O354  1  0.00018386  0.00777584  0.11669324  1
  O  O355  1  0.00511604  0.01105664  0.61491209  1
  O  O356  1  0.00622201  0.50595650  0.11932494  1
  O  O357  1  0.01031129  0.50814973  0.62267228  1
  O  O358  1  0.50093854  0.00583712  0.12133184  1
  O  O359  1  0.50542352  0.00695538  0.62350971  1
  O  O360  1  0.49367659  0.49662889  0.10941402  1
  O  O361  1  0.50722720  0.50711766  0.62002545  1
  O  O362  1  0.24584529  0.38767109  0.25752454  1
  O  O363  1  0.24681005  0.38886402  0.74919168  1
  O  O364  1  0.24643410  0.88169060  0.24495429  1
  O  O365  1  0.24315778  0.88024771  0.74264982  1
  O  O366  1  0.75153339  0.38327190  0.24210977  1
  O  O367  1  0.74985717  0.38129104  0.74334718  1
  O  O368  1  0.74266673  0.88201615  0.25263846  1
  O  O369  1  0.74178558  0.87599526  0.74453266  1
  O  O370  1  0.24944340  0.11212528  0.25133750  1
  O  O371  1  0.25375738  0.11914540  0.75406848  1
  O  O372  1  0.25699567  0.61635207  0.25561696  1
  O  O373  1  0.24850634  0.61433021  0.75579744  1
  O  O374  1  0.74999567  0.11822957  0.25936107  1
  O  O375  1  0.75764167  0.12538348  0.75426064  1
  O  O376  1  0.75643075  0.62013569  0.25343969  1
  O  O377  1  0.75363037  0.62261598  0.75687197  1
  O  O378  1  0.37125360  0.11316108  0.37189751  1
  O  O379  1  0.36724844  0.12391433  0.86899489  1
  O  O380  1  0.37017126  0.61807811  0.36872594  1
  O  O381  1  0.36599636  0.61589231  0.87650627  1
  O  O382  1  0.86120759  0.12802265  0.37566017  1
  O  O383  1  0.86918145  0.12543439  0.86596847  1
  O  O384  1  0.87052256  0.62205561  0.36896339  1
  O  O385  1  0.86464423  0.62560824  0.86767905  1
  O  O386  1  0.12023382  0.38360818  0.13337064  1
  O  O387  1  0.12641755  0.38757192  0.62347875  1
  O  O388  1  0.13297923  0.87537767  0.13168398  1
  O  O389  1  0.13102582  0.88251584  0.63067310  1
  O  O390  1  0.63914418  0.36763298  0.12765646  1
  O  O391  1  0.63164538  0.38282199  0.62677283  1
  O  O392  1  0.62683146  0.87461412  0.14009867  1
  O  O393  1  0.62888630  0.87989617  0.63195765  1
  O  O394  1  0.12002806  0.25524369  0.25439805  1
  O  O395  1  0.12394775  0.25164973  0.76052776  1
  O  O396  1  0.12177703  0.75350122  0.25386387  1
  O  O397  1  0.12044936  0.75447324  0.75434638  1
  O  O398  1  0.60999332  0.24800064  0.24591170  1
  O  O399  1  0.61680147  0.25036095  0.75684817  1
  O  O400  1  0.62221767  0.75831591  0.25663461  1
  O  O401  1  0.62212048  0.76403738  0.75157194  1
  O  O402  1  0.38048390  0.24959567  0.24086013  1
  O  O403  1  0.37822382  0.24504882  0.74641842  1
  O  O404  1  0.38020470  0.74371735  0.24624435  1
  O  O405  1  0.37637420  0.74411370  0.75424477  1
  O  O406  1  0.88248289  0.24818676  0.24397456  1
  O  O407  1  0.87656190  0.23761424  0.74690178  1
  O  O408  1  0.88071367  0.74496501  0.24386730  1
  O  O409  1  0.88040234  0.74667230  0.74268378  1
  O  O410  1  0.37920774  0.49272053  0.49525000  1
  O  O411  1  0.37926708  0.49002711  0.99579553  1
  O  O412  1  0.37515556  1.00435139  0.48750032  1
  O  O413  1  0.38107266  0.99203535  1.00019797  1
  O  O414  1  0.87547814  0.49486069  0.49115296  1
  O  O415  1  0.88089115  0.49072178  0.99980389  1
  O  O416  1  0.88399030  0.99133667  0.50653846  1
  O  O417  1  0.88237362  0.99083233  1.00105413  1
  O  O418  1  0.11371616  0.00041552  0.00309283  1
  O  O419  1  0.11627776  0.00816182  0.50373625  1
  O  O420  1  0.12144639  0.50460085  0.00465119  1
  O  O421  1  0.12678100  0.50795207  0.50770547  1
  O  O422  1  0.61807461  0.00510600  0.00296300  1
  O  O423  1  0.62288913  0.01086587  0.50705000  1
  O  O424  1  0.60914302  0.49481261  -0.00420856  1
  O  O425  1  0.62094002  0.50744685  0.50596670  1
  O  O426  1  0.37862709  0.36250948  0.11389971  1
  O  O427  1  0.37354019  0.37085039  0.61659675  1
  O  O428  1  0.37000163  0.86771831  0.12097883  1
  O  O429  1  0.36114022  0.88204669  0.62923330  1
  O  O430  1  0.86774221  0.36929940  0.11583930  1
  O  O431  1  0.86797361  0.37611476  0.61641303  1
  O  O432  1  0.87460601  0.86775766  0.11269286  1
  O  O433  1  0.86979462  0.87069767  0.61575996  1
  O  O434  1  0.12473377  0.13160519  0.38406620  1
  O  O435  1  0.13066496  0.13498070  0.87763337  1
  O  O436  1  0.13187530  0.63017826  0.37854317  1
  O  O437  1  0.13062201  0.63012425  0.88093836  1
  O  O438  1  0.63332313  0.12130602  0.38841338  1
  O  O439  1  0.62888510  0.12936725  0.88087144  1
  O  O440  1  0.63154047  0.63104407  0.38122161  1
  O  O441  1  0.63723849  0.62632386  0.88103304  1
