# generated using pymatgen
data_V93Zn93O256
_symmetry_space_group_name_H-M   'P 1'
_cell_length_a   17.04637432
_cell_length_b   17.04511848
_cell_length_c   17.04768077
_cell_angle_alpha   89.97381068
_cell_angle_beta   90.06246770
_cell_angle_gamma   89.96984979
_symmetry_Int_Tables_number   1
_chemical_formula_structural   V93Zn93O256
_chemical_formula_sum   'V93 Zn93 O256'
_cell_volume   4953.32684769
_cell_formula_units_Z   1
loop_
 _symmetry_equiv_pos_site_id
 _symmetry_equiv_pos_as_xyz
  1  'x, y, z'
loop_
 _atom_site_type_symbol
 _atom_site_label
 _atom_site_symmetry_multiplicity
 _atom_site_fract_x
 _atom_site_fract_y
 _atom_site_fract_z
 _atom_site_occupancy
  V  V0  1  0.37370307  0.24883458  0.62487466  1
  V  V1  1  0.25222100  0.87122120  0.12330831  1
  V  V2  1  0.37397795  0.37450268  0.49823461  1
  V  V3  1  0.36707000  0.25444275  0.12174103  1
  V  V4  1  0.49834167  0.37726907  0.87337647  1
  V  V5  1  0.24867141  -0.00071099  0.74951668  1
  V  V6  1  0.75032309  0.62507907  0.87555979  1
  V  V7  1  0.75076572  0.25023637  0.49942352  1
  V  V8  1  0.87405945  0.25173210  0.12441177  1
  V  V9  1  0.62416914  0.12529559  0.49966938  1
  V  V10  1  0.74206547  0.37916142  0.12415367  1
  V  V11  1  0.87618743  0.75065917  0.62650244  1
  V  V12  1  0.62559535  0.74944936  0.87564144  1
  V  V13  1  0.62478875  0.87521154  0.25455923  1
  V  V14  1  0.50038217  0.74930250  0.24851498  1
  V  V15  1  0.00027276  0.87560484  0.87702890  1
  V  V16  1  0.87573004  0.49973877  0.87467895  1
  V  V17  1  0.50003270  0.74887095  0.75064799  1
  V  V18  1  0.25239808  0.87419580  0.62537126  1
  V  V19  1  0.25209858  0.74961200  0.50007030  1
  V  V20  1  0.62550955  0.49885806  0.62386392  1
  V  V21  1  0.12646675  0.74767766  0.87552354  1
  V  V22  1  0.00018440  0.50054970  0.49865001  1
  V  V23  1  0.87712691  0.00118647  0.37836442  1
  V  V24  1  0.87588879  0.75117382  0.12534701  1
  V  V25  1  0.49943027  -0.00024502  0.49984929  1
  V  V26  1  0.12412896  0.12551001  -0.00096674  1
  V  V27  1  0.12699876  0.37281871  0.25400830  1
  V  V28  1  0.12479038  0.87415064  0.25091215  1
  V  V29  1  0.25567325  0.49912366  0.75291474  1
  V  V30  1  0.74361553  0.50032914  0.24673477  1
  V  V31  1  0.87530659  0.50009218  0.37468577  1
  V  V32  1  0.75073605  0.49950121  0.74929872  1
  V  V33  1  0.37373911  0.12685703  0.24772637  1
  V  V34  1  0.12929902  0.49270086  0.12500141  1
  V  V35  1  -0.00186736  -0.00096728  0.00009738  1
  V  V36  1  -0.00030719  0.49976101  0.00059362  1
  V  V37  1  0.37466469  -0.00012311  0.87573244  1
  V  V38  1  0.87591297  0.37559779  0.49910631  1
  V  V39  1  0.49911464  0.37482699  0.37430299  1
  V  V40  1  0.00151946  0.87965621  0.37874461  1
  V  V41  1  0.36597039  0.38202443  -0.00339842  1
  V  V42  1  0.00157013  0.62489301  0.12602110  1
  V  V43  1  0.37580204  0.49839255  0.37340450  1
  V  V44  1  0.62368648  0.25165237  0.37291457  1
  V  V45  1  0.50042220  0.62432487  0.62447092  1
  V  V46  1  0.12449592  0.49900344  0.62365530  1
  V  V47  1  -0.00077767  0.37340412  0.87316977  1
  V  V48  1  0.49759513  0.25083026  0.24907901  1
  V  V49  1  0.87520362  0.12693371  0.25080170  1
  V  V50  1  0.62175115  0.00308558  0.12496205  1
  V  V51  1  0.24844891  0.12537548  0.87465286  1
  V  V52  1  0.62456093  0.12806566  -0.00188134  1
  V  V53  1  0.87992290  0.12750603  0.75181168  1
  V  V54  1  0.12593703  0.62344965  0.50007417  1
  V  V55  1  0.75028554  0.74942070  0.49883973  1
  V  V56  1  0.25101832  0.62427603  0.37456832  1
  V  V57  1  0.11978584  0.37075117  0.74942436  1
  V  V58  1  0.88160792  0.24963688  0.62859450  1
  V  V59  1  -0.00077711  0.12497231  0.12544770  1
  V  V60  1  0.25718067  0.62076738  0.87414728  1
  V  V61  1  0.24913660  0.37393288  0.62456374  1
  V  V62  1  -0.00026866  0.11719537  0.62220431  1
  V  V63  1  0.25012557  -0.00037747  0.24968932  1
  V  V64  1  0.75009302  0.12660365  0.37516280  1
  V  V65  1  0.00400887  0.25152595  0.25604620  1
  V  V66  1  0.00044918  0.74918124  0.75088157  1
  V  V67  1  0.62510205  0.62021554  0.00767031  1
  V  V68  1  0.37572129  -0.00141705  0.37635749  1
  V  V69  1  0.12616270  0.87375613  0.75102890  1
  V  V70  1  0.00054850  0.75070496  0.25098172  1
  V  V71  1  0.87647660  0.62579508  0.75052289  1
  V  V72  1  0.50302925  0.49957086  0.00129016  1
  V  V73  1  0.75021701  0.00185204  0.75170588  1
  V  V74  1  0.87375663  0.37495282  0.00026098  1
  V  V75  1  0.12645313  0.62394123  -0.00050878  1
  V  V76  1  0.24360348  0.12863973  0.37453157  1
  V  V77  1  0.49829710  0.12606939  0.62525414  1
  V  V78  1  0.75012062  0.00199845  0.25114811  1
  V  V79  1  0.49964376  0.87582408  0.87763738  1
  V  V80  1  0.87558203  0.62427652  0.25119095  1
  V  V81  1  0.75089380  0.75048609  0.00069898  1
  V  V82  1  0.37621017  0.62425487  0.24770066  1
  V  V83  1  0.12126068  0.11817516  0.49912275  1
  V  V84  1  0.37380467  0.12611086  0.74945861  1
  V  V85  1  0.75034489  0.37451973  0.62522197  1
  V  V86  1  0.88000771  0.87993838  0.50287010  1
  V  V87  1  0.12020578  0.24909359  0.87193902  1
  V  V88  1  0.62530949  0.00073574  0.62653637  1
  V  V89  1  0.12484159  0.00008765  0.12482323  1
  V  V90  1  0.75103085  0.87524844  0.12540128  1
  V  V91  1  0.25043763  0.49630662  0.24626174  1
  V  V92  1  0.24235821  0.24960218  0.49632499  1
  Zn  Zn93  1  0.00232704  0.37191260  0.37641219  1
  Zn  Zn94  1  0.49670934  0.12743745  0.12206593  1
  Zn  Zn95  1  0.24678544  0.25355521  0.00210439  1
  Zn  Zn96  1  0.87446016  0.87675971  -0.00009936  1
  Zn  Zn97  1  0.25414170  0.74769416  -0.00119914  1
  Zn  Zn98  1  0.87322881  0.00020037  0.87771639  1
  Zn  Zn99  1  0.74813619  0.62492768  0.37430627  1
  Zn  Zn100  1  0.74797635  0.25135898  -0.00123140  1
  Zn  Zn101  1  0.75125243  0.12854290  0.87685023  1
  Zn  Zn102  1  0.50048384  0.50094757  0.49885297  1
  Zn  Zn103  1  0.62047129  0.37965756  0.24508840  1
  Zn  Zn104  1  0.37744834  0.87351831  0.50142491  1
  Zn  Zn105  1  0.12479775  0.74937304  0.37554542  1
  Zn  Zn106  1  0.62507594  0.74712915  0.37712559  1
  Zn  Zn107  1  0.50019758  0.87302707  0.37783410  1
  Zn  Zn108  1  0.50180774  0.25111885  0.75059900  1
  Zn  Zn109  1  0.37689999  0.74694678  0.62534935  1
  Zn  Zn110  1  0.37475820  0.87430268  0.00137701  1
  Zn  Zn111  1  0.62767469  0.87621917  0.75084920  1
  Zn  Zn112  1  0.62473440  0.37140855  0.75092339  1
  Zn  Zn113  1  0.62633391  0.25051712  0.87092895  1
  Zn  Zn114  1  0.37866077  0.61942309  0.75378247  1
  Zn  Zn115  1  0.00120447  0.62519818  0.62505051  1
  Zn  Zn116  1  0.37694412  0.74695507  0.12180725  1
  Zn  Zn117  1  0.12045721  -0.00400108  0.62274921  1
  Zn  Zn118  1  0.62592794  0.62623089  0.49837435  1
  Zn  Zn119  1  0.49689414  0.00197419  0.00081623  1
  Zn  Zn120  1  0.50255517  0.61783883  0.12717185  1
  Zn  Zn121  1  0.74910161  0.87504520  0.62673890  1
  Zn  Zn122  1  0.18646881  0.18840891  0.18678442  1
  Zn  Zn123  1  0.18531454  0.18711597  0.68606362  1
  Zn  Zn124  1  0.18727187  0.68582796  0.18828507  1
  Zn  Zn125  1  0.18755244  0.68577937  0.68761766  1
  Zn  Zn126  1  0.68690096  0.19142940  0.18600660  1
  Zn  Zn127  1  0.68860889  0.18793464  0.68834587  1
  Zn  Zn128  1  0.68904013  0.68847562  0.18862720  1
  Zn  Zn129  1  0.68798203  0.68757285  0.68637151  1
  Zn  Zn130  1  0.31033296  0.31315609  0.31031916  1
  Zn  Zn131  1  0.31113602  0.31123441  0.81467941  1
  Zn  Zn132  1  0.31355351  0.81052304  0.31115990  1
  Zn  Zn133  1  0.31486653  0.80924651  0.81345056  1
  Zn  Zn134  1  0.81283926  0.31549760  0.31062815  1
  Zn  Zn135  1  0.80890334  0.31056151  0.81346155  1
  Zn  Zn136  1  0.81372941  0.81307808  0.31439653  1
  Zn  Zn137  1  0.81388972  0.81501799  0.81407056  1
  Zn  Zn138  1  0.18726400  0.43797290  0.43386637  1
  Zn  Zn139  1  0.18522021  0.43953746  0.93452774  1
  Zn  Zn140  1  0.18880830  0.93791509  0.43783931  1
  Zn  Zn141  1  0.18662309  0.93784733  0.93822466  1
  Zn  Zn142  1  0.68819742  0.43788554  0.43557652  1
  Zn  Zn143  1  0.68569069  0.43705067  0.93642987  1
  Zn  Zn144  1  0.69151326  0.93812317  0.44077920  1
  Zn  Zn145  1  0.68648059  0.93916467  0.93724289  1
  Zn  Zn146  1  0.31186399  0.06255110  0.06050728  1
  Zn  Zn147  1  0.31055233  0.06169299  0.56219696  1
  Zn  Zn148  1  0.31374944  0.56200777  0.06262406  1
  Zn  Zn149  1  0.31435535  0.56105315  0.56377291  1
  Zn  Zn150  1  0.81057915  0.06335239  0.06273452  1
  Zn  Zn151  1  0.81113571  0.06235990  0.56464091  1
  Zn  Zn152  1  0.81296698  0.56259023  0.06431750  1
  Zn  Zn153  1  0.81413849  0.56447229  0.56319710  1
  Zn  Zn154  1  0.43611525  0.43542530  0.18232556  1
  Zn  Zn155  1  0.43775210  0.43574091  0.68584528  1
  Zn  Zn156  1  0.43728227  0.93655371  0.18980407  1
  Zn  Zn157  1  0.43738598  0.93761412  0.68947789  1
  Zn  Zn158  1  0.93647583  0.43685235  0.18781551  1
  Zn  Zn159  1  0.93802730  0.43862953  0.68580732  1
  Zn  Zn160  1  0.93704495  0.93811252  0.18941624  1
  Zn  Zn161  1  0.93688099  0.93841410  0.69026398  1
  Zn  Zn162  1  0.06232401  0.06145687  0.31131543  1
  Zn  Zn163  1  0.06011606  0.06073458  0.81039910  1
  Zn  Zn164  1  0.06344664  0.56103055  0.31371735  1
  Zn  Zn165  1  0.06544065  0.56074696  0.81168513  1
  Zn  Zn166  1  0.55990667  0.06558176  0.31196666  1
  Zn  Zn167  1  0.56160172  0.06412696  0.81267621  1
  Zn  Zn168  1  0.56356453  0.56492727  0.31603131  1
  Zn  Zn169  1  0.56298885  0.55937143  0.81567162  1
  Zn  Zn170  1  0.43443447  0.18767232  0.43737829  1
  Zn  Zn171  1  0.43945491  0.19109443  0.93741186  1
  Zn  Zn172  1  0.43886218  0.68693508  0.43587256  1
  Zn  Zn173  1  0.43721244  0.68859589  0.94091565  1
  Zn  Zn174  1  0.93811669  0.18808739  0.43912751  1
  Zn  Zn175  1  0.93713614  0.18821931  0.93765148  1
  Zn  Zn176  1  0.93736886  0.68870329  0.43725582  1
  Zn  Zn177  1  0.93825329  0.68834637  0.93850738  1
  Zn  Zn178  1  0.06055547  0.31123654  0.06279349  1
  Zn  Zn179  1  0.06097221  0.31036977  0.56171816  1
  Zn  Zn180  1  0.06539479  0.81154792  0.06144743  1
  Zn  Zn181  1  0.06392691  0.81046585  0.56349183  1
  Zn  Zn182  1  0.55658429  0.31175083  0.06087217  1
  Zn  Zn183  1  0.56160554  0.31235450  0.56155745  1
  Zn  Zn184  1  0.56509758  0.81152773  0.06339329  1
  Zn  Zn185  1  0.56463886  0.81548636  0.56394644  1
  O  O186  1  0.11951828  0.11938475  0.11990689  1
  O  O187  1  0.11588266  0.12426927  0.61860025  1
  O  O188  1  0.11976774  0.61577084  0.12033526  1
  O  O189  1  0.12464353  0.61696122  0.61811238  1
  O  O190  1  0.62383094  0.11633400  0.12006496  1
  O  O191  1  0.61895230  0.12064894  0.61782960  1
  O  O192  1  0.62400768  0.63168342  0.11099896  1
  O  O193  1  0.61724040  0.61626224  0.62441674  1
  O  O194  1  0.37914821  0.37906471  0.37870973  1
  O  O195  1  0.38294407  0.36714475  0.88889846  1
  O  O196  1  0.37355077  0.88939546  0.37468088  1
  O  O197  1  0.38393991  0.88039550  0.87461742  1
  O  O198  1  0.87679052  0.38118117  0.38225349  1
  O  O199  1  0.87994662  0.38024415  0.87898230  1
  O  O200  1  0.88292711  0.88061274  0.38252365  1
  O  O201  1  0.88498745  0.87743732  0.87908763  1
  O  O202  1  0.25736264  0.00797609  0.37046732  1
  O  O203  1  0.25374603  0.00488651  0.86867513  1
  O  O204  1  0.25660360  0.50522235  0.36758292  1
  O  O205  1  0.24147909  0.50913065  0.86337765  1
  O  O206  1  0.75610233  0.00726833  0.37024140  1
  O  O207  1  0.75128921  0.00393568  0.86461650  1
  O  O208  1  0.75814132  0.50016535  0.36558892  1
  O  O209  1  0.75673101  0.50506639  0.86938237  1
  O  O210  1  0.23678599  0.50527752  0.13024371  1
  O  O211  1  0.24361410  0.49305821  0.63107818  1
  O  O212  1  0.24448214  0.99277893  0.13084912  1
  O  O213  1  0.24959213  0.98940183  0.63080659  1
  O  O214  1  0.75781161  0.49052700  0.13505701  1
  O  O215  1  0.74440981  0.49545977  0.62911253  1
  O  O216  1  0.74099681  0.99606648  0.13244034  1
  O  O217  1  0.74385066  1.00014049  0.63458823  1
  O  O218  1  0.00646871  0.36689266  0.24995089  1
  O  O219  1  0.01273190  0.38242621  0.75565474  1
  O  O220  1  0.00465678  0.87041963  0.25804118  1
  O  O221  1  0.00634612  0.86957646  0.75589695  1
  O  O222  1  0.49996782  0.36970703  0.25534573  1
  O  O223  1  0.49856910  0.37575732  0.76072903  1
  O  O224  1  0.50888830  0.86832310  0.25265275  1
  O  O225  1  0.50171319  0.86620872  0.75944986  1
  O  O226  1  0.49080178  0.13297479  0.24844165  1
  O  O227  1  0.49084028  0.12550459  0.74260051  1
  O  O228  1  0.49669613  0.63262642  0.24823487  1
  O  O229  1  0.50088890  0.63092137  0.74432689  1
  O  O230  1  0.99591468  0.13172688  0.24515248  1
  O  O231  1  0.98867297  0.12124846  0.73949325  1
  O  O232  1  0.99630265  0.63050008  0.24562576  1
  O  O233  1  0.99456169  0.63075911  0.75078550  1
  O  O234  1  0.37200818  0.25901275  0.00601105  1
  O  O235  1  0.36283806  0.25387221  0.50451614  1
  O  O236  1  0.37159895  0.75578002  0.00493445  1
  O  O237  1  0.36359782  0.75103253  0.50125340  1
  O  O238  1  0.87558067  0.25741669  0.00718189  1
  O  O239  1  0.86976349  0.25475762  0.50759196  1
  O  O240  1  0.86879121  0.75058176  0.00792445  1
  O  O241  1  0.86998602  0.75931182  0.50571360  1
  O  O242  1  0.13671516  0.24112448  0.50359855  1
  O  O243  1  0.12611126  0.24528005  0.99185148  1
  O  O244  1  0.13683977  0.74379596  0.49923275  1
  O  O245  1  0.12799392  0.74088795  0.99385137  1
  O  O246  1  0.63070428  0.24447702  0.49408078  1
  O  O247  1  0.62414056  0.23736889  1.00303071  1
  O  O248  1  0.63811181  0.75304001  0.49999851  1
  O  O249  1  0.63100491  0.74204768  0.99447162  1
  O  O250  1  0.48667033  0.24958397  0.13139674  1
  O  O251  1  0.49094320  0.24341603  0.62337297  1
  O  O252  1  0.50026982  0.75036093  0.13861184  1
  O  O253  1  0.50252522  0.74182000  0.63374098  1
  O  O254  1  0.99389958  0.24392275  0.13323253  1
  O  O255  1  0.98714657  0.24085541  0.62084212  1
  O  O256  1  0.99665869  0.74495186  0.13091840  1
  O  O257  1  0.99484071  0.74839454  0.63328238  1
  O  O258  1  -0.00419625  0.24938476  0.35959657  1
  O  O259  1  0.01269160  0.25615999  0.87858571  1
  O  O260  1  0.00085168  0.76235657  0.36950297  1
  O  O261  1  0.00664498  0.75461180  0.87043423  1
  O  O262  1  0.50263182  0.25464119  0.36954000  1
  O  O263  1  0.50334461  0.26218578  0.87294683  1
  O  O264  1  0.50243229  0.75266721  0.36313856  1
  O  O265  1  0.50504891  0.75563130  0.86855951  1
  O  O266  1  0.24298498  0.13165094  0.49391349  1
  O  O267  1  0.24060247  0.12464015  0.99158261  1
  O  O268  1  0.24703085  0.63124007  0.49598064  1
  O  O269  1  0.24409710  0.62197923  0.99047371  1
  O  O270  1  0.74477495  0.13033014  0.49436084  1
  O  O271  1  0.73864046  0.12670876  1.00042179  1
  O  O272  1  0.75191761  0.63835591  0.50011110  1
  O  O273  1  0.74436206  0.62926053  0.99567248  1
  O  O274  1  0.26279936  0.37615651  -0.00818963  1
  O  O275  1  0.25189403  0.36695951  0.50273985  1
  O  O276  1  0.24806281  0.87372451  0.01251221  1
  O  O277  1  0.25028986  0.86675738  0.50805375  1
  O  O278  1  0.75628107  0.37776459  0.00823353  1
  O  O279  1  0.75634823  0.36979224  0.50578072  1
  O  O280  1  0.74909795  0.86858886  0.00732098  1
  O  O281  1  0.76195198  0.86727511  0.50214661  1
  O  O282  1  0.12869541  0.49338267  0.24185404  1
  O  O283  1  0.13325065  0.49014751  0.74392132  1
  O  O284  1  0.13079131  0.99442770  0.24404374  1
  O  O285  1  0.13149019  0.99182512  0.74788305  1
  O  O286  1  0.63952169  0.49986889  0.25421381  1
  O  O287  1  0.63197822  0.49951106  0.73883933  1
  O  O288  1  0.62929347  0.99540210  0.24434523  1
  O  O289  1  0.63468933  1.00352286  0.74484788  1
  O  O290  1  0.36986790  0.00621222  0.25760096  1
  O  O291  1  0.36798018  0.00610024  0.75577160  1
  O  O292  1  0.37032375  0.50313255  0.25314197  1
  O  O293  1  0.35897702  0.49794982  0.74447843  1
  O  O294  1  0.86940633  0.00725190  0.25645026  1
  O  O295  1  0.86684024  0.00991823  0.75013313  1
  O  O296  1  0.86880439  0.50511287  0.25525179  1
  O  O297  1  0.87092323  0.50534289  0.75522026  1
  O  O298  1  0.12031400  0.38080136  0.35949748  1
  O  O299  1  0.12007648  0.36815555  0.86811821  1
  O  O300  1  0.11742395  0.87578729  0.37060246  1
  O  O301  1  0.12119584  0.86795814  0.86991685  1
  O  O302  1  0.61763312  0.36819997  0.37395862  1
  O  O303  1  0.61367913  0.37485195  0.87252608  1
  O  O304  1  0.62565213  0.87799377  0.36261959  1
  O  O305  1  0.61623147  0.86901310  0.87323391  1
  O  O306  1  0.37463005  0.13255844  0.13010751  1
  O  O307  1  0.37801544  0.12903932  0.62908878  1
  O  O308  1  0.37907126  0.62600107  0.13286899  1
  O  O309  1  0.38797503  0.62425413  0.62921590  1
  O  O310  1  0.87955475  0.13017554  0.13210665  1
  O  O311  1  0.88160104  0.13104630  0.62842004  1
  O  O312  1  0.88245660  0.63086788  0.13075424  1
  O  O313  1  0.87803816  0.63190135  0.63339273  1
  O  O314  1  0.26189457  0.24652851  0.12258690  1
  O  O315  1  0.25364283  0.25436404  0.61598967  1
  O  O316  1  0.24994573  0.76070965  0.12573625  1
  O  O317  1  0.25210103  0.75633448  0.61809878  1
  O  O318  1  0.75742766  0.26080239  0.12461371  1
  O  O319  1  0.75947344  0.25407851  0.61766818  1
  O  O320  1  0.75615736  0.75589321  0.12071427  1
  O  O321  1  0.75745050  0.75288405  0.61835253  1
  O  O322  1  0.25630483  0.23801465  0.38345474  1
  O  O323  1  0.23665433  0.24391267  0.87697291  1
  O  O324  1  0.24972768  0.74441713  0.38400422  1
  O  O325  1  0.24327690  0.73950163  0.87366786  1
  O  O326  1  0.74543892  0.24573796  0.37930775  1
  O  O327  1  0.74474360  0.24690900  0.88103277  1
  O  O328  1  0.75084682  0.74962299  0.38618247  1
  O  O329  1  0.74599331  0.74476500  0.88032835  1
  O  O330  1  0.00494035  0.11995689  0.00646902  1
  O  O331  1  0.01158449  0.13168121  0.50696577  1
  O  O332  1  0.00597573  0.61892863  0.00536443  1
  O  O333  1  0.00752138  0.61965124  0.50075638  1
  O  O334  1  0.50909627  0.12147350  0.00286461  1
  O  O335  1  0.50458336  0.11997310  0.50459514  1
  O  O336  1  0.50848909  0.61745442  -0.00138366  1
  O  O337  1  0.50219775  0.62424889  0.51219383  1
  O  O338  1  0.49132580  0.37541924  0.49291666  1
  O  O339  1  0.49342147  0.38176982  0.99208642  1
  O  O340  1  0.49681242  0.88242178  0.49700973  1
  O  O341  1  0.50154289  0.87568013  0.98774078  1
  O  O342  1  0.99460520  0.38033974  0.49794954  1
  O  O343  1  0.99411979  0.38084455  0.99385578  1
  O  O344  1  0.99163707  0.86872940  0.49119249  1
  O  O345  1  1.00098118  0.88129642  0.99536778  1
  O  O346  1  0.49344787  0.49348939  0.37656917  1
  O  O347  1  0.50108571  0.49051410  0.88639066  1
  O  O348  1  0.48983205  1.00204107  0.37995225  1
  O  O349  1  0.49434170  0.98947449  0.87313063  1
  O  O350  1  0.99259473  0.49847529  0.38135756  1
  O  O351  1  0.99558519  0.49423695  0.88066790  1
  O  O352  1  0.99377636  0.98771951  0.36909452  1
  O  O353  1  0.99990603  0.99325318  0.88218644  1
  O  O354  1  0.00548351  0.00539742  0.12215441  1
  O  O355  1  -0.00011236  0.01248743  0.62505570  1
  O  O356  1  0.00726439  0.50582265  0.12026799  1
  O  O357  1  0.00695362  0.50147611  0.61689410  1
  O  O358  1  0.51173502  0.00039238  0.12609311  1
  O  O359  1  0.50390305  0.00624105  0.62017579  1
  O  O360  1  0.49820474  0.49873567  0.10775371  1
  O  O361  1  0.50843919  0.50682765  0.62512708  1
  O  O362  1  0.23916432  0.38205637  0.25322930  1
  O  O363  1  0.24100002  0.38058486  0.74601558  1
  O  O364  1  0.24475476  0.87973358  0.24370889  1
  O  O365  1  0.24633527  0.87722988  0.74334395  1
  O  O366  1  0.74874632  0.38336926  0.24133417  1
  O  O367  1  0.75071883  0.38288622  0.74215934  1
  O  O368  1  0.74318712  0.88111613  0.24627602  1
  O  O369  1  0.75028263  0.88742824  0.74875066  1
  O  O370  1  0.25225988  0.12052095  0.25749105  1
  O  O371  1  0.25325576  0.11946031  0.75450533  1
  O  O372  1  0.25564742  0.61819150  0.25539490  1
  O  O373  1  0.25030112  0.61590025  0.75637570  1
  O  O374  1  0.75532479  0.12212742  0.25575522  1
  O  O375  1  0.76098884  0.11658861  0.74860581  1
  O  O376  1  0.75764179  0.61697699  0.24820430  1
  O  O377  1  0.75631790  0.62001776  0.75598870  1
  O  O378  1  0.36456946  0.11675727  0.37043035  1
  O  O379  1  0.36882720  0.12107128  0.86950636  1
  O  O380  1  0.37065476  0.61790471  0.36839141  1
  O  O381  1  0.36106913  0.62836162  0.87407932  1
  O  O382  1  0.87002415  0.12105252  0.37125124  1
  O  O383  1  0.87606708  0.12461702  0.86351447  1
  O  O384  1  0.87392794  0.61877868  0.36809572  1
  O  O385  1  0.86995382  0.61960880  0.87093519  1
  O  O386  1  0.11773218  0.38676362  0.13247211  1
  O  O387  1  0.12926717  0.37669298  0.63169395  1
  O  O388  1  0.13228728  0.88045881  0.13136392  1
  O  O389  1  0.13558615  0.87449931  0.63075885  1
  O  O390  1  0.63801761  0.36961631  0.12401096  1
  O  O391  1  0.63074049  0.38338385  0.62484723  1
  O  O392  1  0.63021141  0.88337556  0.13498903  1
  O  O393  1  0.62728950  0.88567800  0.63050315  1
  O  O394  1  0.11535330  0.26039579  0.24047127  1
  O  O395  1  0.13040808  0.26105775  0.75806489  1
  O  O396  1  0.11867843  0.75604281  0.25279570  1
  O  O397  1  0.12006016  0.75415364  0.75533620  1
  O  O398  1  0.61659317  0.25166584  0.25631290  1
  O  O399  1  0.62051767  0.25333239  0.75005586  1
  O  O400  1  0.61979231  0.76014785  0.25072191  1
  O  O401  1  0.61564956  0.74975083  0.75620874  1
  O  O402  1  0.37709186  0.24706552  0.24195982  1
  O  O403  1  0.37295137  0.24365821  0.74213170  1
  O  O404  1  0.38486614  0.74381445  0.24943264  1
  O  O405  1  0.38985814  0.74596404  0.74881796  1
  O  O406  1  0.88264403  0.24576411  0.24436228  1
  O  O407  1  0.86701485  0.24023219  0.73778455  1
  O  O408  1  0.88055922  0.74536333  0.24483683  1
  O  O409  1  0.88050796  0.74539443  0.74673801  1
  O  O410  1  0.37444045  0.49206363  0.49210745  1
  O  O411  1  0.38078154  0.48627429  1.00180859  1
  O  O412  1  0.37929400  1.00093180  0.49066129  1
  O  O413  1  0.37723322  0.99629963  0.99167284  1
  O  O414  1  0.87980148  0.49508920  0.49604716  1
  O  O415  1  0.88073652  0.49588988  0.99398830  1
  O  O416  1  0.86784413  0.98815914  0.49504127  1
  O  O417  1  0.88235493  0.99866128  0.99981330  1
  O  O418  1  0.11830473  0.00620645  0.00562682  1
  O  O419  1  0.13278702  0.01366661  0.50471910  1
  O  O420  1  0.11936045  0.50264238  0.00696094  1
  O  O421  1  0.12122407  0.50355145  0.50434931  1
  O  O422  1  0.62430954  0.00695808  0.01132193  1
  O  O423  1  0.62064945  0.00621404  0.50488420  1
  O  O424  1  0.61840815  0.51167143  -0.00524842  1
  O  O425  1  0.62523729  0.50092047  0.51318993  1
  O  O426  1  0.37803410  0.36659628  0.10783593  1
  O  O427  1  0.36760048  0.36953992  0.61806011  1
  O  O428  1  0.36283638  0.87535427  0.12668457  1
  O  O429  1  0.36367907  0.87166818  0.62477024  1
  O  O430  1  0.86809138  0.37088826  0.11901084  1
  O  O431  1  0.87148590  0.36740393  0.62053368  1
  O  O432  1  0.86862178  0.86925610  0.12580385  1
  O  O433  1  0.87679848  0.87020828  0.61692539  1
  O  O434  1  0.13642238  0.11724597  0.38175858  1
  O  O435  1  0.12648517  0.13207029  0.87736564  1
  O  O436  1  0.13345309  0.62546187  0.38162566  1
  O  O437  1  0.13261100  0.62842530  0.88001405  1
  O  O438  1  0.63027664  0.13087649  0.38004712  1
  O  O439  1  0.62509027  0.12405304  0.88761784  1
  O  O440  1  0.63043778  0.62904576  0.38150716  1
  O  O441  1  0.63206685  0.63013146  0.88282652  1
