# generated using pymatgen
data_V93Zn93O256
_symmetry_space_group_name_H-M   'P 1'
_cell_length_a   17.04505321
_cell_length_b   17.04699487
_cell_length_c   17.04587991
_cell_angle_alpha   90.03769241
_cell_angle_beta   90.02971335
_cell_angle_gamma   89.94967173
_symmetry_Int_Tables_number   1
_chemical_formula_structural   V93Zn93O256
_chemical_formula_sum   'V93 Zn93 O256'
_cell_volume   4952.96542519
_cell_formula_units_Z   1
loop_
 _symmetry_equiv_pos_site_id
 _symmetry_equiv_pos_as_xyz
  1  'x, y, z'
loop_
 _atom_site_type_symbol
 _atom_site_label
 _atom_site_symmetry_multiplicity
 _atom_site_fract_x
 _atom_site_fract_y
 _atom_site_fract_z
 _atom_site_occupancy
  V  V0  1  0.24804215  -0.00092599  0.75006636  1
  V  V1  1  -0.00090853  0.24993666  0.75019342  1
  V  V2  1  0.00103232  0.62675208  0.62736949  1
  V  V3  1  0.75004448  0.49543464  0.24736290  1
  V  V4  1  0.37308218  0.37556728  0.49895691  1
  V  V5  1  -0.00107154  0.12460231  0.62509540  1
  V  V6  1  -0.00086101  0.00019568  0.50116028  1
  V  V7  1  0.75109707  0.74873844  0.00035426  1
  V  V8  1  0.88014528  0.62843407  0.75241034  1
  V  V9  1  0.37510803  -0.00056199  0.37587943  1
  V  V10  1  0.24434581  0.37873388  0.12265387  1
  V  V11  1  0.49857182  0.25555149  0.75403816  1
  V  V12  1  0.50162590  0.62509133  0.62369766  1
  V  V13  1  0.87429000  0.87407795  0.50198138  1
  V  V14  1  -0.00002804  0.50015540  0.49808133  1
  V  V15  1  0.37689571  0.87072293  0.00628223  1
  V  V16  1  0.75043863  -0.00073450  0.25059738  1
  V  V17  1  0.24999507  0.87471882  0.62572317  1
  V  V18  1  0.62238243  0.25538896  0.87607928  1
  V  V19  1  0.24975062  0.74944660  0.49978548  1
  V  V20  1  0.87102033  0.37450087  0.00729458  1
  V  V21  1  0.12284086  0.61875876  0.00536585  1
  V  V22  1  0.37489557  0.49957103  0.37139878  1
  V  V23  1  0.12318071  0.12449668  0.50005392  1
  V  V24  1  0.62467835  0.00043211  0.62619703  1
  V  V25  1  0.37544343  0.74996284  0.62410814  1
  V  V26  1  0.87635231  0.49937042  0.87702111  1
  V  V27  1  -0.00054265  0.74740461  0.24621549  1
  V  V28  1  0.12410549  0.24912331  0.87495469  1
  V  V29  1  0.00169497  0.87160392  0.86956659  1
  V  V30  1  0.37416555  0.62908697  0.24564775  1
  V  V31  1  0.00021751  0.87428934  0.37613335  1
  V  V32  1  0.62215501  0.37654461  0.75198440  1
  V  V33  1  0.49830092  0.37545909  0.37319356  1
  V  V34  1  0.24475059  0.50017101  0.24471720  1
  V  V35  1  0.87536685  0.00062306  0.87645999  1
  V  V36  1  0.87380449  0.00006000  0.37567993  1
  V  V37  1  0.74911679  0.62533512  0.37529529  1
  V  V38  1  0.37429811  0.12633200  0.24979517  1
  V  V39  1  0.62455034  0.12588566  0.00024981  1
  V  V40  1  0.62563851  0.87533529  0.24964358  1
  V  V41  1  0.24947634  0.49902935  0.74829655  1
  V  V42  1  0.37566246  0.62480794  0.74961988  1
  V  V43  1  0.24866878  0.12405365  0.37454629  1
  V  V44  1  0.62487122  0.37529380  0.24825550  1
  V  V45  1  0.37760202  0.37587070  -0.00535148  1
  V  V46  1  0.62678137  0.62480135  -0.00108574  1
  V  V47  1  0.12095440  0.37111247  0.24821084  1
  V  V48  1  0.24919077  0.12389670  0.87451547  1
  V  V49  1  0.12776567  -0.00186598  0.12626194  1
  V  V50  1  0.74996173  0.25312716  0.00809286  1
  V  V51  1  0.62478654  0.87580635  0.75013043  1
  V  V52  1  0.62525072  0.74946363  0.37481331  1
  V  V53  1  -0.00025406  0.36853224  0.37149406  1
  V  V54  1  0.25517748  0.74982637  0.00509970  1
  V  V55  1  0.62898995  0.49532284  0.12422323  1
  V  V56  1  0.87583110  0.87482222  0.00172952  1
  V  V57  1  0.74732552  0.25081699  0.50200808  1
  V  V58  1  -0.00057948  0.13287537  0.12986880  1
  V  V59  1  0.49913433  0.25030204  0.24854942  1
  V  V60  1  0.49653842  0.62889570  0.12332510  1
  V  V61  1  0.00043426  -0.00054312  0.00138444  1
  V  V62  1  0.49780032  0.74980593  0.24726661  1
  V  V63  1  0.12493998  0.37523481  0.74958326  1
  V  V64  1  0.50025799  0.49664191  -0.00678806  1
  V  V65  1  0.75150806  0.50077218  0.75031816  1
  V  V66  1  0.87722626  0.13116204  0.25096871  1
  V  V67  1  -0.00146068  0.37475395  0.87588962  1
  V  V68  1  0.49937296  0.87505424  0.37425236  1
  V  V69  1  0.12553578  0.87510911  0.24925649  1
  V  V70  1  0.75120428  0.87485181  0.12577685  1
  V  V71  1  0.74959548  0.37546972  0.62545462  1
  V  V72  1  0.87658093  0.75042522  0.62779734  1
  V  V73  1  0.37393043  0.12626715  0.74984037  1
  V  V74  1  0.50145563  0.75101302  0.74975559  1
  V  V75  1  0.87255897  0.25094660  0.62698176  1
  V  V76  1  0.62458272  0.50186076  0.62411601  1
  V  V77  1  0.24736629  0.25032530  0.49864178  1
  V  V78  1  0.49955311  0.12548739  0.62640948  1
  V  V79  1  0.12539629  0.12473425  0.00137552  1
  V  V80  1  0.12513010  0.62464278  0.49918106  1
  V  V81  1  0.12568543  0.74919975  0.37550584  1
  V  V82  1  0.50067848  0.00011836  -0.00044528  1
  V  V83  1  0.49927643  0.12560006  0.12445991  1
  V  V84  1  0.12339658  0.75046562  0.86998390  1
  V  V85  1  0.25158603  0.62514084  0.87365752  1
  V  V86  1  0.50075278  0.87480000  0.87531431  1
  V  V87  1  0.87423525  0.12486893  0.75255920  1
  V  V88  1  0.74959248  0.00001298  0.75163104  1
  V  V89  1  0.25077505  0.25011727  -0.00008348  1
  V  V90  1  0.62316881  0.12568907  0.50081779  1
  V  V91  1  0.62395688  0.25036553  0.37572634  1
  V  V92  1  0.87484440  0.49964539  0.37419336  1
  Zn  Zn93  1  0.87598385  0.37422609  0.50044637  1
  Zn  Zn94  1  0.12310250  -0.00211537  0.62496950  1
  Zn  Zn95  1  0.00513503  0.49304644  0.00746942  1
  Zn  Zn96  1  0.62585296  0.00069286  0.12529542  1
  Zn  Zn97  1  0.25004107  -0.00120013  0.24991354  1
  Zn  Zn98  1  0.75201797  0.62548132  0.87561659  1
  Zn  Zn99  1  0.37605284  0.87414880  0.49879930  1
  Zn  Zn100  1  0.37466178  0.25114903  0.62508729  1
  Zn  Zn101  1  0.74860943  0.87345784  0.62504575  1
  Zn  Zn102  1  0.12378066  0.49781225  0.62322951  1
  Zn  Zn103  1  0.12184635  0.87083874  0.74804430  1
  Zn  Zn104  1  0.37444628  0.25091757  0.12433167  1
  Zn  Zn105  1  0.11734027  0.24539137  0.36969793  1
  Zn  Zn106  1  0.87601762  0.62420285  0.24679127  1
  Zn  Zn107  1  0.24742562  0.37452792  0.62363312  1
  Zn  Zn108  1  0.87845703  0.74700625  0.12473635  1
  Zn  Zn109  1  0.87304229  0.25517214  0.13196107  1
  Zn  Zn110  1  0.38148896  0.49648628  0.87017926  1
  Zn  Zn111  1  0.75062940  0.12577318  0.87772079  1
  Zn  Zn112  1  0.74857284  0.12561407  0.37479577  1
  Zn  Zn113  1  0.25074757  0.62458084  0.37396431  1
  Zn  Zn114  1  0.74908845  0.75085806  0.50029492  1
  Zn  Zn115  1  0.62289922  0.62569148  0.49946508  1
  Zn  Zn116  1  0.50045983  0.50147532  0.49862880  1
  Zn  Zn117  1  0.25589556  0.87124473  0.12777569  1
  Zn  Zn118  1  0.50010882  -0.00124159  0.50143591  1
  Zn  Zn119  1  0.62697112  0.74895224  0.87359507  1
  Zn  Zn120  1  0.37486142  -0.00056952  0.87597190  1
  Zn  Zn121  1  0.00151335  0.61430389  0.13004094  1
  Zn  Zn122  1  0.18942115  0.18962207  0.18709036  1
  Zn  Zn123  1  0.18609448  0.18757657  0.68454262  1
  Zn  Zn124  1  0.18723222  0.68866963  0.18696219  1
  Zn  Zn125  1  0.18804433  0.68639685  0.68651792  1
  Zn  Zn126  1  0.68720703  0.18555118  0.18844752  1
  Zn  Zn127  1  0.68654083  0.18625142  0.68956961  1
  Zn  Zn128  1  0.68616237  0.68584673  0.18673035  1
  Zn  Zn129  1  0.69024991  0.68749987  0.68783107  1
  Zn  Zn130  1  0.30984560  0.31132991  0.31172754  1
  Zn  Zn131  1  0.31156448  0.31238776  0.81331030  1
  Zn  Zn132  1  0.31118642  0.81243937  0.31164571  1
  Zn  Zn133  1  0.31432081  0.81219148  0.81571172  1
  Zn  Zn134  1  0.81052253  0.31385809  0.31585354  1
  Zn  Zn135  1  0.80916163  0.31318344  0.81651427  1
  Zn  Zn136  1  0.81419298  0.81224492  0.31284600  1
  Zn  Zn137  1  0.81312125  0.81352657  0.81325583  1
  Zn  Zn138  1  0.18570593  0.43875085  0.43218978  1
  Zn  Zn139  1  0.19047708  0.43712399  0.93301282  1
  Zn  Zn140  1  0.18693633  0.93760641  0.43834710  1
  Zn  Zn141  1  0.18895914  0.93568489  0.93839182  1
  Zn  Zn142  1  0.68628029  0.43776380  0.43838665  1
  Zn  Zn143  1  0.69032748  0.43719994  0.93647208  1
  Zn  Zn144  1  0.68786972  0.93748392  0.43904868  1
  Zn  Zn145  1  0.68722808  0.93733525  0.93732079  1
  Zn  Zn146  1  0.31526910  0.06034151  0.06166207  1
  Zn  Zn147  1  0.31304633  0.06311950  0.56294785  1
  Zn  Zn148  1  0.31259068  0.56120025  0.06054595  1
  Zn  Zn149  1  0.31248783  0.56275951  0.56248752  1
  Zn  Zn150  1  0.81156799  0.06390385  0.06431182  1
  Zn  Zn151  1  0.80963121  0.06312754  0.56396650  1
  Zn  Zn152  1  0.81757914  0.56356463  0.06473930  1
  Zn  Zn153  1  0.81344517  0.56187142  0.56114237  1
  Zn  Zn154  1  0.43550291  0.43896297  0.18197825  1
  Zn  Zn155  1  0.43676976  0.43776428  0.68410066  1
  Zn  Zn156  1  0.43929635  0.94068082  0.18777601  1
  Zn  Zn157  1  0.43646989  0.93865301  0.68855434  1
  Zn  Zn158  1  0.94070036  0.44126460  0.18582572  1
  Zn  Zn159  1  0.93737481  0.43903946  0.68772293  1
  Zn  Zn160  1  0.93793415  0.93867280  0.18818558  1
  Zn  Zn161  1  0.93565482  0.93856689  0.68830460  1
  Zn  Zn162  1  0.06053138  0.06163707  0.31254508  1
  Zn  Zn163  1  0.06235241  0.06051109  0.81255675  1
  Zn  Zn164  1  0.06382992  0.56012790  0.31345012  1
  Zn  Zn165  1  0.06314517  0.56091401  0.81677670  1
  Zn  Zn166  1  0.56210097  0.06282751  0.31262229  1
  Zn  Zn167  1  0.56235427  0.06490197  0.81463738  1
  Zn  Zn168  1  0.56200211  0.56237105  0.31202186  1
  Zn  Zn169  1  0.56550700  0.56572533  0.81209445  1
  Zn  Zn170  1  0.43705129  0.18764380  0.43740660  1
  Zn  Zn171  1  0.43623783  0.18772823  0.93640149  1
  Zn  Zn172  1  0.43691269  0.68713121  0.43606752  1
  Zn  Zn173  1  0.43813796  0.68728609  0.93527196  1
  Zn  Zn174  1  0.93325422  0.18713691  0.43947922  1
  Zn  Zn175  1  0.93755817  0.18801438  0.94046692  1
  Zn  Zn176  1  0.93617831  0.68703147  0.43707970  1
  Zn  Zn177  1  0.93938870  0.68929170  0.93772892  1
  Zn  Zn178  1  0.06224525  0.31386352  0.06202829  1
  Zn  Zn179  1  0.06172154  0.31324902  0.56170264  1
  Zn  Zn180  1  0.06613032  0.81003725  0.05933666  1
  Zn  Zn181  1  0.06208273  0.81077847  0.56336309  1
  Zn  Zn182  1  0.56141800  0.31278217  0.06272396  1
  Zn  Zn183  1  0.56043759  0.31354839  0.56476181  1
  Zn  Zn184  1  0.56538234  0.81270729  0.06247382  1
  Zn  Zn185  1  0.56300477  0.81331046  0.56016649  1
  O  O186  1  0.11890958  0.11844466  0.12246540  1
  O  O187  1  0.11624035  0.12328041  0.61805839  1
  O  O188  1  0.12725730  0.62956414  0.10729858  1
  O  O189  1  0.11492989  0.62561077  0.61996446  1
  O  O190  1  0.61710920  0.12427505  0.11810940  1
  O  O191  1  0.61879540  0.12013294  0.62147679  1
  O  O192  1  0.61658203  0.61465918  0.11976724  1
  O  O193  1  0.61981372  0.61962182  0.62468998  1
  O  O194  1  0.37821119  0.37927403  0.38027758  1
  O  O195  1  0.36805902  0.37788097  0.89030933  1
  O  O196  1  0.37954967  0.88409179  0.37338648  1
  O  O197  1  0.38271418  0.87651942  0.88543301  1
  O  O198  1  0.88318041  0.38129436  0.37573395  1
  O  O199  1  0.88004297  0.37954145  0.88214260  1
  O  O200  1  0.88116662  0.87990723  0.38163111  1
  O  O201  1  0.88374820  0.87986967  0.88097368  1
  O  O202  1  0.25830675  0.00517048  0.37421433  1
  O  O203  1  0.24943745  0.00515255  0.86611861  1
  O  O204  1  0.25691782  0.50118523  0.36186576  1
  O  O205  1  0.25258324  0.50578213  0.86165214  1
  O  O206  1  0.75695376  0.00147979  0.36902755  1
  O  O207  1  0.75785268  0.00154202  0.87037279  1
  O  O208  1  0.75267024  0.50648034  0.36721794  1
  O  O209  1  0.75816337  0.50188653  0.86773833  1
  O  O210  1  0.25509662  0.49013367  0.13350001  1
  O  O211  1  0.24747127  0.49970650  0.63749288  1
  O  O212  1  0.23710569  0.99968957  0.12560157  1
  O  O213  1  0.24915236  0.99169348  0.63200568  1
  O  O214  1  0.73862031  0.50841336  0.13535035  1
  O  O215  1  0.74584897  0.49575147  0.63077736  1
  O  O216  1  0.74884334  0.99255474  0.13200461  1
  O  O217  1  0.74307041  0.99872066  0.63390358  1
  O  O218  1  0.01011605  0.38193696  0.25942856  1
  O  O219  1  0.00429685  0.36955792  0.75601705  1
  O  O220  1  0.00580155  0.86802008  0.25623745  1
  O  O221  1  0.00246711  0.88264346  0.76539518  1
  O  O222  1  0.50372765  0.37077259  0.25292542  1
  O  O223  1  0.50468838  0.36364587  0.74393031  1
  O  O224  1  0.50452713  0.86929065  0.25383372  1
  O  O225  1  0.50418444  0.87036268  0.75500076  1
  O  O226  1  0.49463628  0.13100807  0.24495468  1
  O  O227  1  0.49428832  0.13431165  0.74630164  1
  O  O228  1  0.49300290  0.62787714  0.24176113  1
  O  O229  1  0.49540812  0.63089666  0.74414917  1
  O  O230  1  0.98912015  0.11901275  0.24183478  1
  O  O231  1  0.99491967  0.13016516  0.74561062  1
  O  O232  1  1.00242163  0.63593693  0.25152201  1
  O  O233  1  0.99019095  0.61707607  0.74089743  1
  O  O234  1  0.36919291  0.25860034  0.00014825  1
  O  O235  1  0.36534997  0.25917818  0.49792755  1
  O  O236  1  0.36683801  0.75804502  -0.00610046  1
  O  O237  1  0.36778830  0.75104616  0.50601007  1
  O  O238  1  0.86556302  0.25656304  -0.00016335  1
  O  O239  1  0.86595905  0.25087015  0.50938887  1
  O  O240  1  0.86741714  0.75596237  0.00140374  1
  O  O241  1  0.87458414  0.75520768  0.50938442  1
  O  O242  1  0.13277850  0.24395479  0.49758912  1
  O  O243  1  0.13075761  0.24412647  0.99432381  1
  O  O244  1  0.12966249  0.74445770  0.49497867  1
  O  O245  1  0.13477464  0.74178502  0.98912996  1
  O  O246  1  0.62774889  0.24623121  0.49585698  1
  O  O247  1  0.62957467  0.24874512  0.99385640  1
  O  O248  1  0.62863896  0.74749571  0.49065779  1
  O  O249  1  0.63531855  0.74388111  0.99960093  1
  O  O250  1  0.49781847  0.24398287  0.13132400  1
  O  O251  1  0.49931182  0.24378785  0.63693295  1
  O  O252  1  0.50783368  0.73536374  0.13003742  1
  O  O253  1  0.49474936  0.74589886  0.63032090  1
  O  O254  1  0.99894831  0.23559445  0.12081633  1
  O  O255  1  0.99314725  0.24496501  0.63096001  1
  O  O256  1  1.00407291  0.74935381  0.13703364  1
  O  O257  1  0.98999059  0.73751244  0.62108614  1
  O  O258  1  -0.00201395  0.26402771  0.38157446  1
  O  O259  1  0.00522235  0.25374039  0.86936870  1
  O  O260  1  0.00581713  0.75524488  0.36812841  1
  O  O261  1  0.01041704  0.76147267  0.88186852  1
  O  O262  1  0.50439819  0.25590588  0.36812518  1
  O  O263  1  0.50941938  0.24573254  0.86478272  1
  O  O264  1  0.50449369  0.75473657  0.36686022  1
  O  O265  1  0.50247076  0.75615707  0.86708314  1
  O  O266  1  0.24452558  0.13185786  0.49519932  1
  O  O267  1  0.24506775  0.12945541  0.99524025  1
  O  O268  1  0.24373390  0.63148163  0.49926602  1
  O  O269  1  0.24476228  0.63076105  0.99437301  1
  O  O270  1  0.74137511  0.13275086  0.49971271  1
  O  O271  1  0.74382655  0.13402555  0.99899199  1
  O  O272  1  0.74902187  0.62490980  0.48546147  1
  O  O273  1  0.74626741  0.63363131  1.00111049  1
  O  O274  1  0.25456410  0.37204753  0.00593259  1
  O  O275  1  0.25586376  0.36757599  0.49654710  1
  O  O276  1  0.25957543  0.86730835  0.00001513  1
  O  O277  1  0.25057845  0.86930621  0.51040621  1
  O  O278  1  0.76009981  0.36546826  -0.00514532  1
  O  O279  1  0.75059073  0.36873109  0.50767329  1
  O  O280  1  0.75504332  0.86780508  0.00526661  1
  O  O281  1  0.75915722  0.87295881  0.50392010  1
  O  O282  1  0.13810406  0.48977993  0.25509367  1
  O  O283  1  0.13368043  0.49471149  0.75022477  1
  O  O284  1  0.12479277  0.99395198  0.24165655  1
  O  O285  1  0.13718580  0.99786594  0.74771517  1
  O  O286  1  0.63006552  0.49585172  0.24258662  1
  O  O287  1  0.63074407  0.49607901  0.74502891  1
  O  O288  1  0.63167177  0.99327124  0.25008338  1
  O  O289  1  0.62949548  0.99611791  0.74623077  1
  O  O290  1  0.37329102  0.00636651  0.25982614  1
  O  O291  1  0.36301126  0.00608379  0.75186376  1
  O  O292  1  0.36729883  0.50727790  0.25222707  1
  O  O293  1  0.36757633  0.50448600  0.75017073  1
  O  O294  1  0.87020445  0.00717096  0.25637718  1
  O  O295  1  0.86992277  0.00554520  0.75666119  1
  O  O296  1  0.86409329  0.49934652  0.25502409  1
  O  O297  1  0.87089405  0.50796793  0.75592104  1
  O  O298  1  0.11613305  0.37278481  0.36650756  1
  O  O299  1  0.11971795  0.36810961  0.87008149  1
  O  O300  1  0.11943789  0.86975743  0.37002175  1
  O  O301  1  0.11825282  0.86769552  0.87629786  1
  O  O302  1  0.61757549  0.37053429  0.36870757  1
  O  O303  1  0.62902551  0.36364480  0.86876321  1
  O  O304  1  0.61973798  0.86988934  0.36861738  1
  O  O305  1  0.61814836  0.87297168  0.86824955  1
  O  O306  1  0.38071436  0.12638614  0.13123371  1
  O  O307  1  0.38063292  0.12763775  0.63197743  1
  O  O308  1  0.38584907  0.61707357  0.13370506  1
  O  O309  1  0.38049912  0.63057401  0.63058567  1
  O  O310  1  0.88378662  0.12486410  0.13355630  1
  O  O311  1  0.87958187  0.13085039  0.63246784  1
  O  O312  1  0.88200059  0.63025050  0.12988703  1
  O  O313  1  0.88215101  0.63043851  0.63153555  1
  O  O314  1  0.25220031  0.25981883  0.11720233  1
  O  O315  1  0.25199830  0.25111539  0.61124364  1
  O  O316  1  0.24497945  0.75194895  0.10911860  1
  O  O317  1  0.25528878  0.75693228  0.62126116  1
  O  O318  1  0.74977874  0.24731551  0.11187397  1
  O  O319  1  0.75269981  0.25590233  0.62245705  1
  O  O320  1  0.75048359  0.75528152  0.11573833  1
  O  O321  1  0.76397328  0.74978299  0.62215644  1
  O  O322  1  0.24814703  0.24344935  0.38543141  1
  O  O323  1  0.24285930  0.24385619  0.87986006  1
  O  O324  1  0.24335551  0.74852237  0.38135695  1
  O  O325  1  0.24418074  0.74512982  0.88378027  1
  O  O326  1  0.74095497  0.24977614  0.38320793  1
  O  O327  1  0.73929916  0.24743435  0.88417068  1
  O  O328  1  0.74487703  0.74013995  0.37245251  1
  O  O329  1  0.75070246  0.74956740  0.88892310  1
  O  O330  1  0.00582579  0.11926083  0.00853542  1
  O  O331  1  0.00291698  0.12000197  0.50539757  1
  O  O332  1  0.01721898  0.62665480  -0.00259088  1
  O  O333  1  0.00461335  0.62017364  0.50714336  1
  O  O334  1  0.50407848  0.12103051  0.00430510  1
  O  O335  1  0.50555384  0.12554341  0.50790562  1
  O  O336  1  0.50414022  0.61844776  0.00664087  1
  O  O337  1  0.50038483  0.62255857  0.50790177  1
  O  O338  1  0.48812747  0.37428780  0.49311884  1
  O  O339  1  0.48949091  0.38584621  1.00877993  1
  O  O340  1  0.49630113  0.87781461  0.49024577  1
  O  O341  1  0.49522850  0.87801834  0.99622312  1
  O  O342  1  0.99937404  0.38246763  0.49097781  1
  O  O343  1  0.99088482  0.37146648  0.99209247  1
  O  O344  1  0.99496516  0.87998542  0.49585807  1
  O  O345  1  0.99589696  0.88021044  0.99292045  1
  O  O346  1  0.49279968  0.49308224  0.37445537  1
  O  O347  1  0.50189035  0.50510406  0.88938231  1
  O  O348  1  0.48998348  0.99469747  0.37461472  1
  O  O349  1  0.49876599  0.99342134  0.88143134  1
  O  O350  1  0.99432846  0.49241780  0.37899641  1
  O  O351  1  0.99372241  0.49239273  0.88062293  1
  O  O352  1  0.99376113  0.99348069  0.38139352  1
  O  O353  1  0.99651503  0.99289103  0.88266063  1
  O  O354  1  0.00958770  0.00773871  0.12081785  1
  O  O355  1  0.00011028  0.00629730  0.61955903  1
  O  O356  1  0.00464086  0.50198788  0.11938156  1
  O  O357  1  -0.00073079  0.51095154  0.61820840  1
  O  O358  1  0.50283995  0.00795020  0.11792636  1
  O  O359  1  0.50560844  0.00750551  0.62554635  1
  O  O360  1  0.50854355  0.50956128  0.11650752  1
  O  O361  1  0.50660531  0.50737271  0.62420662  1
  O  O362  1  0.24510072  0.38161794  0.24174690  1
  O  O363  1  0.24481004  0.38276505  0.74931288  1
  O  O364  1  0.24214342  0.87651544  0.24502082  1
  O  O365  1  0.25137133  0.88257841  0.74293524  1
  O  O366  1  0.74203004  0.38828402  0.25649865  1
  O  O367  1  0.74337891  0.38085140  0.74495371  1
  O  O368  1  0.74595391  0.87924486  0.24570456  1
  O  O369  1  0.74376012  0.88179900  0.74929977  1
  O  O370  1  0.25581953  0.12410724  0.25681252  1
  O  O371  1  0.25274280  0.11831949  0.75338940  1
  O  O372  1  0.25739274  0.61738457  0.24616201  1
  O  O373  1  0.25563626  0.61758841  0.75285266  1
  O  O374  1  0.75831426  0.11722935  0.25086769  1
  O  O375  1  0.75657899  0.11891140  0.75380196  1
  O  O376  1  0.74830862  0.61466709  0.25962325  1
  O  O377  1  0.76307523  0.61915224  0.75113784  1
  O  O378  1  0.37028678  0.11729051  0.37025908  1
  O  O379  1  0.36638274  0.12380692  0.86810251  1
  O  O380  1  0.37436744  0.61841501  0.36201964  1
  O  O381  1  0.36931321  0.62261378  0.86681850  1
  O  O382  1  0.87380608  0.11876685  0.36711783  1
  O  O383  1  0.87664688  0.11793450  0.87011817  1
  O  O384  1  0.86608880  0.61887700  0.37104909  1
  O  O385  1  0.87775678  0.62015255  0.86692304  1
  O  O386  1  0.13630061  0.37075286  0.13080591  1
  O  O387  1  0.12605826  0.37757524  0.63338253  1
  O  O388  1  0.12473803  0.88540791  0.12863281  1
  O  O389  1  0.13576021  0.87370353  0.62870033  1
  O  O390  1  0.61883968  0.38881120  0.13066471  1
  O  O391  1  0.62983310  0.38127002  0.63203495  1
  O  O392  1  0.63219315  0.87663989  0.13264108  1
  O  O393  1  0.62526832  0.88193109  0.63220137  1
  O  O394  1  0.13176439  0.26554996  0.25298130  1
  O  O395  1  0.11923285  0.25407561  0.75547945  1
  O  O396  1  0.11918899  0.75498493  0.25542448  1
  O  O397  1  0.13283694  0.75055111  0.76566864  1
  O  O398  1  0.61992611  0.25573752  0.25482526  1
  O  O399  1  0.61806292  0.25481286  0.75756858  1
  O  O400  1  0.61852089  0.75522483  0.25507762  1
  O  O401  1  0.61984927  0.75685197  0.75000900  1
  O  O402  1  0.38108978  0.24414920  0.24926556  1
  O  O403  1  0.38271154  0.24640235  0.75008038  1
  O  O404  1  0.37972092  0.73685165  0.25365203  1
  O  O405  1  0.38036719  0.74473231  0.74406547  1
  O  O406  1  0.86513723  0.23627344  0.24934060  1
  O  O407  1  0.87936724  0.24528969  0.74710396  1
  O  O408  1  0.88850521  0.74989388  0.24986105  1
  O  O409  1  0.87136584  0.73903517  0.74229790  1
  O  O410  1  0.37236930  0.49017432  0.49167704  1
  O  O411  1  0.38363688  0.49384221  0.99794587  1
  O  O412  1  0.37614218  0.99922886  0.48717929  1
  O  O413  1  0.38164923  0.99061651  0.99661228  1
  O  O414  1  0.88153585  0.49790769  0.49225318  1
  O  O415  1  0.87266730  0.48963462  0.99391147  1
  O  O416  1  0.87989255  0.99558665  0.49635670  1
  O  O417  1  0.88036807  0.99495077  0.99604737  1
  O  O418  1  0.12113442  0.00508844  0.00780832  1
  O  O419  1  0.11706569  0.00616384  0.50171790  1
  O  O420  1  0.12951507  0.51646371  -0.00902488  1
  O  O421  1  0.11932192  0.50697985  0.50034874  1
  O  O422  1  0.61892975  0.00738455  0.00097809  1
  O  O423  1  0.62316656  0.00730334  0.50706308  1
  O  O424  1  0.62061437  0.50252744  0.00645029  1
  O  O425  1  0.62173198  0.50235501  0.50849433  1
  O  O426  1  0.36358879  0.37406447  0.11437825  1
  O  O427  1  0.37118735  0.37350985  0.61090832  1
  O  O428  1  0.37566099  0.87976340  0.11101007  1
  O  O429  1  0.36530366  0.86949176  0.62402474  1
  O  O430  1  0.88213027  0.37109502  0.11154114  1
  O  O431  1  0.86801074  0.36868390  0.62573724  1
  O  O432  1  0.87003298  0.87305739  0.11901017  1
  O  O433  1  0.87693329  0.86470791  0.62227289  1
  O  O434  1  0.12883440  0.12589767  0.38098746  1
  O  O435  1  0.12903946  0.12948981  0.88142605  1
  O  O436  1  0.12752690  0.63135486  0.38161970  1
  O  O437  1  0.13121829  0.63305100  0.88129352  1
  O  O438  1  0.62447561  0.13299024  0.38153190  1
  O  O439  1  0.62586724  0.13752864  0.88192256  1
  O  O440  1  0.63259703  0.63008035  0.37385330  1
  O  O441  1  0.63076801  0.62818562  0.88324703  1
