# generated using pymatgen
data_V93Zn93O256
_symmetry_space_group_name_H-M   'P 1'
_cell_length_a   17.05320830
_cell_length_b   17.05224540
_cell_length_c   17.05158929
_cell_angle_alpha   89.92407119
_cell_angle_beta   89.99329137
_cell_angle_gamma   90.02346095
_symmetry_Int_Tables_number   1
_chemical_formula_structural   V93Zn93O256
_chemical_formula_sum   'V93 Zn93 O256'
_cell_volume   4958.52050772
_cell_formula_units_Z   1
loop_
 _symmetry_equiv_pos_site_id
 _symmetry_equiv_pos_as_xyz
  1  'x, y, z'
loop_
 _atom_site_type_symbol
 _atom_site_label
 _atom_site_symmetry_multiplicity
 _atom_site_fract_x
 _atom_site_fract_y
 _atom_site_fract_z
 _atom_site_occupancy
  V  V0  1  -0.00447469  0.24958297  0.75157630  1
  V  V1  1  0.00069624  -0.00053837  0.00017342  1
  V  V2  1  0.75085519  0.87108344  0.12230932  1
  V  V3  1  0.62471442  0.62377166  0.50028771  1
  V  V4  1  0.12569718  0.62632892  0.00015653  1
  V  V5  1  0.12463396  0.00153135  0.61939561  1
  V  V6  1  0.50052202  0.75144667  0.24791930  1
  V  V7  1  0.49833050  -0.00085859  0.49838341  1
  V  V8  1  0.50011570  0.62467194  0.62403573  1
  V  V9  1  0.00659317  0.25034999  0.25856165  1
  V  V10  1  0.37518327  0.50148805  0.87664255  1
  V  V11  1  0.49787601  0.37628941  0.87457938  1
  V  V12  1  -0.00205053  0.13038871  0.62320972  1
  V  V13  1  0.24924619  0.74967896  0.49927478  1
  V  V14  1  0.87151295  0.49892269  0.87872562  1
  V  V15  1  0.62619840  0.37642204  0.25403712  1
  V  V16  1  0.25034612  0.75261933  -0.00179873  1
  V  V17  1  0.24900540  0.36988764  0.62359038  1
  V  V18  1  0.62296131  0.12294377  0.50401437  1
  V  V19  1  0.37631783  0.87944827  -0.00499582  1
  V  V20  1  0.74732002  0.49866772  0.75391442  1
  V  V21  1  0.62749556  0.74585676  0.88703802  1
  V  V22  1  0.12292759  0.37653192  0.75160354  1
  V  V23  1  0.25132317  0.00086405  0.25138454  1
  V  V24  1  0.12078696  0.25035171  0.87746250  1
  V  V25  1  -0.00002651  0.87442653  0.37378697  1
  V  V26  1  0.37088777  0.36952731  0.50166729  1
  V  V27  1  -0.00150278  0.75147481  0.75020515  1
  V  V28  1  0.00138645  0.74896837  0.24983376  1
  V  V29  1  0.74471623  0.62418542  0.89020236  1
  V  V30  1  0.50071445  0.25017680  0.24952693  1
  V  V31  1  0.37440100  0.37716392  -0.00042011  1
  V  V32  1  0.25071356  0.62650234  0.87473765  1
  V  V33  1  0.24892300  0.87563862  0.62194187  1
  V  V34  1  0.00035203  0.49952433  0.50193655  1
  V  V35  1  0.87554299  -0.00320412  0.87030046  1
  V  V36  1  0.62504777  0.24930243  0.37633866  1
  V  V37  1  0.62670579  0.87586852  0.24812235  1
  V  V38  1  0.50008794  0.37468246  0.37767382  1
  V  V39  1  0.12599988  0.37324676  0.25726748  1
  V  V40  1  0.12676143  0.50028278  0.12629169  1
  V  V41  1  -0.00139677  0.37310278  0.87655292  1
  V  V42  1  0.75233828  0.36937600  0.62856110  1
  V  V43  1  0.50549736  0.12700612  0.12068859  1
  V  V44  1  0.25032407  0.87771900  0.12326849  1
  V  V45  1  0.75043773  0.49811488  0.25240103  1
  V  V46  1  0.62331533  0.37206150  0.75223480  1
  V  V47  1  0.12705772  0.74922803  0.37570550  1
  V  V48  1  0.25198350  0.50266829  0.25026044  1
  V  V49  1  -0.00134941  0.62308005  0.62622334  1
  V  V50  1  0.00049561  0.62495945  0.12579483  1
  V  V51  1  0.74813028  -0.00359532  0.74591243  1
  V  V52  1  0.87093945  0.86918815  -0.00087228  1
  V  V53  1  0.87558423  -0.00205345  0.37408045  1
  V  V54  1  0.00079692  0.12390536  0.12582678  1
  V  V55  1  0.49643623  0.24864114  0.74790066  1
  V  V56  1  0.62503460  0.74955863  0.37376393  1
  V  V57  1  0.50559435  0.00506288  -0.00416415  1
  V  V58  1  0.87410850  0.87291558  0.50025040  1
  V  V59  1  0.24939674  0.25017123  0.00016198  1
  V  V60  1  0.75036089  0.12383101  0.37598791  1
  V  V61  1  0.50357893  0.75210105  0.74936265  1
  V  V62  1  0.00139113  0.50049990  0.00123223  1
  V  V63  1  0.87474910  0.36859155  0.50545588  1
  V  V64  1  0.37645194  0.25160032  0.12363964  1
  V  V65  1  0.87574140  0.37361527  0.00547915  1
  V  V66  1  0.87734390  0.12532397  0.25275288  1
  V  V67  1  0.62574623  0.50296538  0.12072717  1
  V  V68  1  0.12447376  0.75043350  0.87243698  1
  V  V69  1  0.87505332  0.25247749  0.12912949  1
  V  V70  1  0.24632338  0.14047025  0.37564221  1
  V  V71  1  0.24866787  0.50049900  0.75055898  1
  V  V72  1  0.87350491  0.12782148  0.74418897  1
  V  V73  1  0.87609733  0.62357771  0.25101897  1
  V  V74  1  0.50020312  0.87688507  0.37262795  1
  V  V75  1  0.75147981  0.24804189  0.50438456  1
  V  V76  1  0.37354326  0.75063370  0.62319079  1
  V  V77  1  0.37711235  0.75107965  0.12367488  1
  V  V78  1  0.87204570  0.62359610  0.75323884  1
  V  V79  1  0.87605404  0.49817969  0.37725320  1
  V  V80  1  0.50042365  0.50041680  0.50055282  1
  V  V81  1  0.37553655  0.50144774  0.37444892  1
  V  V82  1  0.75025504  0.62366704  0.37601693  1
  V  V83  1  0.37472406  0.62607284  0.74994875  1
  V  V84  1  0.75110212  0.00003740  0.24854953  1
  V  V85  1  0.25003283  0.00176703  0.74790229  1
  V  V86  1  0.62674034  0.00258293  0.12061074  1
  V  V87  1  0.12710624  0.14028147  0.49554022  1
  V  V88  1  0.12591610  0.87504118  0.24776538  1
  V  V89  1  0.50455608  0.62571872  0.11943298  1
  V  V90  1  0.24893410  0.12530170  0.87398685  1
  V  V91  1  0.87223379  0.74903768  0.12294287  1
  V  V92  1  0.75090477  0.74814430  0.50044460  1
  Zn  Zn93  1  0.62600045  0.87306489  0.74751348  1
  Zn  Zn94  1  0.62010118  0.23774096  0.89008325  1
  Zn  Zn95  1  0.12675090  0.00155434  0.12238457  1
  Zn  Zn96  1  0.87263941  0.74951180  0.62677034  1
  Zn  Zn97  1  0.37610952  0.62733122  0.25012890  1
  Zn  Zn98  1  0.74151721  0.12295130  0.88103167  1
  Zn  Zn99  1  0.00117237  0.87318076  0.87534611  1
  Zn  Zn100  1  0.50420415  0.87766324  0.87257925  1
  Zn  Zn101  1  0.74656563  0.87099080  0.62465986  1
  Zn  Zn102  1  0.12658582  0.62376697  0.49921527  1
  Zn  Zn103  1  0.37413542  0.87540423  0.49578162  1
  Zn  Zn104  1  0.12600351  0.49987428  0.62544340  1
  Zn  Zn105  1  0.74181420  0.23907793  0.00148967  1
  Zn  Zn106  1  0.37378673  0.12676594  0.74454968  1
  Zn  Zn107  1  0.37740906  0.00226391  0.87048588  1
  Zn  Zn108  1  0.37067511  0.24709819  0.62102888  1
  Zn  Zn109  1  0.50413315  0.50407015  -0.00207470  1
  Zn  Zn110  1  0.12253389  0.12605033  0.00012475  1
  Zn  Zn111  1  0.62474478  0.49969455  0.62599927  1
  Zn  Zn112  1  0.00534538  0.36962197  0.38181520  1
  Zn  Zn113  1  0.00008483  0.00209000  0.49734590  1
  Zn  Zn114  1  0.25175501  0.62645568  0.37712324  1
  Zn  Zn115  1  0.12267428  0.87599454  0.74829299  1
  Zn  Zn116  1  0.37409484  0.00096536  0.37304077  1
  Zn  Zn117  1  0.37487482  0.12688890  0.25072058  1
  Zn  Zn118  1  0.62236355  -0.00473957  0.62686989  1
  Zn  Zn119  1  0.49397621  0.12385754  0.62530806  1
  Zn  Zn120  1  0.74667840  0.37301774  0.12787246  1
  Zn  Zn121  1  0.25036456  0.37406626  0.12503622  1
  Zn  Zn122  1  0.18677683  0.18675412  0.18557273  1
  Zn  Zn123  1  0.18249021  0.18872686  0.68843681  1
  Zn  Zn124  1  0.18950974  0.68886816  0.18648316  1
  Zn  Zn125  1  0.18514104  0.68697870  0.68538969  1
  Zn  Zn126  1  0.68760868  0.18750572  0.18793741  1
  Zn  Zn127  1  0.68572769  0.18671597  0.69214486  1
  Zn  Zn128  1  0.68840104  0.68636527  0.18630139  1
  Zn  Zn129  1  0.68824232  0.68544832  0.68848876  1
  Zn  Zn130  1  0.31586902  0.31719050  0.30953376  1
  Zn  Zn131  1  0.31119601  0.31316623  0.81210142  1
  Zn  Zn132  1  0.31412050  0.81433874  0.31235660  1
  Zn  Zn133  1  0.31202992  0.81491241  0.80899551  1
  Zn  Zn134  1  0.81415696  0.31227181  0.31749899  1
  Zn  Zn135  1  0.81050983  0.30818081  0.81747718  1
  Zn  Zn136  1  0.81222100  0.81061255  0.31069477  1
  Zn  Zn137  1  0.80964046  0.81006908  0.81450229  1
  Zn  Zn138  1  0.18916380  0.43799791  0.43779296  1
  Zn  Zn139  1  0.18835054  0.43749986  0.93789179  1
  Zn  Zn140  1  0.18722837  0.93915664  0.43572583  1
  Zn  Zn141  1  0.18489424  0.93722057  0.93329322  1
  Zn  Zn142  1  0.68831836  0.43702008  0.44021778  1
  Zn  Zn143  1  0.68445783  0.42041063  0.94337237  1
  Zn  Zn144  1  0.68710466  0.93682688  0.43678609  1
  Zn  Zn145  1  0.68742636  0.93401736  0.93269769  1
  Zn  Zn146  1  0.31646040  0.06533270  0.06228947  1
  Zn  Zn147  1  0.31270913  0.06664857  0.55783344  1
  Zn  Zn148  1  0.31485448  0.56476521  0.06414300  1
  Zn  Zn149  1  0.31246913  0.56062100  0.56250218  1
  Zn  Zn150  1  0.81467098  0.05928308  0.06399913  1
  Zn  Zn151  1  0.81176777  0.05844205  0.56282198  1
  Zn  Zn152  1  0.81275459  0.55900856  0.06728428  1
  Zn  Zn153  1  0.81207716  0.55885874  0.56601197  1
  Zn  Zn154  1  0.43930015  0.43771249  0.18693742  1
  Zn  Zn155  1  0.43530196  0.43833214  0.68682621  1
  Zn  Zn156  1  0.43721867  0.94017288  0.18463175  1
  Zn  Zn157  1  0.43594516  0.93722009  0.68272552  1
  Zn  Zn158  1  0.94176585  0.43700730  0.19101845  1
  Zn  Zn159  1  0.93394421  0.43755119  0.68958833  1
  Zn  Zn160  1  0.93779904  0.93613420  0.18612028  1
  Zn  Zn161  1  0.93742533  0.93814618  0.68297327  1
  Zn  Zn162  1  0.06634943  0.06180390  0.31325920  1
  Zn  Zn163  1  0.06179847  0.06320154  0.81137794  1
  Zn  Zn164  1  0.06457160  0.56173421  0.31554242  1
  Zn  Zn165  1  0.06125554  0.56197469  0.81461346  1
  Zn  Zn166  1  0.56353002  0.06320603  0.31031276  1
  Zn  Zn167  1  0.56526872  0.06638057  0.81413284  1
  Zn  Zn168  1  0.56124290  0.56383504  0.31000395  1
  Zn  Zn169  1  0.56364010  0.56288699  0.81265642  1
  Zn  Zn170  1  0.43463994  0.18535579  0.43489907  1
  Zn  Zn171  1  0.43536477  0.18860835  0.93438303  1
  Zn  Zn172  1  0.43627915  0.68801015  0.43646570  1
  Zn  Zn173  1  0.43962654  0.68911994  0.93735392  1
  Zn  Zn174  1  0.93776468  0.18661790  0.43982050  1
  Zn  Zn175  1  0.90851229  0.17221677  0.94884874  1
  Zn  Zn176  1  0.93838546  0.68716267  0.43711237  1
  Zn  Zn177  1  0.93640356  0.68574357  0.93653132  1
  Zn  Zn178  1  0.06354949  0.31225479  0.06761750  1
  Zn  Zn179  1  0.06267295  0.31384361  0.56759600  1
  Zn  Zn180  1  0.06142836  0.81293090  0.06259861  1
  Zn  Zn181  1  0.06182925  0.81220953  0.56130085  1
  Zn  Zn182  1  0.56087450  0.31834558  0.06428005  1
  Zn  Zn183  1  0.56236356  0.31207922  0.56562088  1
  Zn  Zn184  1  0.56170075  0.81745804  0.06290702  1
  Zn  Zn185  1  0.56398465  0.81389146  0.56228412  1
  O  O186  1  0.11606996  0.12204468  0.12003303  1
  O  O187  1  0.11937579  0.11970911  0.61638780  1
  O  O188  1  0.12013534  0.62137331  0.11920533  1
  O  O189  1  0.11026881  0.62090718  0.62363376  1
  O  O190  1  0.61478894  0.12033061  0.12709712  1
  O  O191  1  0.62343734  0.12358007  0.61122134  1
  O  O192  1  0.61725332  0.61461235  0.13224730  1
  O  O193  1  0.61853934  0.62288471  0.61754745  1
  O  O194  1  0.38010147  0.38129551  0.38302008  1
  O  O195  1  0.37815022  0.38244093  0.87928904  1
  O  O196  1  0.38540109  0.87869036  0.37567883  1
  O  O197  1  0.37532927  0.87698128  0.88562452  1
  O  O198  1  0.87658666  0.38053858  0.38917083  1
  O  O199  1  0.87996316  0.37907869  0.88582407  1
  O  O200  1  0.87983980  0.87803929  0.38016857  1
  O  O201  1  0.87665663  0.88062469  0.88163524  1
  O  O202  1  0.25108753  0.00312101  0.36211779  1
  O  O203  1  0.24720554  0.00824267  0.86450872  1
  O  O204  1  0.25622108  0.50141009  0.36557072  1
  O  O205  1  0.25489490  0.50734196  0.87019376  1
  O  O206  1  0.75505444  0.00457252  0.36776696  1
  O  O207  1  0.76186553  -0.00196876  0.86535213  1
  O  O208  1  0.75615278  0.50474990  0.37259028  1
  O  O209  1  0.75228028  0.50397686  0.87291506  1
  O  O210  1  0.24542049  0.50001835  0.13395784  1
  O  O211  1  0.24832923  0.49153430  0.63340602  1
  O  O212  1  0.24989111  0.99725599  0.13274874  1
  O  O213  1  0.24183103  0.99817612  0.62857426  1
  O  O214  1  0.74253722  0.49828639  0.13497342  1
  O  O215  1  0.74796219  0.48776805  0.63366849  1
  O  O216  1  0.74728111  0.99422870  0.12960598  1
  O  O217  1  0.74801085  0.99603806  0.63448647  1
  O  O218  1  0.00874063  0.36787165  0.25451501  1
  O  O219  1  0.00141853  0.37032763  0.75614927  1
  O  O220  1  0.00514850  0.86851088  0.25343369  1
  O  O221  1  -0.00110784  0.86206999  0.74787869  1
  O  O222  1  0.50605781  0.36998811  0.25855561  1
  O  O223  1  0.50550747  0.37004799  0.75298968  1
  O  O224  1  0.50773281  0.87184241  0.25118686  1
  O  O225  1  0.49702960  0.86289727  0.75137246  1
  O  O226  1  0.49948935  0.13133317  0.24009694  1
  O  O227  1  0.49738461  0.13566076  0.74842332  1
  O  O228  1  0.49909084  0.63360593  0.23943393  1
  O  O229  1  0.49403822  0.63290652  0.74457233  1
  O  O230  1  0.99740109  0.13149866  0.24741893  1
  O  O231  1  0.99418186  0.12833298  0.74113568  1
  O  O232  1  0.99583117  0.62853684  0.24547367  1
  O  O233  1  0.99346127  0.63033697  0.74510475  1
  O  O234  1  0.36924949  0.25687810  0.00374243  1
  O  O235  1  0.38085093  0.26648262  0.49906585  1
  O  O236  1  0.37066567  0.76038212  0.00279299  1
  O  O237  1  0.36844323  0.75153009  0.50612587  1
  O  O238  1  0.88603235  0.26301308  0.01587593  1
  O  O239  1  0.86873457  0.26058406  0.49669138  1
  O  O240  1  0.88367326  0.76161417  0.00562185  1
  O  O241  1  0.86991432  0.75803430  0.49827952  1
  O  O242  1  0.12068058  0.23928092  0.50189669  1
  O  O243  1  0.12969455  0.24970438  0.99505237  1
  O  O244  1  0.13072093  0.74917262  0.49356319  1
  O  O245  1  0.13029820  0.74584307  0.99411424  1
  O  O246  1  0.62954498  0.24159621  0.49567301  1
  O  O247  1  0.63885244  0.28589005  0.99339322  1
  O  O248  1  0.63012069  0.74338229  0.49258850  1
  O  O249  1  0.61829055  0.75351203  0.98516742  1
  O  O250  1  0.49777763  0.24382583  0.12869684  1
  O  O251  1  0.49716391  0.24935214  0.63563635  1
  O  O252  1  0.49799786  0.74503470  0.12841136  1
  O  O253  1  0.49429127  0.74483245  0.63105252  1
  O  O254  1  0.99236027  0.24535393  0.13697937  1
  O  O255  1  1.00498854  0.23658121  0.63346682  1
  O  O256  1  0.99446920  0.74357534  0.13094761  1
  O  O257  1  0.99741681  0.74001964  0.63274982  1
  O  O258  1  -0.00429569  0.25006517  0.36214497  1
  O  O259  1  0.00249496  0.25596164  0.87015937  1
  O  O260  1  0.00574468  0.75438000  0.36837235  1
  O  O261  1  0.00484023  0.74772477  0.86462379  1
  O  O262  1  0.50577791  0.25441817  0.37009324  1
  O  O263  1  0.49994776  0.25822382  0.86547181  1
  O  O264  1  0.50654323  0.75570495  0.36837254  1
  O  O265  1  0.51059012  0.74816779  0.86636912  1
  O  O266  1  0.24233048  0.12213905  0.48337351  1
  O  O267  1  0.24879549  0.12960488  0.98965909  1
  O  O268  1  0.24700384  0.63252681  0.49988118  1
  O  O269  1  0.24548896  0.63279654  0.99485274  1
  O  O270  1  0.74302212  0.12734981  0.49613088  1
  O  O271  1  0.79208333  0.13568092  0.98746320  1
  O  O272  1  0.74628331  0.62729011  0.49510038  1
  O  O273  1  0.75427050  0.61910471  0.98897977  1
  O  O274  1  0.25595858  0.36833115  0.00120268  1
  O  O275  1  0.25924870  0.38415256  0.51093459  1
  O  O276  1  0.25728034  0.87328877  0.00246643  1
  O  O277  1  0.25054002  0.86928550  0.50485479  1
  O  O278  1  0.77073059  0.37822156  0.00721513  1
  O  O279  1  0.75583989  0.36976115  0.50906636  1
  O  O280  1  0.76398626  0.88275357  0.00561043  1
  O  O281  1  0.75954624  0.86760620  0.49613841  1
  O  O282  1  0.13242689  0.49413576  0.24628776  1
  O  O283  1  0.12990469  0.49381490  0.75175543  1
  O  O284  1  0.13471275  0.99319228  0.24655041  1
  O  O285  1  0.13262615  1.00135088  0.73774350  1
  O  O286  1  0.63130829  0.49506064  0.24665855  1
  O  O287  1  0.62920804  0.49043454  0.74814794  1
  O  O288  1  0.63207000  0.99541554  0.24221203  1
  O  O289  1  0.63704786  0.99789824  0.75038584  1
  O  O290  1  0.36377556  0.00366961  0.24835263  1
  O  O291  1  0.36091327  0.00152121  0.74849400  1
  O  O292  1  0.36623971  0.49805530  0.25496518  1
  O  O293  1  0.36904758  0.50681612  0.75665944  1
  O  O294  1  0.87059501  0.00486693  0.25439739  1
  O  O295  1  0.87004468  0.00337212  0.75340090  1
  O  O296  1  0.87186404  0.50414501  0.25665243  1
  O  O297  1  0.86816299  0.50290286  0.76033287  1
  O  O298  1  0.12449351  0.37973378  0.36190645  1
  O  O299  1  0.11756096  0.37101242  0.87119773  1
  O  O300  1  0.11929944  0.86960118  0.36775448  1
  O  O301  1  0.12068603  0.86641028  0.86904466  1
  O  O302  1  0.62012987  0.36845780  0.37414025  1
  O  O303  1  0.61628286  0.37962993  0.86035653  1
  O  O304  1  0.62095461  0.86945594  0.36712976  1
  O  O305  1  0.62518650  0.85868018  0.86839203  1
  O  O306  1  0.38726643  0.13305489  0.12705918  1
  O  O307  1  0.37495434  0.13151202  0.62580658  1
  O  O308  1  0.38458318  0.63314367  0.12754708  1
  O  O309  1  0.37990583  0.63108912  0.63091094  1
  O  O310  1  0.88196600  0.13315637  0.13508863  1
  O  O311  1  0.88685551  0.11566822  0.63263051  1
  O  O312  1  0.88123580  0.62832166  0.13131928  1
  O  O313  1  0.88404523  0.62312050  0.63317439  1
  O  O314  1  0.25764498  0.25007679  0.11835138  1
  O  O315  1  0.24936673  0.26634588  0.63325615  1
  O  O316  1  0.25629218  0.75694422  0.11739955  1
  O  O317  1  0.25322569  0.75561437  0.62048900  1
  O  O318  1  0.76449394  0.25160304  0.12651780  1
  O  O319  1  0.74401743  0.26175436  0.62138242  1
  O  O320  1  0.75927996  0.75766528  0.13197527  1
  O  O321  1  0.75432750  0.74895955  0.61695498  1
  O  O322  1  0.25142106  0.23838930  0.36615710  1
  O  O323  1  0.24221610  0.24332423  0.87873089  1
  O  O324  1  0.24470635  0.75041550  0.37982625  1
  O  O325  1  0.24517815  0.74569988  0.87817009  1
  O  O326  1  0.74504627  0.24297171  0.38298240  1
  O  O327  1  0.74473332  0.24406844  0.87921352  1
  O  O328  1  0.74465881  0.74260717  0.37882409  1
  O  O329  1  0.73527506  0.73977813  0.87032771  1
  O  O330  1  -0.00574091  0.11294546  0.00555168  1
  O  O331  1  0.00696728  0.12328864  0.50678047  1
  O  O332  1  0.00578000  0.62000583  0.00539022  1
  O  O333  1  -0.00374400  0.61555436  0.50979387  1
  O  O334  1  0.49275565  0.11596454  0.00832481  1
  O  O335  1  0.50849779  0.11729098  0.49648571  1
  O  O336  1  0.49653534  0.62434144  0.01486664  1
  O  O337  1  0.50510409  0.62049934  0.50422982  1
  O  O338  1  0.49390937  0.38085319  0.49654912  1
  O  O339  1  0.48983231  0.37988619  0.99224829  1
  O  O340  1  0.50219684  0.88488000  0.49163055  1
  O  O341  1  0.49076662  0.88548831  0.99893352  1
  O  O342  1  0.99198428  0.38078875  0.50338299  1
  O  O343  1  0.99446395  0.38155378  0.99788804  1
  O  O344  1  0.99025618  0.87546627  0.49264029  1
  O  O345  1  0.99057709  0.88304069  0.99978879  1
  O  O346  1  0.49587955  0.49403631  0.37969587  1
  O  O347  1  0.49281715  0.49649294  0.87650954  1
  O  O348  1  0.50054078  0.99573789  0.38085792  1
  O  O349  1  0.49689562  0.99834430  0.88287640  1
  O  O350  1  0.99430387  0.49870264  0.38690552  1
  O  O351  1  0.99257353  0.49463367  0.88186277  1
  O  O352  1  0.99401382  0.99274069  0.37431279  1
  O  O353  1  0.99199228  0.99632443  0.87957374  1
  O  O354  1  -0.00090184  0.00463513  0.11606556  1
  O  O355  1  0.01000317  0.01027723  0.62391440  1
  O  O356  1  0.00646495  0.50652015  0.12144711  1
  O  O357  1  -0.00204241  0.50635568  0.61890580  1
  O  O358  1  0.50593815  0.00826022  0.11691829  1
  O  O359  1  0.50207091  0.00253025  0.61249723  1
  O  O360  1  0.50842249  0.50913466  0.12661457  1
  O  O361  1  0.49984460  0.50737072  0.61898897  1
  O  O362  1  0.24337462  0.38543446  0.24802412  1
  O  O363  1  0.24321973  0.38162764  0.74516443  1
  O  O364  1  0.24616945  0.88266310  0.24309335  1
  O  O365  1  0.24659921  0.88537814  0.74189907  1
  O  O366  1  0.74494026  0.38062067  0.25327710  1
  O  O367  1  0.74365561  0.37709701  0.74594293  1
  O  O368  1  0.74639577  0.88123829  0.24405610  1
  O  O369  1  0.75263059  0.88458714  0.74737422  1
  O  O370  1  0.24733721  0.11824868  0.26008910  1
  O  O371  1  0.24653875  0.11810841  0.75669362  1
  O  O372  1  0.25189199  0.61343838  0.25004422  1
  O  O373  1  0.25469514  0.62164837  0.75492140  1
  O  O374  1  0.75657000  0.11992952  0.25605076  1
  O  O375  1  0.76011835  0.11455260  0.74635391  1
  O  O376  1  0.75682460  0.61855639  0.25714969  1
  O  O377  1  0.75422175  0.61714567  0.75840779  1
  O  O378  1  0.35957378  0.12267353  0.37248678  1
  O  O379  1  0.35960389  0.12423048  0.86989095  1
  O  O380  1  0.37412638  0.61707771  0.37016392  1
  O  O381  1  0.36943906  0.62258067  0.87004342  1
  O  O382  1  0.86980362  0.11858310  0.37182905  1
  O  O383  1  0.88105710  0.10852097  0.85655476  1
  O  O384  1  0.87049497  0.61860686  0.37034729  1
  O  O385  1  0.86556979  0.61879264  0.87260629  1
  O  O386  1  0.12669346  0.38319986  0.13632472  1
  O  O387  1  0.13177818  0.37814340  0.63295964  1
  O  O388  1  0.13252703  0.87629022  0.12955208  1
  O  O389  1  0.12856750  0.88629766  0.62386320  1
  O  O390  1  0.62511455  0.38568907  0.13853525  1
  O  O391  1  0.63311556  0.37695329  0.63495268  1
  O  O392  1  0.63161389  0.88118874  0.12957480  1
  O  O393  1  0.62913987  0.87750068  0.62912134  1
  O  O394  1  0.11603513  0.26060134  0.24217835  1
  O  O395  1  0.11602052  0.25695658  0.75776324  1
  O  O396  1  0.12086829  0.75556661  0.25385566  1
  O  O397  1  0.11395963  0.74930988  0.75373659  1
  O  O398  1  0.62106761  0.25530050  0.25685378  1
  O  O399  1  0.61438125  0.25976106  0.75019789  1
  O  O400  1  0.62106192  0.75665664  0.25434524  1
  O  O401  1  0.61299700  0.74758718  0.75387823  1
  O  O402  1  0.38390016  0.25146170  0.24236414  1
  O  O403  1  0.38558997  0.25222914  0.74840557  1
  O  O404  1  0.38234236  0.75275481  0.24069225  1
  O  O405  1  0.38257804  0.74527289  0.74499054  1
  O  O406  1  0.88335313  0.24653236  0.24597822  1
  O  O407  1  0.87971923  0.23566761  0.75484713  1
  O  O408  1  0.88215884  0.74295011  0.24511359  1
  O  O409  1  0.88307207  0.74259572  0.75107876  1
  O  O410  1  0.38150597  0.49204677  0.49450054  1
  O  O411  1  0.37422783  0.49562344  0.99323565  1
  O  O412  1  0.38746768  0.99923820  0.49598210  1
  O  O413  1  0.38405342  0.99304169  0.99872831  1
  O  O414  1  0.88207720  0.49036406  0.49786399  1
  O  O415  1  0.88297790  0.49266662  0.99935012  1
  O  O416  1  0.87528243  0.98984784  0.49211896  1
  O  O417  1  0.88415184  0.98965889  0.99069821  1
  O  O418  1  0.11118347  0.00014301  -0.00141056  1
  O  O419  1  0.12386926  0.00869327  0.50859394  1
  O  O420  1  0.12103721  0.50637996  0.00501837  1
  O  O421  1  0.11088458  0.49954130  0.50183169  1
  O  O422  1  0.61319718  -0.01017613  0.00510901  1
  O  O423  1  0.61704662  0.00855699  0.49733021  1
  O  O424  1  0.62497296  0.48926986  0.01749336  1
  O  O425  1  0.61857616  0.50598948  0.50131514  1
  O  O426  1  0.37539923  0.36898633  0.11807947  1
  O  O427  1  0.36600782  0.37537968  0.61753133  1
  O  O428  1  0.37102744  0.87169675  0.11340417  1
  O  O429  1  0.36670173  0.86771635  0.62043547  1
  O  O430  1  0.87819010  0.36790107  0.12278399  1
  O  O431  1  0.86439143  0.37865881  0.61683827  1
  O  O432  1  0.87080199  0.86961827  0.11761578  1
  O  O433  1  0.87427652  0.87309390  0.61017875  1
  O  O434  1  0.13721331  0.12213691  0.38137471  1
  O  O435  1  0.13283294  0.13086716  0.87607260  1
  O  O436  1  0.12798604  0.63384884  0.37838975  1
  O  O437  1  0.13096034  0.63031578  0.88103197  1
  O  O438  1  0.63090633  0.12945475  0.38317687  1
  O  O439  1  0.62827502  0.12481314  0.88302561  1
  O  O440  1  0.63030626  0.62970748  0.37982400  1
  O  O441  1  0.63075859  0.63559682  0.87286614  1
