# generated using pymatgen
data_V93Zn93O256
_symmetry_space_group_name_H-M   'P 1'
_cell_length_a   17.05004929
_cell_length_b   17.04951861
_cell_length_c   17.04796169
_cell_angle_alpha   90.01267951
_cell_angle_beta   90.05693688
_cell_angle_gamma   89.96543169
_symmetry_Int_Tables_number   1
_chemical_formula_structural   V93Zn93O256
_chemical_formula_sum   'V93 Zn93 O256'
_cell_volume   4955.75601541
_cell_formula_units_Z   1
loop_
 _symmetry_equiv_pos_site_id
 _symmetry_equiv_pos_as_xyz
  1  'x, y, z'
loop_
 _atom_site_type_symbol
 _atom_site_label
 _atom_site_symmetry_multiplicity
 _atom_site_fract_x
 _atom_site_fract_y
 _atom_site_fract_z
 _atom_site_occupancy
  V  V0  1  0.62454556  0.50131383  0.12456301  1
  V  V1  1  0.37412354  0.12885476  0.74428281  1
  V  V2  1  0.37521279  0.12131882  0.25464203  1
  V  V3  1  0.49940840  0.37644593  0.87463139  1
  V  V4  1  0.62299082  0.12483012  0.00046832  1
  V  V5  1  0.74994302  0.00128614  0.24956729  1
  V  V6  1  0.12495126  0.12377909  -0.00018434  1
  V  V7  1  0.50099001  0.49508148  0.49151346  1
  V  V8  1  0.25523852  0.24855363  0.50659674  1
  V  V9  1  0.37554771  0.74830135  0.12583474  1
  V  V10  1  0.75070418  0.37532891  0.62551637  1
  V  V11  1  0.74994070  0.25145954  0.00118298  1
  V  V12  1  0.25117960  0.74832374  0.49864514  1
  V  V13  1  0.87414011  0.25122484  0.12586673  1
  V  V14  1  0.62419914  0.25103515  0.87522618  1
  V  V15  1  0.74962315  0.87466648  0.12475373  1
  V  V16  1  0.00014217  0.24897753  0.75103477  1
  V  V17  1  -0.00039462  0.12506347  0.12496903  1
  V  V18  1  0.62446431  0.37543905  0.74997273  1
  V  V19  1  0.87539907  0.49912729  0.87774241  1
  V  V20  1  0.49988916  0.75106951  0.74818135  1
  V  V21  1  0.74863541  0.00075347  0.74978746  1
  V  V22  1  0.61694867  0.00220070  0.62051318  1
  V  V23  1  0.00221864  0.87045205  0.87537938  1
  V  V24  1  0.87637903  -0.00093230  0.37656599  1
  V  V25  1  0.62481243  0.62718971  -0.00020746  1
  V  V26  1  0.24551818  0.74989012  -0.00662240  1
  V  V27  1  0.00256328  0.49882660  0.50213929  1
  V  V28  1  0.74896121  0.12602477  0.87479381  1
  V  V29  1  0.25005098  0.87364203  0.62442340  1
  V  V30  1  0.87570664  0.50013142  0.37484990  1
  V  V31  1  0.62252809  0.87705273  0.25112976  1
  V  V32  1  0.11960804  0.87043957  0.24987770  1
  V  V33  1  0.25007595  0.24966604  0.00087693  1
  V  V34  1  0.12496955  0.50055834  0.12426529  1
  V  V35  1  0.25496921  0.62230074  0.37396090  1
  V  V36  1  0.12063919  0.74790635  0.37059570  1
  V  V37  1  -0.00005511  -0.00084563  -0.00019523  1
  V  V38  1  0.37499203  0.62555684  0.74950686  1
  V  V39  1  0.12852150  0.24449602  0.37719808  1
  V  V40  1  0.49647606  0.89123300  0.37806234  1
  V  V41  1  0.75025581  0.50099065  0.75019468  1
  V  V42  1  0.87407780  0.12488282  0.75006846  1
  V  V43  1  0.49575549  0.24967254  0.74252536  1
  V  V44  1  0.25276683  -0.00082872  0.25653804  1
  V  V45  1  0.61879900  0.12353883  0.49917247  1
  V  V46  1  0.87627840  0.37410299  0.50074850  1
  V  V47  1  0.87518384  0.62485854  0.75109182  1
  V  V48  1  0.87454662  0.12468152  0.25099536  1
  V  V49  1  0.75212732  0.50189534  0.25030503  1
  V  V50  1  0.49980536  0.25690778  0.25171905  1
  V  V51  1  0.50086882  0.62425952  0.62346886  1
  V  V52  1  0.12479921  -0.00162883  0.12618969  1
  V  V53  1  0.00206668  0.74887455  0.75458835  1
  V  V54  1  0.75122514  0.62635072  0.37523837  1
  V  V55  1  0.24997623  0.12376712  0.87464698  1
  V  V56  1  0.12443896  0.24893706  0.87511672  1
  V  V57  1  0.49887823  0.87693853  0.87464171  1
  V  V58  1  0.62198244  0.25753246  0.37437501  1
  V  V59  1  0.87451536  -0.00041395  0.87562308  1
  V  V60  1  0.37781376  0.88746929  0.49561764  1
  V  V61  1  0.87582644  0.75006744  0.62595533  1
  V  V62  1  0.87864842  0.75055291  0.13233803  1
  V  V63  1  0.00040777  0.24962402  0.25054821  1
  V  V64  1  0.12654585  0.37342368  0.24983104  1
  V  V65  1  0.74949751  0.87558413  0.62528585  1
  V  V66  1  0.75030160  0.37606610  0.12592294  1
  V  V67  1  0.25037097  0.49932710  0.74720582  1
  V  V68  1  0.62194346  0.75211338  0.37506914  1
  V  V69  1  0.62317507  0.00136059  0.12385753  1
  V  V70  1  0.00153165  0.62839952  0.13236028  1
  V  V71  1  0.37486378  0.25034424  0.12466272  1
  V  V72  1  0.00109006  0.37402714  0.37603309  1
  V  V73  1  0.37580035  0.75041946  0.62298668  1
  V  V74  1  0.12534563  0.37459792  0.74914513  1
  V  V75  1  0.12575900  0.86856178  0.75403054  1
  V  V76  1  0.37573720  0.50128252  0.87570037  1
  V  V77  1  0.37415305  0.87727198  -0.00036863  1
  V  V78  1  0.00060640  0.12094700  0.62209180  1
  V  V79  1  0.24952244  -0.00128400  0.74987126  1
  V  V80  1  0.74998069  0.75010737  0.50029554  1
  V  V81  1  0.24997529  0.37429438  0.12441217  1
  V  V82  1  0.87507754  0.87419208  0.00123131  1
  V  V83  1  0.62484705  0.50081974  0.62440600  1
  V  V84  1  0.74909786  0.25012670  0.49931481  1
  V  V85  1  0.25181737  0.49933651  0.25089221  1
  V  V86  1  0.62386049  0.87637616  0.74895977  1
  V  V87  1  0.00200144  0.62297278  0.62522824  1
  V  V88  1  0.12376530  0.62799465  -0.00622377  1
  V  V89  1  0.87630297  0.87564967  0.50048934  1
  V  V90  1  0.62569274  0.75102133  0.87480563  1
  V  V91  1  0.87450400  0.24932934  0.62539570  1
  V  V92  1  0.37799569  0.37167926  0.49976498  1
  Zn  Zn93  1  0.74944111  0.12602833  0.37546527  1
  Zn  Zn94  1  0.25655852  0.11868203  0.38035046  1
  Zn  Zn95  1  0.38321401  0.49167573  0.36990424  1
  Zn  Zn96  1  0.49865428  0.12547737  0.12292142  1
  Zn  Zn97  1  0.12749200  0.49889271  0.62296945  1
  Zn  Zn98  1  -0.00086060  0.37405340  0.87810167  1
  Zn  Zn99  1  -0.00223631  0.86694866  0.37413903  1
  Zn  Zn100  1  0.12338620  -0.00435581  0.62166798  1
  Zn  Zn101  1  0.75067848  0.75100440  -0.00080820  1
  Zn  Zn102  1  0.88133117  0.63018018  0.25434954  1
  Zn  Zn103  1  0.49837590  0.50019214  0.00171007  1
  Zn  Zn104  1  0.62071668  0.38026022  0.25447654  1
  Zn  Zn105  1  0.75060613  0.62748512  0.87505635  1
  Zn  Zn106  1  0.37592293  0.00211521  0.87539662  1
  Zn  Zn107  1  0.49781827  0.00282533  -0.00010974  1
  Zn  Zn108  1  0.00401361  -0.00378859  0.49867021  1
  Zn  Zn109  1  0.50014450  0.62628069  0.12773829  1
  Zn  Zn110  1  0.00004739  0.49891615  0.00090127  1
  Zn  Zn111  1  0.49270833  0.12594048  0.61843350  1
  Zn  Zn112  1  0.24419658  0.62819920  0.87161288  1
  Zn  Zn113  1  0.12826209  0.12024831  0.50086158  1
  Zn  Zn114  1  0.87766558  0.37588893  0.00081328  1
  Zn  Zn115  1  0.62413913  0.62446978  0.49939931  1
  Zn  Zn116  1  0.12744551  0.62205768  0.50064231  1
  Zn  Zn117  1  0.37524005  0.37535299  -0.00061230  1
  Zn  Zn118  1  0.24907079  0.87425734  0.12551857  1
  Zn  Zn119  1  0.49576659  0.75119607  0.25071114  1
  Zn  Zn120  1  0.25750013  0.36708344  0.62810621  1
  Zn  Zn121  1  0.37805921  0.62269473  0.24772925  1
  Zn  Zn122  1  0.18914456  0.18480915  0.18826108  1
  Zn  Zn123  1  0.18530550  0.18483290  0.68776489  1
  Zn  Zn124  1  0.19085812  0.68736240  0.18499575  1
  Zn  Zn125  1  0.18709135  0.68667334  0.68606837  1
  Zn  Zn126  1  0.68648970  0.18770154  0.18814361  1
  Zn  Zn127  1  0.68461150  0.18767245  0.68632159  1
  Zn  Zn128  1  0.69078418  0.68888418  0.18870215  1
  Zn  Zn129  1  0.68758563  0.68706940  0.68755303  1
  Zn  Zn130  1  0.31442843  0.31094250  0.31592630  1
  Zn  Zn131  1  0.31275603  0.31192938  0.81395289  1
  Zn  Zn132  1  0.31039184  0.81454482  0.31366340  1
  Zn  Zn133  1  0.31321488  0.81258986  0.81333496  1
  Zn  Zn134  1  0.80942161  0.31388327  0.31242076  1
  Zn  Zn135  1  0.81226983  0.31376000  0.81303538  1
  Zn  Zn136  1  0.80976228  0.81477298  0.31248371  1
  Zn  Zn137  1  0.81277459  0.81222300  0.81331910  1
  Zn  Zn138  1  0.19080164  0.43419745  0.43879367  1
  Zn  Zn139  1  0.18755791  0.43877923  0.93721469  1
  Zn  Zn140  1  0.18665506  0.93398109  0.43819319  1
  Zn  Zn141  1  0.18798623  0.93702702  0.93591395  1
  Zn  Zn142  1  0.68855501  0.43877238  0.43842705  1
  Zn  Zn143  1  0.68947630  0.43856187  0.93872573  1
  Zn  Zn144  1  0.68791274  0.93847315  0.43796149  1
  Zn  Zn145  1  0.68683418  0.93785760  0.93856522  1
  Zn  Zn146  1  0.31090922  0.06248255  0.06807678  1
  Zn  Zn147  1  0.30814950  0.06266394  0.56467686  1
  Zn  Zn148  1  0.30933493  0.56448518  0.06166904  1
  Zn  Zn149  1  0.31684958  0.55971494  0.55982951  1
  Zn  Zn150  1  0.81076515  0.06310781  0.06275350  1
  Zn  Zn151  1  0.80836126  0.06291533  0.56118796  1
  Zn  Zn152  1  0.81206714  0.56646760  0.06271815  1
  Zn  Zn153  1  0.81384567  0.56330975  0.56184450  1
  Zn  Zn154  1  0.43688430  0.43738951  0.18629108  1
  Zn  Zn155  1  0.43726110  0.43623786  0.68257751  1
  Zn  Zn156  1  0.43879197  0.93662817  0.18761497  1
  Zn  Zn157  1  0.43403587  0.93929702  0.68668979  1
  Zn  Zn158  1  0.93862079  0.43955340  0.18753488  1
  Zn  Zn159  1  0.93871016  0.43740242  0.68951493  1
  Zn  Zn160  1  0.93809612  0.93685634  0.18880553  1
  Zn  Zn161  1  0.93756862  0.93665797  0.68891999  1
  Zn  Zn162  1  0.06266794  0.05951039  0.31154987  1
  Zn  Zn163  1  0.06334583  0.05806966  0.81047614  1
  Zn  Zn164  1  0.06625327  0.56115939  0.31390026  1
  Zn  Zn165  1  0.06015328  0.56026784  0.81225279  1
  Zn  Zn166  1  0.56275545  0.07004797  0.31024303  1
  Zn  Zn167  1  0.55979493  0.06311100  0.81247018  1
  Zn  Zn168  1  0.56360499  0.56897797  0.30905652  1
  Zn  Zn169  1  0.56231948  0.56438476  0.81270165  1
  Zn  Zn170  1  0.43787345  0.19006765  0.43463702  1
  Zn  Zn171  1  0.43667653  0.18819874  0.93448090  1
  Zn  Zn172  1  0.43842607  0.68862575  0.43914425  1
  Zn  Zn173  1  0.43847227  0.68851246  0.93834661  1
  Zn  Zn174  1  0.93780885  0.18632297  0.43769067  1
  Zn  Zn175  1  0.93675504  0.18788181  0.93836453  1
  Zn  Zn176  1  0.93863365  0.68542893  0.44069609  1
  Zn  Zn177  1  0.93803863  0.68662853  0.94147528  1
  Zn  Zn178  1  0.06136520  0.31363799  0.06124636  1
  Zn  Zn179  1  0.06536797  0.30984188  0.56373910  1
  Zn  Zn180  1  0.06192888  0.81064936  0.06386560  1
  Zn  Zn181  1  0.06374960  0.80972648  0.56157244  1
  Zn  Zn182  1  0.56043822  0.31441319  0.06291698  1
  Zn  Zn183  1  0.56281165  0.31398234  0.56082501  1
  Zn  Zn184  1  0.56040367  0.81375935  0.06204533  1
  Zn  Zn185  1  0.56025553  0.81530392  0.55903474  1
  O  O186  1  0.11854137  0.11966318  0.11974696  1
  O  O187  1  0.11124369  0.12164343  0.62593025  1
  O  O188  1  0.11912224  0.62083225  0.11850565  1
  O  O189  1  0.11704119  0.62121131  0.62297346  1
  O  O190  1  0.62544633  0.11906967  0.11759822  1
  O  O191  1  0.62381034  0.11776550  0.61744668  1
  O  O192  1  0.62693585  0.61802445  0.11791023  1
  O  O193  1  0.61925213  0.61885663  0.62344066  1
  O  O194  1  0.37075209  0.37628576  0.39100313  1
  O  O195  1  0.38011431  0.38574543  0.87420502  1
  O  O196  1  0.38504487  0.86796129  0.38361534  1
  O  O197  1  0.38011818  0.87574313  0.88420748  1
  O  O198  1  0.88113343  0.37901207  0.38120939  1
  O  O199  1  0.87534585  0.38581540  0.87576789  1
  O  O200  1  0.87590644  0.88210341  0.38006346  1
  O  O201  1  0.88019221  0.88149904  0.88043336  1
  O  O202  1  0.24335823  0.00101777  0.36053382  1
  O  O203  1  0.25035201  0.00699289  0.86756637  1
  O  O204  1  0.24927305  0.50828005  0.36931616  1
  O  O205  1  0.25929437  0.50063824  0.86384434  1
  O  O206  1  0.76085587  0.00028501  0.36878822  1
  O  O207  1  0.75455581  0.00597330  0.86945806  1
  O  O208  1  0.75585775  0.50548157  0.37142058  1
  O  O209  1  0.75809833  0.50186397  0.86771464  1
  O  O210  1  0.24501206  0.49432405  0.13092539  1
  O  O211  1  0.25080665  0.49937924  0.63890882  1
  O  O212  1  0.24057333  0.99801543  0.13474371  1
  O  O213  1  0.24767283  0.99057465  0.63338293  1
  O  O214  1  0.74347220  0.49727657  0.12999357  1
  O  O215  1  0.74602118  0.49451824  0.62957539  1
  O  O216  1  0.74489708  0.99445595  0.13037729  1
  O  O217  1  0.74164799  0.99503845  0.63131819  1
  O  O218  1  0.00642429  0.36896532  0.25578060  1
  O  O219  1  0.00925660  0.36776583  0.75213674  1
  O  O220  1  0.01485071  0.88013031  0.25367429  1
  O  O221  1  0.00699797  0.86935367  0.75443739  1
  O  O222  1  0.50114392  0.36154453  0.24668907  1
  O  O223  1  0.50427993  0.36870352  0.75389470  1
  O  O224  1  0.50466515  0.87182349  0.26026424  1
  O  O225  1  0.50434667  0.87009161  0.75365018  1
  O  O226  1  0.49175366  0.13476456  0.24513235  1
  O  O227  1  0.49123715  0.13384660  0.75068146  1
  O  O228  1  0.49513777  0.63346526  0.24609583  1
  O  O229  1  0.49489149  0.63146265  0.74344984  1
  O  O230  1  0.99463115  0.12993743  0.24416807  1
  O  O231  1  0.99354542  0.12839470  0.74308644  1
  O  O232  1  1.00173278  0.62055307  0.23700734  1
  O  O233  1  0.99481263  0.62949813  0.74532909  1
  O  O234  1  0.36714188  0.25030679  0.00548643  1
  O  O235  1  0.36490359  0.25558924  0.49387188  1
  O  O236  1  0.36838527  0.75757517  0.00557449  1
  O  O237  1  0.36908962  0.75544626  0.50623881  1
  O  O238  1  0.86764070  0.24924464  0.00795947  1
  O  O239  1  0.86979266  0.25495780  0.50540310  1
  O  O240  1  0.87306541  0.75688832  0.01103327  1
  O  O241  1  0.86978450  0.75547276  0.50628626  1
  O  O242  1  0.13275461  0.24867669  0.49083108  1
  O  O243  1  0.12972245  0.24258393  0.99537470  1
  O  O244  1  0.13426717  0.74810771  0.49022271  1
  O  O245  1  0.13447906  0.74079958  1.00668725  1
  O  O246  1  0.62950976  0.24526115  0.49347455  1
  O  O247  1  0.63032268  0.24567225  0.99458284  1
  O  O248  1  0.63178176  0.75113354  0.49097486  1
  O  O249  1  0.62484831  0.74360932  0.99410715  1
  O  O250  1  0.49388745  0.24894598  0.13310323  1
  O  O251  1  0.50787890  0.24822985  0.63991254  1
  O  O252  1  0.48792641  0.75064391  0.12577375  1
  O  O253  1  0.49584698  0.74526347  0.62903859  1
  O  O254  1  0.99519342  0.24435051  0.13119985  1
  O  O255  1  0.99407599  0.24140332  0.63097828  1
  O  O256  1  0.99037133  0.74081560  0.12117737  1
  O  O257  1  0.99414897  0.74346484  0.63207798  1
  O  O258  1  0.00727177  0.25458600  0.37066842  1
  O  O259  1  0.00645723  0.24851409  0.86830734  1
  O  O260  1  0.01603983  0.74551992  0.37880183  1
  O  O261  1  -0.00850083  0.75820580  0.86747263  1
  O  O262  1  0.51135021  0.24483236  0.36373340  1
  O  O263  1  0.50551726  0.25696092  0.86553795  1
  O  O264  1  0.51299587  0.75455778  0.37581493  1
  O  O265  1  0.50500448  0.75683132  0.86734427  1
  O  O266  1  0.24915003  0.13277821  0.49657608  1
  O  O267  1  0.24350464  0.12910311  0.99564185  1
  O  O268  1  0.25071815  0.62867734  0.49137628  1
  O  O269  1  0.24051782  0.63267046  0.99768405  1
  O  O270  1  0.73917440  0.13361374  0.49972449  1
  O  O271  1  0.74418340  0.13118710  0.99377767  1
  O  O272  1  0.74907738  0.63240963  0.49396374  1
  O  O273  1  0.73680420  0.62858624  0.99780445  1
  O  O274  1  0.24964739  0.36746246  0.00610579  1
  O  O275  1  0.25685442  0.36579031  0.50412443  1
  O  O276  1  0.25680610  0.86778472  -0.00009462  1
  O  O277  1  0.25809162  0.86732003  0.50397684  1
  O  O278  1  0.75197581  0.36805724  0.00741763  1
  O  O279  1  0.75693299  0.37038860  0.50656429  1
  O  O280  1  0.75746489  0.87600066  0.00723546  1
  O  O281  1  0.75600368  0.86967173  0.50643078  1
  O  O282  1  0.13165827  0.49213269  0.24463464  1
  O  O283  1  0.13403131  0.49123524  0.75217057  1
  O  O284  1  0.13150377  0.99280147  0.24517305  1
  O  O285  1  0.13055588  0.98756663  0.74638884  1
  O  O286  1  0.63158980  0.50112312  0.24077244  1
  O  O287  1  0.62964147  0.49487255  0.74489854  1
  O  O288  1  0.63051797  0.99691748  0.24444211  1
  O  O289  1  0.63012899  0.99624318  0.74233633  1
  O  O290  1  0.36421882  0.00874499  0.24005447  1
  O  O291  1  0.36776342  0.00834707  0.75299020  1
  O  O292  1  0.36797266  0.50066199  0.25285159  1
  O  O293  1  0.36874784  0.50423823  0.75573746  1
  O  O294  1  0.87036294  0.00416213  0.25713583  1
  O  O295  1  0.86828406  0.00476512  0.75612469  1
  O  O296  1  0.86991245  0.50180323  0.25823832  1
  O  O297  1  0.86995107  0.50479111  0.75696678  1
  O  O298  1  0.12069322  0.36454412  0.36960358  1
  O  O299  1  0.12564333  0.36845606  0.86418701  1
  O  O300  1  0.12476054  0.86410252  0.36714827  1
  O  O301  1  0.11776354  0.87973120  0.86329597  1
  O  O302  1  0.63009044  0.36183777  0.37447401  1
  O  O303  1  0.62035877  0.37138733  0.86897851  1
  O  O304  1  0.61806332  0.87034088  0.37226103  1
  O  O305  1  0.61961306  0.87141883  0.86837738  1
  O  O306  1  0.37442053  0.13349615  0.13485009  1
  O  O307  1  0.37621958  0.11977833  0.63950856  1
  O  O308  1  0.37634040  0.63557585  0.12284641  1
  O  O309  1  0.38074160  0.63033254  0.63041542  1
  O  O310  1  0.88028774  0.13025007  0.13085913  1
  O  O311  1  0.87976468  0.12980569  0.63041337  1
  O  O312  1  0.88328059  0.63331513  0.12659615  1
  O  O313  1  0.88118007  0.63038747  0.63104733  1
  O  O314  1  0.25388463  0.25477110  0.12035333  1
  O  O315  1  0.24241762  0.24796019  0.61082559  1
  O  O316  1  0.25874760  0.75175215  0.11245962  1
  O  O317  1  0.25658012  0.75415796  0.61947640  1
  O  O318  1  0.75472368  0.25565039  0.12143715  1
  O  O319  1  0.75484398  0.25610400  0.62086216  1
  O  O320  1  0.75877298  0.75754912  0.12277236  1
  O  O321  1  0.75544675  0.75591990  0.62092028  1
  O  O322  1  0.24008167  0.24744470  0.38288187  1
  O  O323  1  0.24368996  0.24344128  0.88052216  1
  O  O324  1  0.24342628  0.74107690  0.37929116  1
  O  O325  1  0.25627880  0.74656382  0.88845547  1
  O  O326  1  0.74188951  0.24799164  0.38076517  1
  O  O327  1  0.74423681  0.24532566  0.87966581  1
  O  O328  1  0.74205328  0.74797451  0.38061068  1
  O  O329  1  0.74157583  0.74908348  0.87702857  1
  O  O330  1  0.00517565  0.11890795  0.00510528  1
  O  O331  1  -0.00018551  0.12387889  0.51238047  1
  O  O332  1  0.00879823  0.62329511  0.01061283  1
  O  O333  1  0.00181114  0.61625675  0.50783535  1
  O  O334  1  0.50717005  0.12437158  0.00054419  1
  O  O335  1  0.51371062  0.13403011  0.50225195  1
  O  O336  1  0.51302191  0.62290839  0.00220216  1
  O  O337  1  0.50101411  0.61575581  0.50692286  1
  O  O338  1  0.49382792  0.38526306  0.50489307  1
  O  O339  1  0.49678044  0.37871668  0.99002435  1
  O  O340  1  0.48981212  0.87198760  0.49060210  1
  O  O341  1  0.48928062  0.87571445  0.99289828  1
  O  O342  1  0.99512271  0.37747591  0.49608691  1
  O  O343  1  0.99645052  0.37961971  0.99606388  1
  O  O344  1  0.99089020  0.87513054  0.49790673  1
  O  O345  1  0.99551055  0.88041971  0.99544246  1
  O  O346  1  0.50350448  0.50703993  0.38762715  1
  O  O347  1  0.49022781  0.49485021  0.87243217  1
  O  O348  1  0.50543996  0.98965220  0.37061445  1
  O  O349  1  0.49715789  0.99182870  0.87751545  1
  O  O350  1  0.99634465  0.49314115  0.38063546  1
  O  O351  1  0.98688874  0.49781504  0.87569168  1
  O  O352  1  0.98564098  0.99849123  0.37566495  1
  O  O353  1  0.99356236  0.99359675  0.88029394  1
  O  O354  1  0.00407852  0.00580668  0.11942198  1
  O  O355  1  -0.00252375  0.01013735  0.62424834  1
  O  O356  1  0.00671138  0.50899984  0.12341554  1
  O  O357  1  0.00073008  0.50521611  0.62015634  1
  O  O358  1  0.50878658  0.00243544  0.12202333  1
  O  O359  1  0.51405060  0.00269286  0.63054765  1
  O  O360  1  0.51252457  0.50119060  0.12357212  1
  O  O361  1  0.50647271  0.50562183  0.61785940  1
  O  O362  1  0.24520124  0.37851436  0.24493764  1
  O  O363  1  0.24376264  0.38103751  0.74894745  1
  O  O364  1  0.24113243  0.88369110  0.24791650  1
  O  O365  1  0.24380524  0.87686031  0.74607386  1
  O  O366  1  0.74670351  0.38352562  0.24346225  1
  O  O367  1  0.74412961  0.38038527  0.74422815  1
  O  O368  1  0.74277996  0.88261989  0.24432856  1
  O  O369  1  0.74376810  0.88078493  0.74458935  1
  O  O370  1  0.25723580  0.11722371  0.25206239  1
  O  O371  1  0.25568976  0.12088617  0.75434673  1
  O  O372  1  0.25129519  0.61727538  0.25746380  1
  O  O373  1  0.25517158  0.61721619  0.75213971  1
  O  O374  1  0.75726597  0.11874958  0.25095719  1
  O  O375  1  0.75445483  0.12111106  0.75507946  1
  O  O376  1  0.75391729  0.61902720  0.25790290  1
  O  O377  1  0.75714272  0.61839239  0.75001293  1
  O  O378  1  0.37512678  0.12915577  0.35858995  1
  O  O379  1  0.36734527  0.12390891  0.86484841  1
  O  O380  1  0.36288129  0.62613367  0.37283215  1
  O  O381  1  0.37609352  0.61606394  0.86775349  1
  O  O382  1  0.87316216  0.11653150  0.36970930  1
  O  O383  1  0.86896007  0.11944439  0.87004625  1
  O  O384  1  0.87023661  0.61923307  0.37445192  1
  O  O385  1  0.87360709  0.61684271  0.86965074  1
  O  O386  1  0.13037099  0.37912883  0.13083629  1
  O  O387  1  0.12762984  0.37514450  0.63957856  1
  O  O388  1  0.12525852  0.87967764  0.13296721  1
  O  O389  1  0.13167152  0.87301169  0.63486988  1
  O  O390  1  0.63148889  0.38695123  0.12483018  1
  O  O391  1  0.63170387  0.38063414  0.63082829  1
  O  O392  1  0.62934523  0.88041583  0.13077851  1
  O  O393  1  0.62931235  0.88265314  0.62838546  1
  O  O394  1  0.12052835  0.25335489  0.25709833  1
  O  O395  1  0.12108850  0.25621933  0.75574878  1
  O  O396  1  0.13540576  0.75970320  0.25790648  1
  O  O397  1  0.11935507  0.76043057  0.74676632  1
  O  O398  1  0.61767758  0.25085678  0.25705821  1
  O  O399  1  0.61838268  0.25552954  0.75642509  1
  O  O400  1  0.62809573  0.75906447  0.26115123  1
  O  O401  1  0.61925581  0.75691607  0.75321908  1
  O  O402  1  0.38090278  0.24410100  0.24501652  1
  O  O403  1  0.38376365  0.24170392  0.75526589  1
  O  O404  1  0.37012067  0.75160696  0.23549495  1
  O  O405  1  0.38036361  0.74595517  0.74345560  1
  O  O406  1  0.88065332  0.24505066  0.24633721  1
  O  O407  1  0.87911834  0.24428754  0.74521423  1
  O  O408  1  0.87081175  0.75103687  0.23720698  1
  O  O409  1  0.88030836  0.74507369  0.74430163  1
  O  O410  1  0.38528601  0.49263373  0.49570704  1
  O  O411  1  0.37440516  0.50040275  0.98716958  1
  O  O412  1  0.36838555  0.98617662  0.50335512  1
  O  O413  1  0.37254089  0.98876821  1.00013066  1
  O  O414  1  0.88117468  0.49287904  0.49485135  1
  O  O415  1  0.87356280  0.50087895  0.98903284  1
  O  O416  1  0.87231822  0.99449479  0.49106926  1
  O  O417  1  0.88064305  0.99535099  0.99546536  1
  O  O418  1  0.11926388  0.00429368  0.00501446  1
  O  O419  1  0.12150620  0.00231046  0.50282859  1
  O  O420  1  0.12697303  0.50950355  0.00744166  1
  O  O421  1  0.11810651  0.49860427  0.50270574  1
  O  O422  1  0.62467690  0.00697532  0.00645224  1
  O  O423  1  0.63290782  0.01093753  0.50958360  1
  O  O424  1  0.62596595  0.50900120  0.00820617  1
  O  O425  1  0.61832250  0.50032005  0.50656071  1
  O  O426  1  0.36722358  0.36853891  0.12214953  1
  O  O427  1  0.37303667  0.37796010  0.60896540  1
  O  O428  1  0.37340439  0.86773363  0.11430983  1
  O  O429  1  0.37074762  0.86910190  0.61741024  1
  O  O430  1  0.86873254  0.36872436  0.12562968  1
  O  O431  1  0.87059607  0.36878188  0.62110871  1
  O  O432  1  0.87163165  0.86947558  0.12118257  1
  O  O433  1  0.86866789  0.86975017  0.62182355  1
  O  O434  1  0.12338228  0.13667733  0.37501723  1
  O  O435  1  0.12941513  0.12852409  0.87960241  1
  O  O436  1  0.13671589  0.63113799  0.37515855  1
  O  O437  1  0.12393587  0.61826870  0.88931212  1
  O  O438  1  0.62823280  0.13392639  0.38331521  1
  O  O439  1  0.63047560  0.13103095  0.87909748  1
  O  O440  1  0.63272484  0.63673498  0.37694545  1
  O  O441  1  0.62559454  0.63155593  0.88239792  1
