# generated using pymatgen
data_V93Zn93O256
_symmetry_space_group_name_H-M   'P 1'
_cell_length_a   17.04856795
_cell_length_b   17.04838001
_cell_length_c   17.04884534
_cell_angle_alpha   89.89838094
_cell_angle_beta   90.00276618
_cell_angle_gamma   89.92086773
_symmetry_Int_Tables_number   1
_chemical_formula_structural   V93Zn93O256
_chemical_formula_sum   'V93 Zn93 O256'
_cell_volume   4955.24230134
_cell_formula_units_Z   1
loop_
 _symmetry_equiv_pos_site_id
 _symmetry_equiv_pos_as_xyz
  1  'x, y, z'
loop_
 _atom_site_type_symbol
 _atom_site_label
 _atom_site_symmetry_multiplicity
 _atom_site_fract_x
 _atom_site_fract_y
 _atom_site_fract_z
 _atom_site_occupancy
  V  V0  1  0.74944027  0.12617224  0.37444604  1
  V  V1  1  0.74596121  0.37540649  0.62772146  1
  V  V2  1  0.12504786  0.24974939  0.37569468  1
  V  V3  1  0.25006521  0.37355067  0.62481905  1
  V  V4  1  0.12489763  0.37237062  0.75324721  1
  V  V5  1  -0.00445235  0.62883581  0.12517374  1
  V  V6  1  -0.00044101  0.50032856  0.50047787  1
  V  V7  1  0.62519245  0.87402940  0.75067566  1
  V  V8  1  0.37792934  0.87528240  0.49746984  1
  V  V9  1  -0.00029579  0.25006717  0.24895696  1
  V  V10  1  0.49258085  0.37979912  0.37534650  1
  V  V11  1  0.37924359  -0.00430102  0.37252601  1
  V  V12  1  0.87488466  0.12464913  0.74930933  1
  V  V13  1  0.62494590  0.12530866  0.49938030  1
  V  V14  1  0.49258745  0.24999859  0.24361026  1
  V  V15  1  0.49279521  0.50093113  0.49630810  1
  V  V16  1  0.74800544  0.62662927  0.37574349  1
  V  V17  1  0.37529471  0.74960217  0.62496310  1
  V  V18  1  0.87318318  0.37551348  0.50037075  1
  V  V19  1  0.49800582  0.75894255  0.25435860  1
  V  V20  1  0.25157082  0.62456175  0.37571968  1
  V  V21  1  0.62231134  0.87791296  0.25136900  1
  V  V22  1  0.25017053  0.12492641  0.37469621  1
  V  V23  1  0.49946342  0.49966244  0.00167078  1
  V  V24  1  0.62397782  0.49684355  0.62797568  1
  V  V25  1  0.50145568  0.74951633  0.75054096  1
  V  V26  1  0.00004456  0.12402075  0.62363358  1
  V  V27  1  0.49916845  -0.00230913  0.49650056  1
  V  V28  1  -0.00019912  0.74813156  0.74979773  1
  V  V29  1  0.87418391  0.74953441  0.62556661  1
  V  V30  1  0.00728002  0.12499866  0.12084616  1
  V  V31  1  0.75039685  0.87386789  0.62525796  1
  V  V32  1  0.74550481  0.49514227  0.75132273  1
  V  V33  1  0.62433514  0.62606120  0.50050449  1
  V  V34  1  0.12502319  0.49906282  0.62506304  1
  V  V35  1  0.25177082  0.24613892  0.00859712  1
  V  V36  1  0.62685882  0.62565784  0.00160006  1
  V  V37  1  0.00535674  0.00397608  -0.00103971  1
  V  V38  1  0.24759656  -0.00072450  0.24924795  1
  V  V39  1  0.62585657  0.00073028  0.12414590  1
  V  V40  1  -0.00117420  0.37506752  0.37482363  1
  V  V41  1  0.37451114  0.75026580  0.12462681  1
  V  V42  1  0.00128418  0.49801223  0.00033234  1
  V  V43  1  0.50385829  0.25756690  0.74911514  1
  V  V44  1  0.24770798  0.87490592  0.12331211  1
  V  V45  1  0.12600220  0.62407482  -0.00008884  1
  V  V46  1  0.12628297  0.49965035  0.12679484  1
  V  V47  1  0.87449734  0.87494507  0.49981526  1
  V  V48  1  0.74980718  0.12556437  0.87468298  1
  V  V49  1  0.24964495  0.87541148  0.62478687  1
  V  V50  1  0.74839998  0.00131405  0.24909747  1
  V  V51  1  0.62448945  -0.00027098  0.62416381  1
  V  V52  1  0.49985870  0.62398239  0.62565376  1
  V  V53  1  0.87583750  -0.00078298  0.87480944  1
  V  V54  1  0.87397542  0.00060842  0.37319672  1
  V  V55  1  0.37505209  0.12495728  0.74843408  1
  V  V56  1  0.87456079  0.62422792  0.75075799  1
  V  V57  1  0.62467290  0.25608503  0.87122566  1
  V  V58  1  0.12325334  0.75264742  0.37385160  1
  V  V59  1  0.87377879  0.62749762  0.24902849  1
  V  V60  1  0.25089340  0.62309397  0.87714113  1
  V  V61  1  0.25099294  0.24981346  0.49895592  1
  V  V62  1  0.12549403  0.37678591  0.25037489  1
  V  V63  1  0.62519971  0.50197855  0.12648918  1
  V  V64  1  0.74830438  0.25023215  0.49981915  1
  V  V65  1  0.49973291  0.12610061  0.62310458  1
  V  V66  1  0.37568398  0.49481580  0.87788690  1
  V  V67  1  0.75039102  -0.00004611  0.74911047  1
  V  V68  1  0.37518180  0.62287782  0.25599562  1
  V  V69  1  0.00066461  0.24998691  0.75010910  1
  V  V70  1  0.37583023  -0.00162743  0.87283169  1
  V  V71  1  0.62629000  0.74951237  0.87723450  1
  V  V72  1  0.75076618  0.62439598  0.87645842  1
  V  V73  1  0.37482982  0.62402158  0.75162315  1
  V  V74  1  0.00174565  0.00014244  0.49838080  1
  V  V75  1  0.12643170  0.74766029  0.87458669  1
  V  V76  1  0.12418120  0.62465849  0.50146829  1
  V  V77  1  0.50116864  -0.00168917  -0.00097041  1
  V  V78  1  0.24990828  0.75027409  0.49996610  1
  V  V79  1  0.37549906  0.25063046  0.62243369  1
  V  V80  1  0.24405031  0.12584483  0.87729037  1
  V  V81  1  0.87329311  0.24846139  0.12426445  1
  V  V82  1  0.87379306  0.25019789  0.62492515  1
  V  V83  1  0.87347417  0.50113398  0.37565981  1
  V  V84  1  0.12529556  0.87464246  0.74901347  1
  V  V85  1  0.62501599  0.37590424  0.25230023  1
  V  V86  1  0.25204744  0.50139662  0.25410247  1
  V  V87  1  0.74831589  0.50131803  0.25172922  1
  V  V88  1  0.62071882  0.75674838  0.37609002  1
  V  V89  1  0.87655644  0.37492560  0.00032137  1
  V  V90  1  0.62629620  0.12455621  -0.00156136  1
  V  V91  1  0.87417515  0.86849530  0.00635404  1
  V  V92  1  -0.00482397  0.75074258  0.24773814  1
  Zn  Zn93  1  0.62273174  0.25023459  0.37510798  1
  Zn  Zn94  1  0.24892780  0.00131185  0.74857771  1
  Zn  Zn95  1  0.75293203  0.86797545  0.12992089  1
  Zn  Zn96  1  0.49421972  0.13360378  0.11706888  1
  Zn  Zn97  1  0.50127184  0.62727504  0.12781743  1
  Zn  Zn98  1  0.37569430  0.87247335  -0.00304058  1
  Zn  Zn99  1  0.12100542  0.87587080  0.24654712  1
  Zn  Zn100  1  0.50389470  0.37648334  0.87325408  1
  Zn  Zn101  1  0.38215387  0.36119259  0.01273461  1
  Zn  Zn102  1  0.25636794  0.36960583  0.12780914  1
  Zn  Zn103  1  0.87423784  0.12412575  0.24820422  1
  Zn  Zn104  1  0.74771573  0.25177088  -0.00029241  1
  Zn  Zn105  1  0.87659198  0.49786411  0.87448522  1
  Zn  Zn106  1  0.12821607  0.00263143  0.11814185  1
  Zn  Zn107  1  0.37198382  0.37925359  0.49708643  1
  Zn  Zn108  1  -0.00121014  0.62375675  0.62542788  1
  Zn  Zn109  1  0.25024025  0.74952571  0.00034399  1
  Zn  Zn110  1  0.12229350  0.24310027  0.88229490  1
  Zn  Zn111  1  -0.00200841  0.87645472  0.37153133  1
  Zn  Zn112  1  0.50012364  0.87293830  0.87399936  1
  Zn  Zn113  1  0.24979266  0.49771998  0.75183790  1
  Zn  Zn114  1  0.75030721  0.37485146  0.12605614  1
  Zn  Zn115  1  0.00149005  0.37240027  0.87643908  1
  Zn  Zn116  1  0.00035020  0.87428665  0.87623880  1
  Zn  Zn117  1  0.75531165  0.74476478  0.00935450  1
  Zn  Zn118  1  0.74955984  0.75078251  0.49980473  1
  Zn  Zn119  1  0.36993967  0.13108218  0.24305414  1
  Zn  Zn120  1  0.12568274  0.12515424  0.50151491  1
  Zn  Zn121  1  0.12717471  0.00123124  0.62382542  1
  Zn  Zn122  1  0.18599371  0.18655619  0.18852044  1
  Zn  Zn123  1  0.18763681  0.18624290  0.68761999  1
  Zn  Zn124  1  0.18545914  0.68690763  0.18729189  1
  Zn  Zn125  1  0.18858586  0.68564566  0.68847864  1
  Zn  Zn126  1  0.68385298  0.18708367  0.18642267  1
  Zn  Zn127  1  0.68651425  0.18740861  0.68720624  1
  Zn  Zn128  1  0.68769629  0.69065560  0.18648116  1
  Zn  Zn129  1  0.68851698  0.68511730  0.68878006  1
  Zn  Zn130  1  0.31253381  0.31529458  0.31358739  1
  Zn  Zn131  1  0.31259567  0.30956085  0.81457656  1
  Zn  Zn132  1  0.31101546  0.81450512  0.31197003  1
  Zn  Zn133  1  0.31141746  0.81106651  0.81193384  1
  Zn  Zn134  1  0.81175392  0.31185082  0.31268685  1
  Zn  Zn135  1  0.81275115  0.31221056  0.81379282  1
  Zn  Zn136  1  0.80996798  0.81427490  0.31290052  1
  Zn  Zn137  1  0.81271088  0.81173237  0.81679094  1
  Zn  Zn138  1  0.18724732  0.43712703  0.43713532  1
  Zn  Zn139  1  0.19126334  0.43218006  0.94107924  1
  Zn  Zn140  1  0.18882406  0.93700021  0.43661534  1
  Zn  Zn141  1  0.18932067  0.93576923  0.93548377  1
  Zn  Zn142  1  0.68322490  0.43896308  0.43965832  1
  Zn  Zn143  1  0.69000777  0.43765282  0.93955726  1
  Zn  Zn144  1  0.68837197  0.93806455  0.43719082  1
  Zn  Zn145  1  0.68989772  0.93607290  0.93619244  1
  Zn  Zn146  1  0.31631691  0.06629876  0.06184177  1
  Zn  Zn147  1  0.31191753  0.06246923  0.56108956  1
  Zn  Zn148  1  0.31350306  0.56144531  0.06620891  1
  Zn  Zn149  1  0.30997857  0.56286821  0.56495669  1
  Zn  Zn150  1  0.81406027  0.06015857  0.06100714  1
  Zn  Zn151  1  0.81310698  0.06166949  0.56124250  1
  Zn  Zn152  1  0.81263459  0.56057299  0.06454800  1
  Zn  Zn153  1  0.81089875  0.56386279  0.56395367  1
  Zn  Zn154  1  0.43686368  0.43848599  0.18715823  1
  Zn  Zn155  1  0.43537725  0.43768974  0.68638487  1
  Zn  Zn156  1  0.43502469  0.94160733  0.18330640  1
  Zn  Zn157  1  0.43825659  0.93665956  0.68536399  1
  Zn  Zn158  1  0.93775054  0.43889018  0.18706108  1
  Zn  Zn159  1  0.93636307  0.43763075  0.68768334  1
  Zn  Zn160  1  0.93762008  0.93969608  0.18631778  1
  Zn  Zn161  1  0.93898349  0.93598645  0.68628499  1
  Zn  Zn162  1  0.06266849  0.06520760  0.31086473  1
  Zn  Zn163  1  0.06096075  0.06029042  0.81095250  1
  Zn  Zn164  1  0.06309297  0.56400868  0.31381535  1
  Zn  Zn165  1  0.06135040  0.55936932  0.81340000  1
  Zn  Zn166  1  0.56286757  0.06498763  0.31306850  1
  Zn  Zn167  1  0.56253731  0.06567706  0.81147626  1
  Zn  Zn168  1  0.56066197  0.56670534  0.31420733  1
  Zn  Zn169  1  0.56357632  0.56355867  0.81453220  1
  Zn  Zn170  1  0.43637347  0.18768714  0.43183122  1
  Zn  Zn171  1  0.43574331  0.18515417  0.93468368  1
  Zn  Zn172  1  0.43829658  0.68852265  0.43755993  1
  Zn  Zn173  1  0.43960154  0.68445002  0.93788650  1
  Zn  Zn174  1  0.93585282  0.18647518  0.43683207  1
  Zn  Zn175  1  0.93855767  0.18734063  0.93685303  1
  Zn  Zn176  1  0.93686815  0.68781591  0.43773832  1
  Zn  Zn177  1  0.93983173  0.68614398  0.93449878  1
  Zn  Zn178  1  0.06855696  0.31088723  0.06213248  1
  Zn  Zn179  1  0.06297952  0.31206212  0.56318118  1
  Zn  Zn180  1  0.06169624  0.81306632  0.06047888  1
  Zn  Zn181  1  0.06006219  0.81292730  0.56327911  1
  Zn  Zn182  1  0.56555529  0.31491011  0.06182755  1
  Zn  Zn183  1  0.56281368  0.31480682  0.56113660  1
  Zn  Zn184  1  0.56436594  0.81402273  0.06472681  1
  Zn  Zn185  1  0.56133232  0.81383935  0.56259323  1
  O  O186  1  0.11088640  0.12358994  0.12730503  1
  O  O187  1  0.11637985  0.12179296  0.62261688  1
  O  O188  1  0.11568475  0.61980842  0.12055094  1
  O  O189  1  0.12418001  0.61831256  0.61867730  1
  O  O190  1  0.61940274  0.11915615  0.11641781  1
  O  O191  1  0.62005473  0.11862781  0.61890527  1
  O  O192  1  0.62297547  0.61856755  0.12052920  1
  O  O193  1  0.61884862  0.61903270  0.62030787  1
  O  O194  1  0.38840192  0.37624858  0.37633552  1
  O  O195  1  0.37732144  0.38771224  0.87652740  1
  O  O196  1  0.36750341  0.88634830  0.38230853  1
  O  O197  1  0.37631858  0.88505273  0.87466933  1
  O  O198  1  0.87915548  0.38119563  0.38032576  1
  O  O199  1  0.87770942  0.37400509  0.88851421  1
  O  O200  1  0.87540962  0.88275666  0.38170339  1
  O  O201  1  0.87755315  0.88247889  0.88309091  1
  O  O202  1  0.25646714  0.00409159  0.36776414  1
  O  O203  1  0.26066002  0.00605190  0.87449717  1
  O  O204  1  0.24221165  0.50832266  0.36272811  1
  O  O205  1  0.26039975  0.50443883  0.87647772  1
  O  O206  1  0.75411073  0.00696753  0.36960631  1
  O  O207  1  0.75513919  0.00619298  0.86742636  1
  O  O208  1  0.75337804  0.50644764  0.37140901  1
  O  O209  1  0.75086709  0.50478425  0.86666135  1
  O  O210  1  0.24198591  0.50594906  0.14036005  1
  O  O211  1  0.24326408  0.49220744  0.62708379  1
  O  O212  1  0.24938709  0.99249008  0.13127822  1
  O  O213  1  0.24835907  0.99156081  0.62690859  1
  O  O214  1  0.74355054  0.49860124  0.13506034  1
  O  O215  1  0.74427252  0.49576513  0.63257281  1
  O  O216  1  0.74286445  0.99953414  0.13159765  1
  O  O217  1  0.74456080  0.99479617  0.62984901  1
  O  O218  1  0.00499263  0.37102036  0.25581161  1
  O  O219  1  0.00814189  0.36858423  0.74944526  1
  O  O220  1  0.00148510  0.86503156  0.24981554  1
  O  O221  1  0.00967236  0.86798926  0.75061165  1
  O  O222  1  0.50620541  0.37107294  0.25688034  1
  O  O223  1  0.49642351  0.36114861  0.75046200  1
  O  O224  1  0.50293327  0.86474780  0.24559884  1
  O  O225  1  0.50764050  0.86739729  0.74891680  1
  O  O226  1  0.50427766  0.14557521  0.25285706  1
  O  O227  1  0.49468173  0.13333628  0.74230597  1
  O  O228  1  0.49064819  0.63600209  0.25043664  1
  O  O229  1  0.49524824  0.62975472  0.74447294  1
  O  O230  1  0.99661773  0.13164006  0.24001970  1
  O  O231  1  0.99357210  0.12919377  0.74355084  1
  O  O232  1  0.99515533  0.63094015  0.24395862  1
  O  O233  1  0.99339605  0.62965280  0.74864940  1
  O  O234  1  0.36095886  0.24856529  -0.00829842  1
  O  O235  1  0.36932029  0.25154695  0.50481492  1
  O  O236  1  0.37572281  0.74882380  0.01282746  1
  O  O237  1  0.37012409  0.75437233  0.50507241  1
  O  O238  1  0.87569277  0.25765843  0.00889683  1
  O  O239  1  0.86866401  0.25585671  0.50526154  1
  O  O240  1  0.87870104  0.76571361  -0.00630292  1
  O  O241  1  0.87328630  0.75647647  0.50570981  1
  O  O242  1  0.13154611  0.24981905  0.49280504  1
  O  O243  1  0.14249559  0.25323836  0.99639611  1
  O  O244  1  0.12898847  0.74559751  0.49285964  1
  O  O245  1  0.12549022  0.74208308  0.99290881  1
  O  O246  1  0.63107628  0.24334192  0.49943730  1
  O  O247  1  0.62482240  0.24295407  0.99124075  1
  O  O248  1  0.62338464  0.74568739  0.49162655  1
  O  O249  1  0.62355597  0.74282792  0.99430435  1
  O  O250  1  0.50476615  0.25450697  0.14013343  1
  O  O251  1  0.49691407  0.24572619  0.63021677  1
  O  O252  1  0.49073888  0.74977731  0.13522844  1
  O  O253  1  0.49488601  0.74320246  0.62995474  1
  O  O254  1  0.99377557  0.24368026  0.12813158  1
  O  O255  1  0.99248770  0.24461378  0.62894821  1
  O  O256  1  1.00770654  0.73905020  0.13566031  1
  O  O257  1  0.99224237  0.74754337  0.63153019  1
  O  O258  1  0.00329267  0.25544945  0.36960777  1
  O  O259  1  0.00438915  0.25023083  0.86664789  1
  O  O260  1  0.00866686  0.74965439  0.36722069  1
  O  O261  1  0.00894443  0.75087670  0.86698809  1
  O  O262  1  0.50330654  0.26163723  0.36632548  1
  O  O263  1  0.50735223  0.24959239  0.86578264  1
  O  O264  1  0.50919943  0.74643597  0.36609865  1
  O  O265  1  0.50669200  0.74966528  0.86803380  1
  O  O266  1  0.24819758  0.13148676  0.49244639  1
  O  O267  1  0.25517245  0.13399062  0.98968093  1
  O  O268  1  0.24489379  0.63078983  0.49560016  1
  O  O269  1  0.24322483  0.62511359  0.99594894  1
  O  O270  1  0.74477373  0.13014355  0.49568681  1
  O  O271  1  0.74448764  0.12552690  0.99193574  1
  O  O272  1  0.74176952  0.62681910  0.49387569  1
  O  O273  1  0.74495091  0.62258800  0.99441016  1
  O  O274  1  0.25543830  0.35935957  0.00200257  1
  O  O275  1  0.25169465  0.36920636  0.50491733  1
  O  O276  1  0.25365117  0.87254321  0.01057715  1
  O  O277  1  0.25594961  0.86868207  0.50522530  1
  O  O278  1  0.76190488  0.37334772  0.00511813  1
  O  O279  1  0.75458429  0.37091193  0.50531965  1
  O  O280  1  0.76606248  0.87627114  -0.00045642  1
  O  O281  1  0.75625637  0.87473350  0.50774461  1
  O  O282  1  0.13134453  0.49685954  0.24692950  1
  O  O283  1  0.12561770  0.48929212  0.74397736  1
  O  O284  1  0.13722125  0.99711286  0.24955768  1
  O  O285  1  0.12537661  0.98568310  0.74764710  1
  O  O286  1  0.62720802  0.49460202  0.24762147  1
  O  O287  1  0.63698330  0.50650534  0.74422579  1
  O  O288  1  0.62714850  0.99674173  0.24523421  1
  O  O289  1  0.63001940  0.99573865  0.74369172  1
  O  O290  1  0.36332321  -0.00492006  0.25871175  1
  O  O291  1  0.37673208  0.00508595  0.75781476  1
  O  O292  1  0.36655394  0.51467069  0.24701036  1
  O  O293  1  0.37568080  0.50551764  0.76065958  1
  O  O294  1  0.86756056  0.00137031  0.25542670  1
  O  O295  1  0.87052972  0.00477187  0.75364424  1
  O  O296  1  0.86934088  0.50595611  0.25675514  1
  O  O297  1  0.86486552  0.50564149  0.75063987  1
  O  O298  1  0.11769400  0.36979313  0.36988732  1
  O  O299  1  0.12560528  0.37335105  0.86185057  1
  O  O300  1  0.12403532  0.86180427  0.37312106  1
  O  O301  1  0.12590690  0.86726489  0.86428186  1
  O  O302  1  0.61566238  0.37657256  0.36598569  1
  O  O303  1  0.62562959  0.35995621  0.88030113  1
  O  O304  1  0.62874086  0.86400233  0.36985358  1
  O  O305  1  0.62514793  0.86835733  0.86738410  1
  O  O306  1  0.38626635  0.11105268  0.13446532  1
  O  O307  1  0.38067094  0.13084950  0.62823343  1
  O  O308  1  0.37440867  0.63601041  0.13709543  1
  O  O309  1  0.37976621  0.63042231  0.63109513  1
  O  O310  1  0.88333093  0.13499964  0.12477956  1
  O  O311  1  0.87905802  0.13051494  0.63004585  1
  O  O312  1  0.88865042  0.61868640  0.13152961  1
  O  O313  1  0.87500815  0.63154749  0.63194336  1
  O  O314  1  0.24921097  0.24425556  0.11237304  1
  O  O315  1  0.25584200  0.25384556  0.61871728  1
  O  O316  1  0.25792158  0.75723414  0.12720347  1
  O  O317  1  0.25606314  0.75398370  0.61911261  1
  O  O318  1  0.76124095  0.25114992  0.12380763  1
  O  O319  1  0.75454773  0.25474877  0.62050557  1
  O  O320  1  0.75043957  0.75461783  0.12205687  1
  O  O321  1  0.75541188  0.75630424  0.62436681  1
  O  O322  1  0.24549186  0.24550396  0.37835815  1
  O  O323  1  0.24804785  0.23907321  0.87967798  1
  O  O324  1  0.24122685  0.74565752  0.37990848  1
  O  O325  1  0.24540927  0.74144411  0.87760695  1
  O  O326  1  0.74789996  0.24490065  0.38218011  1
  O  O327  1  0.74147364  0.24330565  0.87420258  1
  O  O328  1  0.73813009  0.74443047  0.37526478  1
  O  O329  1  0.74356747  0.74174253  0.87958772  1
  O  O330  1  -0.00708587  0.11503862  0.00858778  1
  O  O331  1  -0.00080209  0.11554916  0.50435507  1
  O  O332  1  0.00457105  0.61982682  0.00810643  1
  O  O333  1  0.00617822  0.61793598  0.50067569  1
  O  O334  1  0.50722544  0.11381073  -0.00389877  1
  O  O335  1  0.50490136  0.11969700  0.50379002  1
  O  O336  1  0.50770557  0.61436510  0.00249586  1
  O  O337  1  0.50394749  0.61905113  0.50512740  1
  O  O338  1  0.49941522  0.38421822  0.49195751  1
  O  O339  1  0.49994116  0.38785034  0.99776541  1
  O  O340  1  0.49073461  0.88486967  0.50717782  1
  O  O341  1  0.49940396  0.88616175  0.99576726  1
  O  O342  1  0.99307539  0.37980362  0.49455143  1
  O  O343  1  0.99324194  0.37918462  1.00205715  1
  O  O344  1  0.99386513  0.88464018  0.49800285  1
  O  O345  1  0.98993423  0.88273570  0.99858084  1
  O  O346  1  0.50619915  0.49406638  0.38618091  1
  O  O347  1  0.49455905  0.49937372  0.88343452  1
  O  O348  1  0.48696863  1.00633793  0.37887690  1
  O  O349  1  0.49297741  0.99968256  0.88042097  1
  O  O350  1  0.99393740  0.49516465  0.38002592  1
  O  O351  1  0.99718863  0.49522329  0.88495119  1
  O  O352  1  0.99438312  1.00032794  0.38215198  1
  O  O353  1  0.99355046  0.99979288  0.88252090  1
  O  O354  1  0.00144728  0.00886766  0.11770077  1
  O  O355  1  -0.00082408  0.00501077  0.61372235  1
  O  O356  1  0.00703833  0.50866500  0.12170912  1
  O  O357  1  0.00608644  0.50013862  0.61757666  1
  O  O358  1  0.50807481  -0.00243972  0.11220953  1
  O  O359  1  0.50497833  0.00712869  0.61852604  1
  O  O360  1  0.50628486  0.50385617  0.11708345  1
  O  O361  1  0.50471436  0.50481271  0.61926234  1
  O  O362  1  0.24411454  0.38566100  0.25250837  1
  O  O363  1  0.24123965  0.37375856  0.74392638  1
  O  O364  1  0.24731704  0.88217550  0.24064370  1
  O  O365  1  0.24059063  0.87390713  0.74331050  1
  O  O366  1  0.73982247  0.38191865  0.25244059  1
  O  O367  1  0.75724408  0.38680320  0.74403697  1
  O  O368  1  0.74154861  0.88416887  0.25059615  1
  O  O369  1  0.74523432  0.88071631  0.74506800  1
  O  O370  1  0.24948087  0.11518868  0.25505774  1
  O  O371  1  0.25845330  0.12350279  0.75662031  1
  O  O372  1  0.25570549  0.62082795  0.25569849  1
  O  O373  1  0.25714185  0.62163833  0.75778256  1
  O  O374  1  0.74938150  0.11960042  0.25630186  1
  O  O375  1  0.75582225  0.11885568  0.75328905  1
  O  O376  1  0.75397856  0.62058601  0.25667776  1
  O  O377  1  0.75527498  0.61574923  0.75605484  1
  O  O378  1  0.36782873  0.11431956  0.36870474  1
  O  O379  1  0.36801426  0.11470739  0.86766947  1
  O  O380  1  0.36714191  0.63532987  0.36390315  1
  O  O381  1  0.37122966  0.61625628  0.87077944  1
  O  O382  1  0.86723707  0.11893968  0.37235823  1
  O  O383  1  0.86948911  0.12028143  0.86818383  1
  O  O384  1  0.86854456  0.61980276  0.37016938  1
  O  O385  1  0.86841278  0.62197667  0.86944474  1
  O  O386  1  0.12983802  0.38191743  0.13391254  1
  O  O387  1  0.13007743  0.37875670  0.63284511  1
  O  O388  1  0.13634704  0.87531378  0.12587913  1
  O  O389  1  0.13086877  0.87339242  0.63354675  1
  O  O390  1  0.62650851  0.38257790  0.13693644  1
  O  O391  1  0.63329108  0.38433705  0.61916184  1
  O  O392  1  0.62688310  0.88385156  0.13325929  1
  O  O393  1  0.63047771  0.88044345  0.63048685  1
  O  O394  1  0.11967774  0.25688669  0.25575521  1
  O  O395  1  0.11859355  0.25927998  0.74799185  1
  O  O396  1  0.11522276  0.74777517  0.25946382  1
  O  O397  1  0.12081023  0.75594324  0.75388896  1
  O  O398  1  0.61779632  0.26286041  0.25173762  1
  O  O399  1  0.61485836  0.24210667  0.75866721  1
  O  O400  1  0.61535938  0.75571746  0.25753563  1
  O  O401  1  0.62072085  0.75351664  0.75581906  1
  O  O402  1  0.38957986  0.25264751  0.25385196  1
  O  O403  1  0.38392768  0.24414482  0.74387620  1
  O  O404  1  0.38012989  0.74602906  0.24461966  1
  O  O405  1  0.38106377  0.74432713  0.74447259  1
  O  O406  1  0.88098672  0.25143313  0.23983960  1
  O  O407  1  0.87970621  0.24461701  0.74413722  1
  O  O408  1  0.88758917  0.74398712  0.25957072  1
  O  O409  1  0.87949274  0.74467753  0.74606281  1
  O  O410  1  0.38902976  0.50085093  0.50659369  1
  O  O411  1  0.38566995  0.50663039  0.99179840  1
  O  O412  1  0.37890309  0.99584097  0.49109921  1
  O  O413  1  0.38519258  0.99953683  0.98871369  1
  O  O414  1  0.87843719  0.49539738  0.49500162  1
  O  O415  1  0.88195545  0.48905974  1.00279708  1
  O  O416  1  0.88293756  0.99553281  0.49439669  1
  O  O417  1  0.88416661  0.99197548  0.99383459  1
  O  O418  1  0.10939166  -0.00819261  -0.00154918  1
  O  O419  1  0.11319440  0.00020898  0.49908218  1
  O  O420  1  0.12128590  0.50365833  0.00640179  1
  O  O421  1  0.11933681  0.50459256  0.50436142  1
  O  O422  1  0.61920995  0.00402655  0.00165560  1
  O  O423  1  0.61955234  0.00477648  0.50473530  1
  O  O424  1  0.61831016  0.50426416  0.00536181  1
  O  O425  1  0.61503872  0.50714487  0.50738701  1
  O  O426  1  0.36699700  0.38597785  0.12144154  1
  O  O427  1  0.36805072  0.36802255  0.62307769  1
  O  O428  1  0.36553510  0.86582845  0.12451705  1
  O  O429  1  0.36927654  0.86822112  0.61951238  1
  O  O430  1  0.87625511  0.36564445  0.11831899  1
  O  O431  1  0.86772979  0.36936482  0.61905206  1
  O  O432  1  0.87534779  0.88052785  0.10908999  1
  O  O433  1  0.86923301  0.86957854  0.62043755  1
  O  O434  1  0.13162707  0.13295897  0.37611610  1
  O  O435  1  0.14012080  0.12213279  0.86573429  1
  O  O436  1  0.13009110  0.63480332  0.38094646  1
  O  O437  1  0.13102233  0.62739194  0.87993859  1
  O  O438  1  0.63179984  0.12673941  0.38280287  1
  O  O439  1  0.63085702  0.13280626  0.87904989  1
  O  O440  1  0.62872083  0.63533595  0.38005037  1
  O  O441  1  0.63157194  0.62982847  0.88162789  1
