# generated using pymatgen
data_V93Zn93O256
_symmetry_space_group_name_H-M   'P 1'
_cell_length_a   17.06805007
_cell_length_b   17.05934824
_cell_length_c   17.06899138
_cell_angle_alpha   89.95212101
_cell_angle_beta   89.95578397
_cell_angle_gamma   90.01505119
_symmetry_Int_Tables_number   1
_chemical_formula_structural   V93Zn93O256
_chemical_formula_sum   'V93 Zn93 O256'
_cell_volume   4969.97158995
_cell_formula_units_Z   1
loop_
 _symmetry_equiv_pos_site_id
 _symmetry_equiv_pos_as_xyz
  1  'x, y, z'
loop_
 _atom_site_type_symbol
 _atom_site_label
 _atom_site_symmetry_multiplicity
 _atom_site_fract_x
 _atom_site_fract_y
 _atom_site_fract_z
 _atom_site_occupancy
  V  V0  1  0.12375117  0.38011976  0.74931562  1
  V  V1  1  0.62627001  0.75160076  0.87499529  1
  V  V2  1  0.24513869  0.38166597  0.62646110  1
  V  V3  1  -0.00227109  0.12377591  0.12630044  1
  V  V4  1  0.87463049  0.37407143  -0.00060450  1
  V  V5  1  0.75065720  0.87341232  0.62501222  1
  V  V6  1  0.37453168  0.12565623  0.24964600  1
  V  V7  1  0.00039172  0.87354816  0.87470250  1
  V  V8  1  0.12052921  0.25286129  0.37423411  1
  V  V9  1  0.37337691  0.62421584  0.24844221  1
  V  V10  1  0.74902778  0.37448146  0.12452491  1
  V  V11  1  0.12494330  0.62482268  0.00071272  1
  V  V12  1  0.12446310  0.87412824  0.25169287  1
  V  V13  1  0.37346803  0.49930006  0.37334904  1
  V  V14  1  0.37523955  0.00024924  0.87461958  1
  V  V15  1  0.12552892  0.61764649  0.50330658  1
  V  V16  1  0.24948280  -0.00010243  0.74875032  1
  V  V17  1  0.62632436  0.87519816  0.74931968  1
  V  V18  1  0.87549973  0.00082566  0.87460108  1
  V  V19  1  0.00028318  -0.00137734  0.00087586  1
  V  V20  1  0.37372576  0.24982748  0.12377331  1
  V  V21  1  0.00063116  0.74918107  0.75009936  1
  V  V22  1  0.24991013  -0.00012049  0.25015202  1
  V  V23  1  0.50017926  0.87628234  0.87523856  1
  V  V24  1  0.62373234  0.62542993  0.00043482  1
  V  V25  1  0.62616235  0.74973124  0.37568236  1
  V  V26  1  0.49920365  0.50291155  0.49972484  1
  V  V27  1  0.87171841  0.25695749  0.62132841  1
  V  V28  1  0.24915101  0.25039916  0.50015192  1
  V  V29  1  0.87450970  0.74902282  0.12601636  1
  V  V30  1  0.12466621  0.00000121  0.12549810  1
  V  V31  1  0.25031012  0.25066835  -0.00039349  1
  V  V32  1  0.62586699  0.25091795  0.37577532  1
  V  V33  1  0.37491885  0.87567231  -0.00055093  1
  V  V34  1  0.24894645  0.74935427  0.49996054  1
  V  V35  1  0.12399846  0.74976984  0.87513638  1
  V  V36  1  0.49964179  0.25058311  0.25016413  1
  V  V37  1  0.12014885  0.25004247  0.86941312  1
  V  V38  1  0.87494880  0.00415825  0.37351513  1
  V  V39  1  0.24800889  0.87618515  0.62495706  1
  V  V40  1  0.62635700  -0.00048856  0.12550252  1
  V  V41  1  0.12482631  0.12508137  -0.00059512  1
  V  V42  1  0.74300927  0.49037516  0.74802282  1
  V  V43  1  -0.00094252  0.49934176  -0.00001856  1
  V  V44  1  0.37424948  0.24907764  0.62458375  1
  V  V45  1  0.00010258  0.87282674  0.37599010  1
  V  V46  1  -0.00003393  0.12920575  0.62888004  1
  V  V47  1  0.75050791  0.75048377  0.00146552  1
  V  V48  1  0.87909901  0.12971118  0.75136698  1
  V  V49  1  0.24968685  0.12538500  0.37526690  1
  V  V50  1  0.75074108  0.62524332  0.87537338  1
  V  V51  1  0.75046097  0.74732206  0.49979482  1
  V  V52  1  0.00019674  0.37216684  0.87209201  1
  V  V53  1  -0.00127731  0.62398222  0.12642841  1
  V  V54  1  0.50016613  0.87628107  0.37588927  1
  V  V55  1  0.75129005  0.49795908  0.25318879  1
  V  V56  1  0.75219178  0.12833942  0.37614447  1
  V  V57  1  0.37213278  0.37518886  0.49762464  1
  V  V58  1  0.87559345  0.74866966  0.62521537  1
  V  V59  1  0.62725154  0.12912057  0.50028187  1
  V  V60  1  0.12254904  0.12319447  0.50188820  1
  V  V61  1  0.87495392  0.62090509  0.25330580  1
  V  V62  1  0.25010037  0.62446917  0.87476965  1
  V  V63  1  0.50060177  0.74974954  0.74910121  1
  V  V64  1  0.87518197  0.87414739  0.00180589  1
  V  V65  1  0.62546417  -0.00003409  0.62342932  1
  V  V66  1  0.50028436  0.12535458  0.12426105  1
  V  V67  1  0.74923641  0.24899753  -0.00099013  1
  V  V68  1  0.62448962  0.49952420  0.12387957  1
  V  V69  1  0.37467365  0.37466360  -0.00064933  1
  V  V70  1  0.24891549  0.62520995  0.37552341  1
  V  V71  1  0.49886952  0.49986618  -0.00115027  1
  V  V72  1  0.87498687  0.49893165  0.87582238  1
  V  V73  1  0.75328345  0.00292124  0.25054421  1
  V  V74  1  0.37480000  0.75075693  0.62476672  1
  V  V75  1  0.75184960  0.62082197  0.37641216  1
  V  V76  1  0.24963365  0.12535128  0.87391219  1
  V  V77  1  0.37609222  0.00014501  0.37479487  1
  V  V78  1  0.50454015  0.37426379  0.87049241  1
  V  V79  1  0.87511076  0.62391456  0.75024806  1
  V  V80  1  -0.00670214  0.49303279  0.49544856  1
  V  V81  1  0.00369303  0.61746597  0.62510561  1
  V  V82  1  0.50075775  0.74866547  0.24878915  1
  V  V83  1  0.87481854  0.24365458  0.12792016  1
  V  V84  1  0.12613026  0.49700774  0.12663451  1
  V  V85  1  -0.00236561  0.24478605  0.25014828  1
  V  V86  1  0.37460536  0.62324870  0.75041631  1
  V  V87  1  0.87521951  0.87419663  0.50018020  1
  V  V88  1  0.37487810  0.12647098  0.74884953  1
  V  V89  1  0.25061808  0.87498313  0.12494850  1
  V  V90  1  0.25009938  0.75108191  0.00035936  1
  V  V91  1  0.50671145  0.25378552  0.74736523  1
  V  V92  1  0.62534774  0.12679104  -0.00466650  1
  Zn  Zn93  1  0.24779060  0.49714502  0.25052209  1
  Zn  Zn94  1  -0.00955869  0.38211342  0.36671673  1
  Zn  Zn95  1  0.62957614  0.25366190  0.86703568  1
  Zn  Zn96  1  0.12418346  0.74817995  0.37442122  1
  Zn  Zn97  1  0.12409783  0.87564343  0.75001220  1
  Zn  Zn98  1  0.49869575  0.00083301  0.50015881  1
  Zn  Zn99  1  0.37575774  0.75018688  0.12353852  1
  Zn  Zn100  1  0.49940972  0.37547568  0.37349519  1
  Zn  Zn101  1  0.62317959  0.37467792  0.24981711  1
  Zn  Zn102  1  0.00010214  0.74848130  0.25108176  1
  Zn  Zn103  1  0.37292300  0.49779434  0.87439186  1
  Zn  Zn104  1  0.37403415  0.87619974  0.49938627  1
  Zn  Zn105  1  0.75169914  0.00000295  0.75187837  1
  Zn  Zn106  1  0.50035892  0.00021379  -0.00031804  1
  Zn  Zn107  1  0.49873801  0.62496099  0.12285630  1
  Zn  Zn108  1  0.61691437  0.49506229  0.63035156  1
  Zn  Zn109  1  0.62692808  0.87450756  0.24949528  1
  Zn  Zn110  1  0.50000844  0.12481137  0.62421194  1
  Zn  Zn111  1  0.72730594  0.36009335  0.61924416  1
  Zn  Zn112  1  0.24762727  0.50242417  0.74843763  1
  Zn  Zn113  1  0.85266149  0.36900021  0.48386540  1
  Zn  Zn114  1  0.75106077  0.87445143  0.12774171  1
  Zn  Zn115  1  0.25006979  0.37483073  0.12611406  1
  Zn  Zn116  1  -0.00149982  -0.00029768  0.50191442  1
  Zn  Zn117  1  0.12492655  0.37377342  0.24792748  1
  Zn  Zn118  1  0.12147121  -0.00064765  0.62736606  1
  Zn  Zn119  1  0.75085739  0.12528732  0.87240054  1
  Zn  Zn120  1  0.50191778  0.62604631  0.62405308  1
  Zn  Zn121  1  0.62440435  0.62359329  0.50459294  1
  Zn  Zn122  1  0.18628476  0.18711727  0.18716885  1
  Zn  Zn123  1  0.18793862  0.19089708  0.68745636  1
  Zn  Zn124  1  0.18660387  0.68881740  0.18804252  1
  Zn  Zn125  1  0.18675362  0.68840365  0.68722163  1
  Zn  Zn126  1  0.68785846  0.18529953  0.18926004  1
  Zn  Zn127  1  0.69246666  0.18331586  0.68769172  1
  Zn  Zn128  1  0.68672019  0.68566921  0.18704301  1
  Zn  Zn129  1  0.68631347  0.68113494  0.68649169  1
  Zn  Zn130  1  0.30886232  0.31433314  0.31035704  1
  Zn  Zn131  1  0.31347147  0.31275095  0.81172917  1
  Zn  Zn132  1  0.31300591  0.81132801  0.31340437  1
  Zn  Zn133  1  0.31250576  0.81193441  0.81186170  1
  Zn  Zn134  1  0.81224911  0.31134640  0.30971365  1
  Zn  Zn135  1  0.81410306  0.30942196  0.81081484  1
  Zn  Zn136  1  0.81286285  0.81233405  0.31192785  1
  Zn  Zn137  1  0.81363664  0.81314734  0.81259302  1
  Zn  Zn138  1  0.18509314  0.43848229  0.43762574  1
  Zn  Zn139  1  0.18888361  0.43801093  0.93702827  1
  Zn  Zn140  1  0.18787420  0.93764891  0.43817435  1
  Zn  Zn141  1  0.18752819  0.93709234  0.93642222  1
  Zn  Zn142  1  0.68491396  0.43527411  0.44127183  1
  Zn  Zn143  1  0.68655492  0.43756579  0.93676797  1
  Zn  Zn144  1  0.68718670  0.93745355  0.43848013  1
  Zn  Zn145  1  0.69052286  0.93833746  0.93818248  1
  Zn  Zn146  1  0.31229698  0.06244617  0.06110562  1
  Zn  Zn147  1  0.31298491  0.06150173  0.56134115  1
  Zn  Zn148  1  0.31268444  0.56231909  0.06225302  1
  Zn  Zn149  1  0.31466424  0.56316668  0.56261741  1
  Zn  Zn150  1  0.81111322  0.06241056  0.06048461  1
  Zn  Zn151  1  0.81211933  0.06420613  0.56181327  1
  Zn  Zn152  1  0.81125065  0.56233688  0.06427156  1
  Zn  Zn153  1  0.81159708  0.55386445  0.56118625  1
  Zn  Zn154  1  0.43880841  0.43625863  0.18621835  1
  Zn  Zn155  1  0.43529388  0.43562792  0.68487979  1
  Zn  Zn156  1  0.43812859  0.93745573  0.18734812  1
  Zn  Zn157  1  0.43763222  0.93719786  0.68771419  1
  Zn  Zn158  1  0.93759172  0.43332647  0.18749999  1
  Zn  Zn159  1  0.93954792  0.43881575  0.69138795  1
  Zn  Zn160  1  0.93705714  0.93670445  0.18987141  1
  Zn  Zn161  1  0.93880847  0.94055366  0.68800893  1
  Zn  Zn162  1  0.06097215  0.06290012  0.31263008  1
  Zn  Zn163  1  0.06230896  0.06084469  0.81116870  1
  Zn  Zn164  1  0.06293876  0.56258475  0.31463477  1
  Zn  Zn165  1  0.06337705  0.56032256  0.81310429  1
  Zn  Zn166  1  0.56410374  0.06365832  0.31095294  1
  Zn  Zn167  1  0.56022826  0.06317752  0.80927980  1
  Zn  Zn168  1  0.56391029  0.56211145  0.31422681  1
  Zn  Zn169  1  0.56096275  0.56335625  0.81557523  1
  Zn  Zn170  1  0.44035014  0.18696370  0.43876387  1
  Zn  Zn171  1  0.43923597  0.18893796  0.93517585  1
  Zn  Zn172  1  0.43498921  0.68805931  0.43675811  1
  Zn  Zn173  1  0.43734038  0.68886967  0.93578094  1
  Zn  Zn174  1  0.93593280  0.18981243  0.44112658  1
  Zn  Zn175  1  0.93803733  0.18678394  0.93919316  1
  Zn  Zn176  1  0.93714811  0.68459449  0.43890659  1
  Zn  Zn177  1  0.93727726  0.68682513  0.93866900  1
  Zn  Zn178  1  0.06162216  0.31204915  0.05957701  1
  Zn  Zn179  1  0.06077459  0.31010308  0.56783364  1
  Zn  Zn180  1  0.06197269  0.81114746  0.06461813  1
  Zn  Zn181  1  0.06384809  0.80794700  0.56136701  1
  Zn  Zn182  1  0.56132152  0.31331666  0.06095208  1
  Zn  Zn183  1  0.55940766  0.31661984  0.56090514  1
  Zn  Zn184  1  0.56256321  0.81391857  0.06225093  1
  Zn  Zn185  1  0.56315259  0.81116058  0.56125033  1
  O  O186  1  0.11942396  0.11875629  0.11874983  1
  O  O187  1  0.11820231  0.12851291  0.61771814  1
  O  O188  1  0.11871882  0.61759869  0.12034365  1
  O  O189  1  0.11422083  0.63147281  0.61636166  1
  O  O190  1  0.62124198  0.11755727  0.11706594  1
  O  O191  1  0.62767312  0.11657810  0.61617382  1
  O  O192  1  0.62317785  0.61809643  0.11742701  1
  O  O193  1  0.62007402  0.61485031  0.62219918  1
  O  O194  1  0.37202502  0.38110133  0.38085786  1
  O  O195  1  0.38417297  0.37477326  0.88167856  1
  O  O196  1  0.38384795  0.88111209  0.37421787  1
  O  O197  1  0.37985676  0.88042260  0.87914223  1
  O  O198  1  0.88129907  0.36258833  0.37794460  1
  O  O199  1  0.88045162  0.37832346  0.88025774  1
  O  O200  1  0.88184368  0.88194068  0.38008317  1
  O  O201  1  0.88170303  0.87926036  0.88162927  1
  O  O202  1  0.25502800  0.00553655  0.36918274  1
  O  O203  1  0.25506341  0.00568689  0.86939819  1
  O  O204  1  0.25477306  0.50728418  0.37328187  1
  O  O205  1  0.25307139  0.50949173  0.87321996  1
  O  O206  1  0.75565637  0.00598479  0.36951898  1
  O  O207  1  0.76077980  0.00267231  0.87433217  1
  O  O208  1  0.74152069  0.50939121  0.36273358  1
  O  O209  1  0.75578170  0.50425732  0.86838202  1
  O  O210  1  0.23658848  0.50053377  0.12507407  1
  O  O211  1  0.25375174  0.48498378  0.62446243  1
  O  O212  1  0.24396400  0.99552428  0.13035907  1
  O  O213  1  0.24916848  0.99107929  0.62962679  1
  O  O214  1  0.74443991  0.49474767  0.13219651  1
  O  O215  1  0.75282381  0.50811800  0.64743591  1
  O  O216  1  0.74405865  1.00189150  0.13400296  1
  O  O217  1  0.74010012  0.99272666  0.62410885  1
  O  O218  1  0.00434689  0.36024936  0.24901246  1
  O  O219  1  0.01164121  0.38025150  0.75959190  1
  O  O220  1  0.00510741  0.87466988  0.26064758  1
  O  O221  1  0.00067857  0.86746266  0.75617286  1
  O  O222  1  0.50250871  0.36673827  0.25334462  1
  O  O223  1  0.49033765  0.36516749  0.75902613  1
  O  O224  1  0.50023610  0.86552962  0.25865093  1
  O  O225  1  0.50627511  0.86930503  0.75565193  1
  O  O226  1  0.49380195  0.13015582  0.24400268  1
  O  O227  1  0.49192202  0.13431296  0.74725410  1
  O  O228  1  0.49164160  0.63390910  0.25159138  1
  O  O229  1  0.49027412  0.63173111  0.75137329  1
  O  O230  1  1.00436872  0.13588018  0.24217290  1
  O  O231  1  0.99170775  0.11851261  0.74011954  1
  O  O232  1  0.98911230  0.62357527  0.24701492  1
  O  O233  1  0.99635143  0.62765482  0.74334632  1
  O  O234  1  0.37001396  0.25340728  0.00452635  1
  O  O235  1  0.36847666  0.25420325  0.50317826  1
  O  O236  1  0.36836019  0.75715948  0.00060546  1
  O  O237  1  0.36681223  0.75141681  0.50673984  1
  O  O238  1  0.87007526  0.25490628  0.00783763  1
  O  O239  1  0.87783442  0.25317255  0.51686659  1
  O  O240  1  0.86997251  0.75372510  0.00610155  1
  O  O241  1  0.87000219  0.75408382  0.50575388  1
  O  O242  1  0.12709497  0.24094572  0.49311683  1
  O  O243  1  0.13035229  0.24412182  0.99205746  1
  O  O244  1  0.13054469  0.73761832  0.49687877  1
  O  O245  1  0.12964334  0.74405714  0.99562791  1
  O  O246  1  0.61880986  0.24004868  0.48864150  1
  O  O247  1  0.63023298  0.23933451  1.00142542  1
  O  O248  1  0.63300757  0.74689864  0.49380191  1
  O  O249  1  0.63045957  0.74611448  0.99485356  1
  O  O250  1  0.49383928  0.24427555  0.12980591  1
  O  O251  1  0.49131782  0.24974143  0.63209348  1
  O  O252  1  0.49929501  0.74952208  0.13710520  1
  O  O253  1  0.49328004  0.75082871  0.63155428  1
  O  O254  1  0.99389565  0.24448714  0.12933870  1
  O  O255  1  0.99021846  0.23609162  0.62365722  1
  O  O256  1  0.99329893  0.74144427  0.12732041  1
  O  O257  1  0.99434887  0.74098036  0.62974634  1
  O  O258  1  0.00746420  0.24332970  0.36608593  1
  O  O259  1  0.01269493  0.25602012  0.88383543  1
  O  O260  1  -0.00151840  0.76228192  0.37451378  1
  O  O261  1  0.00419089  0.75371544  0.87044208  1
  O  O262  1  0.50930689  0.24883802  0.36791894  1
  O  O263  1  0.50143276  0.25720297  0.86496901  1
  O  O264  1  0.50412531  0.75673009  0.36718458  1
  O  O265  1  0.50714389  0.75679694  0.86920763  1
  O  O266  1  0.24171954  0.13090348  0.49534338  1
  O  O267  1  0.24377392  0.12934199  0.99330283  1
  O  O268  1  0.24273934  0.62831041  0.49741715  1
  O  O269  1  0.24461676  0.63150801  0.99525271  1
  O  O270  1  0.73807403  0.11954967  0.48825778  1
  O  O271  1  0.74074150  0.13067474  0.99860487  1
  O  O272  1  0.75260019  0.62715393  0.49015266  1
  O  O273  1  0.74474305  0.62990081  0.99451998  1
  O  O274  1  0.25671737  0.36797617  0.00077537  1
  O  O275  1  0.25077524  0.36944118  0.50694986  1
  O  O276  1  0.25479910  0.87075812  0.00500288  1
  O  O277  1  0.25015907  0.86953361  0.50861546  1
  O  O278  1  0.75512019  0.36954376  0.00497473  1
  O  O279  1  0.75713274  0.40915391  0.52097212  1
  O  O280  1  0.75782890  0.86812595  0.00273763  1
  O  O281  1  0.75552741  0.86729297  0.50472345  1
  O  O282  1  0.12245021  0.49905342  0.23820382  1
  O  O283  1  0.12939786  0.48577494  0.75583318  1
  O  O284  1  0.13055817  0.99551280  0.24504014  1
  O  O285  1  0.13385723  0.99672155  0.74776657  1
  O  O286  1  0.63463169  0.49977891  0.24326495  1
  O  O287  1  0.64107147  0.50509870  0.75628712  1
  O  O288  1  0.63319292  1.00031229  0.24032479  1
  O  O289  1  0.62694608  0.99494143  0.74006900  1
  O  O290  1  0.36914503  0.00642769  0.25433341  1
  O  O291  1  0.36961005  0.00584819  0.75514527  1
  O  O292  1  0.37541967  0.51055495  0.25357974  1
  O  O293  1  0.37340173  0.51319369  0.75045904  1
  O  O294  1  0.86662945  -0.00441294  0.26305278  1
  O  O295  1  0.87469202  0.00830027  0.75678301  1
  O  O296  1  0.86355430  0.50945379  0.24182646  1
  O  O297  1  0.86824461  0.50545259  0.75814508  1
  O  O298  1  0.11922224  0.36043281  0.37707327  1
  O  O299  1  0.12133663  0.36750847  0.87011336  1
  O  O300  1  0.11497389  0.87619844  0.37132288  1
  O  O301  1  0.11806590  0.86755504  0.87516498  1
  O  O302  1  0.62565472  0.36123942  0.37357278  1
  O  O303  1  0.60941862  0.37186108  0.88160443  1
  O  O304  1  0.61642060  0.86970723  0.37281431  1
  O  O305  1  0.62116347  0.87112694  0.87000156  1
  O  O306  1  0.38004557  0.12916611  0.12964942  1
  O  O307  1  0.37481448  0.13106510  0.63027289  1
  O  O308  1  0.37693391  0.62789877  0.13588278  1
  O  O309  1  0.37376370  0.63292357  0.63556366  1
  O  O310  1  0.88089305  0.13640049  0.11685126  1
  O  O311  1  0.88071890  0.13127311  0.63011400  1
  O  O312  1  0.87910135  0.62868767  0.13315433  1
  O  O313  1  0.88409315  0.63028623  0.62994365  1
  O  O314  1  0.25571910  0.24847418  0.11719634  1
  O  O315  1  0.25523510  0.25763245  0.61883573  1
  O  O316  1  0.25053990  0.75761594  0.11822151  1
  O  O317  1  0.25429360  0.75845153  0.62072109  1
  O  O318  1  0.75746676  0.25298986  0.12184462  1
  O  O319  1  0.76581369  0.25067830  0.63046815  1
  O  O320  1  0.75566889  0.75074124  0.11937694  1
  O  O321  1  0.75589811  0.75292305  0.61990413  1
  O  O322  1  0.23968171  0.24439690  0.37971593  1
  O  O323  1  0.24189115  0.24428860  0.88059424  1
  O  O324  1  0.24943620  0.74329020  0.38251507  1
  O  O325  1  0.24360897  0.74529148  0.88078594  1
  O  O326  1  0.73935861  0.23707409  0.36450218  1
  O  O327  1  0.74684626  0.24767861  0.88229937  1
  O  O328  1  0.74621424  0.74205340  0.37957924  1
  O  O329  1  0.74583280  0.74543777  0.88127800  1
  O  O330  1  0.00615512  0.11790058  0.00616595  1
  O  O331  1  0.00867925  0.12397795  0.50755440  1
  O  O332  1  0.00467723  0.61871587  0.00596710  1
  O  O333  1  0.00569373  0.61709880  0.50612566  1
  O  O334  1  0.50890149  0.12405997  0.00554074  1
  O  O335  1  0.51285974  0.12133607  0.50238377  1
  O  O336  1  0.50589133  0.61970186  -0.00083828  1
  O  O337  1  0.49773890  0.61629351  0.50008425  1
  O  O338  1  0.48862436  0.38418273  0.49467766  1
  O  O339  1  0.49346578  0.37897712  0.99177953  1
  O  O340  1  0.49823717  0.87476988  0.48608381  1
  O  O341  1  0.49386878  0.87691647  0.99293694  1
  O  O342  1  1.00638002  0.39106020  0.50683571  1
  O  O343  1  0.99359034  0.38046559  0.99345988  1
  O  O344  1  0.99531406  0.87599587  0.49201854  1
  O  O345  1  0.99498764  0.87938391  0.99551421  1
  O  O346  1  0.49138914  0.49925890  0.38097937  1
  O  O347  1  0.49681481  0.49122515  0.88006103  1
  O  O348  1  0.49590702  0.99080021  0.37149114  1
  O  O349  1  0.49327131  0.99362558  0.87518425  1
  O  O350  1  1.00515523  0.49817309  0.39058356  1
  O  O351  1  0.99391035  0.49433565  0.88175596  1
  O  O352  1  0.99109029  0.99265022  0.37595255  1
  O  O353  1  0.99603523  0.99356087  0.88206134  1
  O  O354  1  0.00486107  0.00362279  0.12103126  1
  O  O355  1  0.00185114  0.01131834  0.62021733  1
  O  O356  1  0.00567317  0.50412054  0.11942902  1
  O  O357  1  -0.00343471  0.51248831  0.61815846  1
  O  O358  1  0.51049349  0.00609546  0.12516585  1
  O  O359  1  0.51334005  -0.00021249  0.62395791  1
  O  O360  1  0.50693601  0.50116470  0.11708552  1
  O  O361  1  0.49285218  0.50307640  0.61167708  1
  O  O362  1  0.24285950  0.37883164  0.24419236  1
  O  O363  1  0.24434406  0.37609749  0.74276893  1
  O  O364  1  0.24524717  0.88061982  0.24559782  1
  O  O365  1  0.24931651  0.87984125  0.74054953  1
  O  O366  1  0.74877156  0.38402855  0.24310833  1
  O  O367  1  0.75492229  0.38848146  0.74913068  1
  O  O368  1  0.74746327  0.88754268  0.24986997  1
  O  O369  1  0.74422451  0.87528233  0.74277029  1
  O  O370  1  0.25448209  0.11947942  0.25528018  1
  O  O371  1  0.25482683  0.12096521  0.75500100  1
  O  O372  1  0.25931925  0.62514149  0.25514600  1
  O  O373  1  0.25784497  0.62584445  0.75478895  1
  O  O374  1  0.74513612  0.11208177  0.26179758  1
  O  O375  1  0.76301271  0.11968927  0.75293580  1
  O  O376  1  0.75635969  0.61757533  0.25589317  1
  O  O377  1  0.75742384  0.62041679  0.75910177  1
  O  O378  1  0.36934863  0.12132369  0.36952322  1
  O  O379  1  0.36882305  0.12045969  0.86964554  1
  O  O380  1  0.36860632  0.62016241  0.36622872  1
  O  O381  1  0.36863812  0.62698152  0.86476061  1
  O  O382  1  0.86500991  0.11503831  0.38495396  1
  O  O383  1  0.87887116  0.11969346  0.86745492  1
  O  O384  1  0.86359529  0.62984703  0.36483982  1
  O  O385  1  0.87078359  0.61900073  0.87127142  1
  O  O386  1  0.12425585  0.38654959  0.12173848  1
  O  O387  1  0.13459668  0.36279247  0.63825156  1
  O  O388  1  0.12983941  0.88122808  0.13057076  1
  O  O389  1  0.13605136  0.87519102  0.62552755  1
  O  O390  1  0.63202910  0.38058781  0.12512973  1
  O  O391  1  0.61857406  0.38196699  0.62806073  1
  O  O392  1  0.62753948  0.88810527  0.12552371  1
  O  O393  1  0.63049905  0.88098123  0.62879156  1
  O  O394  1  0.11695729  0.24827344  0.25845821  1
  O  O395  1  0.13122326  0.25861620  0.76414760  1
  O  O396  1  0.12101424  0.75767887  0.25380719  1
  O  O397  1  0.11780231  0.75053453  0.75764710  1
  O  O398  1  0.61823788  0.24800577  0.25823705  1
  O  O399  1  0.61070022  0.24025916  0.74853492  1
  O  O400  1  0.61614786  0.75003284  0.25541485  1
  O  O401  1  0.62105695  0.75509129  0.75534748  1
  O  O402  1  0.37834071  0.24371038  0.24461748  1
  O  O403  1  0.38125276  0.24431162  0.74415441  1
  O  O404  1  0.38368641  0.74093118  0.25032662  1
  O  O405  1  0.38024654  0.74272952  0.74565164  1
  O  O406  1  0.88364758  0.25242911  0.23561623  1
  O  O407  1  0.87493682  0.23644564  0.74253112  1
  O  O408  1  0.87438683  0.73801163  0.24446460  1
  O  O409  1  0.88117796  0.74361069  0.74551222  1
  O  O410  1  0.37921049  0.49596223  0.49244492  1
  O  O411  1  0.38149602  0.49389012  0.99901831  1
  O  O412  1  0.37864560  0.99812502  0.49086252  1
  O  O413  1  0.37624856  0.99427406  0.99259272  1
  O  O414  1  0.89244366  0.49956285  0.50209513  1
  O  O415  1  0.87880005  0.49417658  0.99597948  1
  O  O416  1  0.87352874  0.99270233  0.48937509  1
  O  O417  1  0.88171603  0.99458848  0.99609371  1
  O  O418  1  0.11999105  0.00492875  0.00547804  1
  O  O419  1  0.12521893  0.01450728  0.50113065  1
  O  O420  1  0.11877120  0.50548604  0.00669775  1
  O  O421  1  0.11780357  0.51253260  0.49955126  1
  O  O422  1  0.62622702  0.00872796  0.00940493  1
  O  O423  1  0.62342453  0.00715153  0.50775364  1
  O  O424  1  0.61985198  0.50609177  0.00398304  1
  O  O425  1  0.60666929  0.50284732  0.49511736  1
  O  O426  1  0.37430521  0.36710729  0.11726693  1
  O  O427  1  0.36418028  0.36785845  0.61811205  1
  O  O428  1  0.36835781  0.87490481  0.11876493  1
  O  O429  1  0.36448350  0.87014299  0.62413568  1
  O  O430  1  0.86960290  0.36527121  0.11819292  1
  O  O431  1  0.88373554  0.35691471  0.63426673  1
  O  O432  1  0.87505217  0.86814965  0.11957157  1
  O  O433  1  0.87107691  0.86910939  0.62008570  1
  O  O434  1  0.12882217  0.13209976  0.38261220  1
  O  O435  1  0.12863650  0.13169986  0.87911251  1
  O  O436  1  0.13077605  0.62671461  0.38410041  1
  O  O437  1  0.12891927  0.63014577  0.88162906  1
  O  O438  1  0.63139930  0.13007317  0.38139606  1
  O  O439  1  0.62470958  0.12455141  0.88653032  1
  O  O440  1  0.63706996  0.63164710  0.37549120  1
  O  O441  1  0.63047301  0.63287216  0.88116850  1
