# generated using pymatgen
data_V93Zn93O256
_symmetry_space_group_name_H-M   'P 1'
_cell_length_a   17.04588927
_cell_length_b   17.04558846
_cell_length_c   17.05271447
_cell_angle_alpha   89.92660211
_cell_angle_beta   90.01446747
_cell_angle_gamma   89.97723247
_symmetry_Int_Tables_number   1
_chemical_formula_structural   V93Zn93O256
_chemical_formula_sum   'V93 Zn93 O256'
_cell_volume   4954.78458127
_cell_formula_units_Z   1
loop_
 _symmetry_equiv_pos_site_id
 _symmetry_equiv_pos_as_xyz
  1  'x, y, z'
loop_
 _atom_site_type_symbol
 _atom_site_label
 _atom_site_symmetry_multiplicity
 _atom_site_fract_x
 _atom_site_fract_y
 _atom_site_fract_z
 _atom_site_occupancy
  V  V0  1  0.12449674  0.25130086  0.37311812  1
  V  V1  1  0.49889595  -0.00071858  0.00015271  1
  V  V2  1  0.62380445  0.12499570  -0.00082396  1
  V  V3  1  0.87516078  0.62459926  0.25024142  1
  V  V4  1  0.87424184  0.12453932  0.25022702  1
  V  V5  1  0.37464276  0.37730964  0.49981830  1
  V  V6  1  0.62353735  0.25085668  0.87389063  1
  V  V7  1  0.00110984  0.87380538  0.37521576  1
  V  V8  1  0.13130029  0.62625286  0.49632193  1
  V  V9  1  0.26284863  0.50155661  0.75137076  1
  V  V10  1  0.62506145  0.12514134  0.49900062  1
  V  V11  1  0.49822560  0.74554487  0.75183447  1
  V  V12  1  0.37579100  0.74522704  0.62926283  1
  V  V13  1  0.37116626  0.62785875  0.25153100  1
  V  V14  1  0.24962152  0.25173264  0.49911727  1
  V  V15  1  0.49683719  0.75067935  0.24805371  1
  V  V16  1  0.87395127  0.37464047  0.50054423  1
  V  V17  1  0.12595091  0.62201007  -0.00236491  1
  V  V18  1  0.49877396  0.37697133  0.37371815  1
  V  V19  1  0.62529480  0.62545169  0.00072550  1
  V  V20  1  0.74897263  0.62410108  0.87563414  1
  V  V21  1  0.87582771  0.75034078  0.62685184  1
  V  V22  1  0.74773831  0.62511324  0.37655920  1
  V  V23  1  0.24937498  0.25079233  -0.00091309  1
  V  V24  1  0.87634534  0.49871452  0.87473066  1
  V  V25  1  0.62361569  0.74526161  0.38004299  1
  V  V26  1  0.24543333  0.50045374  0.24375718  1
  V  V27  1  0.74883610  0.37480238  0.12406816  1
  V  V28  1  0.37448700  0.00141284  0.37535204  1
  V  V29  1  0.00289020  0.49685501  0.00201533  1
  V  V30  1  0.49805018  0.25276682  0.24905783  1
  V  V31  1  0.74871051  -0.00054966  0.24927420  1
  V  V32  1  0.62346880  0.50164154  0.12425405  1
  V  V33  1  0.25223103  0.74729590  0.49381256  1
  V  V34  1  -0.00106306  0.12417728  0.62460528  1
  V  V35  1  0.37195487  0.25408269  0.12414607  1
  V  V36  1  0.12469812  0.87391458  0.25086270  1
  V  V37  1  0.62636667  0.87567959  0.75021299  1
  V  V38  1  -0.00040768  0.24975652  0.74947534  1
  V  V39  1  0.50075665  0.87527802  0.37509929  1
  V  V40  1  0.62272166  0.37599990  0.24885506  1
  V  V41  1  0.37470554  0.24973382  0.62489470  1
  V  V42  1  0.87489468  0.74918562  0.12538808  1
  V  V43  1  0.50067922  0.00055435  0.50001580  1
  V  V44  1  0.00655742  0.61923464  0.12586372  1
  V  V45  1  0.87677257  0.87421558  0.49956259  1
  V  V46  1  0.25564528  0.86697820  0.12171064  1
  V  V47  1  0.49942561  0.12533926  0.62584154  1
  V  V48  1  0.37550034  0.87410848  0.50104638  1
  V  V49  1  -0.00004158  -0.00163063  0.00084099  1
  V  V50  1  0.62457570  -0.00039874  0.12607748  1
  V  V51  1  0.12577264  0.12443337  0.50008466  1
  V  V52  1  0.25251145  0.00023240  0.75099694  1
  V  V53  1  0.12508634  0.87159855  0.75126825  1
  V  V54  1  0.37523476  0.38208615  -0.00556607  1
  V  V55  1  0.00051646  0.62515577  0.62766352  1
  V  V56  1  0.12650934  -0.00068227  0.62550613  1
  V  V57  1  0.50740900  0.62614620  0.62234076  1
  V  V58  1  0.12469607  0.12557401  0.00001494  1
  V  V59  1  0.26304212  0.62076969  0.86923626  1
  V  V60  1  0.24988875  0.12547210  0.37452474  1
  V  V61  1  0.87299773  0.24953349  0.12406336  1
  V  V62  1  0.12524607  -0.00029686  0.12514979  1
  V  V63  1  0.00083793  0.49990118  0.50046709  1
  V  V64  1  0.74947047  0.12539211  0.37567177  1
  V  V65  1  0.87379008  -0.00013073  0.87499047  1
  V  V66  1  0.24972804  0.37651625  0.62554062  1
  V  V67  1  0.74932049  0.25027440  0.49936733  1
  V  V68  1  0.62446338  0.37550109  0.74844750  1
  V  V69  1  0.00042165  0.74885737  0.25187726  1
  V  V70  1  0.74924582  0.50033188  0.24965748  1
  V  V71  1  0.74966015  0.12363333  0.87330373  1
  V  V72  1  0.12704997  0.49959483  0.62636864  1
  V  V73  1  -0.00098022  0.12454759  0.12508708  1
  V  V74  1  0.24985961  0.00093904  0.25042294  1
  V  V75  1  0.74907561  0.25044340  -0.00037732  1
  V  V76  1  0.00008480  0.25042379  0.24993320  1
  V  V77  1  0.50638959  0.50605270  0.49878602  1
  V  V78  1  0.00194342  0.87306523  0.87654290  1
  V  V79  1  0.75074734  0.74889919  0.00080655  1
  V  V80  1  0.74963276  0.49967042  0.74940506  1
  V  V81  1  0.12490634  0.25010967  0.87416488  1
  V  V82  1  0.37591391  -0.00251809  0.87786303  1
  V  V83  1  0.49837306  0.12661531  0.12500426  1
  V  V84  1  0.87561856  0.87282954  0.00119824  1
  V  V85  1  0.87452042  0.50008971  0.37517867  1
  V  V86  1  0.49711666  0.38279844  0.87354784  1
  V  V87  1  0.74728923  0.74581865  0.50108738  1
  V  V88  1  0.36761777  0.50576297  0.37599470  1
  V  V89  1  0.49517062  0.62856369  0.12432945  1
  V  V90  1  0.00002382  0.37426071  0.37454080  1
  V  V91  1  0.74881989  0.37506625  0.62393336  1
  V  V92  1  0.87555263  -0.00096098  0.37552253  1
  Zn  Zn93  1  0.12587883  0.37662131  0.75077535  1
  Zn  Zn94  1  0.74871179  0.87456737  0.12580675  1
  Zn  Zn95  1  -0.00092440  0.37430435  0.87414686  1
  Zn  Zn96  1  0.50073274  0.87231203  0.87726325  1
  Zn  Zn97  1  0.12913225  0.74794444  0.37447381  1
  Zn  Zn98  1  0.00182914  -0.00172668  0.49966643  1
  Zn  Zn99  1  0.37382121  0.12732701  0.25025101  1
  Zn  Zn100  1  0.49606305  0.50503703  -0.00454214  1
  Zn  Zn101  1  0.75056268  0.87756235  0.62546674  1
  Zn  Zn102  1  0.25151983  0.87280756  0.62586911  1
  Zn  Zn103  1  0.38196350  0.86576798  0.00586339  1
  Zn  Zn104  1  0.87470944  0.37363678  -0.00092043  1
  Zn  Zn105  1  0.87192334  0.12260538  0.74865788  1
  Zn  Zn106  1  0.12659061  0.74815067  0.87679230  1
  Zn  Zn107  1  0.25207794  0.12532528  0.87562108  1
  Zn  Zn108  1  0.12164217  0.38089629  0.24343854  1
  Zn  Zn109  1  0.87412223  0.62539648  0.75052829  1
  Zn  Zn110  1  0.00058556  0.74851779  0.75348668  1
  Zn  Zn111  1  0.62842239  0.50437942  0.62012768  1
  Zn  Zn112  1  0.25626752  0.74318714  -0.00030013  1
  Zn  Zn113  1  0.75080492  -0.00029018  0.74768388  1
  Zn  Zn114  1  0.37586268  0.12594019  0.75190087  1
  Zn  Zn115  1  0.62349804  0.25076946  0.37346435  1
  Zn  Zn116  1  0.87374591  0.24882240  0.62583858  1
  Zn  Zn117  1  0.62465339  0.75012899  0.87577557  1
  Zn  Zn118  1  0.62657753  0.87439888  0.24971466  1
  Zn  Zn119  1  0.62875130  -0.00030086  0.62484669  1
  Zn  Zn120  1  0.23803034  0.38338019  0.11581051  1
  Zn  Zn121  1  0.49713420  0.25096818  0.75064484  1
  Zn  Zn122  1  0.18680341  0.18969072  0.18704139  1
  Zn  Zn123  1  0.18753629  0.18665078  0.68736061  1
  Zn  Zn124  1  0.18615351  0.68572050  0.18919338  1
  Zn  Zn125  1  0.19104669  0.68620941  0.68627167  1
  Zn  Zn126  1  0.68522815  0.18734737  0.18780434  1
  Zn  Zn127  1  0.68596791  0.18837060  0.68749857  1
  Zn  Zn128  1  0.68489220  0.68831355  0.18877701  1
  Zn  Zn129  1  0.68630648  0.68820697  0.68943004  1
  Zn  Zn130  1  0.31194858  0.31734301  0.31190118  1
  Zn  Zn131  1  0.31258041  0.31402196  0.81060589  1
  Zn  Zn132  1  0.31317121  0.81505376  0.31174116  1
  Zn  Zn133  1  0.31287402  0.81006543  0.81639360  1
  Zn  Zn134  1  0.81202032  0.31220165  0.31240529  1
  Zn  Zn135  1  0.81247351  0.31156329  0.81097774  1
  Zn  Zn136  1  0.81216311  0.81336226  0.31241416  1
  Zn  Zn137  1  0.81228575  0.81243830  0.81392640  1
  Zn  Zn138  1  0.18637576  0.43825951  0.43511752  1
  Zn  Zn139  1  0.18755978  0.43838287  0.93443427  1
  Zn  Zn140  1  0.18847664  0.93535335  0.43889314  1
  Zn  Zn141  1  0.18784023  0.93830293  0.93751833  1
  Zn  Zn142  1  0.68651914  0.43598296  0.43535552  1
  Zn  Zn143  1  0.68510736  0.43798557  0.93751467  1
  Zn  Zn144  1  0.68767248  0.93484388  0.43764686  1
  Zn  Zn145  1  0.68699128  0.93562289  0.93674961  1
  Zn  Zn146  1  0.31173791  0.06251152  0.06257334  1
  Zn  Zn147  1  0.31294102  0.06203510  0.56282701  1
  Zn  Zn148  1  0.31312917  0.56566630  0.06295214  1
  Zn  Zn149  1  0.31589552  0.56441222  0.56582223  1
  Zn  Zn150  1  0.81086249  0.06174238  0.06123551  1
  Zn  Zn151  1  0.81230123  0.06043755  0.56230635  1
  Zn  Zn152  1  0.81465477  0.56252107  0.06239006  1
  Zn  Zn153  1  0.81285241  0.56298412  0.56269004  1
  Zn  Zn154  1  0.43417334  0.44074980  0.18518076  1
  Zn  Zn155  1  0.44034091  0.43807127  0.68497929  1
  Zn  Zn156  1  0.43701990  0.93922692  0.18944280  1
  Zn  Zn157  1  0.43956578  0.93454111  0.68827099  1
  Zn  Zn158  1  0.93582018  0.43575913  0.18675491  1
  Zn  Zn159  1  0.93682860  0.43570709  0.68763922  1
  Zn  Zn160  1  0.93666121  0.93625527  0.18829787  1
  Zn  Zn161  1  0.93828160  0.93747408  0.68938071  1
  Zn  Zn162  1  0.06245617  0.06202077  0.31263368  1
  Zn  Zn163  1  0.06221609  0.06172580  0.81285937  1
  Zn  Zn164  1  0.06244965  0.56353253  0.31564721  1
  Zn  Zn165  1  0.06803660  0.56002277  0.81311098  1
  Zn  Zn166  1  0.56218310  0.06463538  0.31145590  1
  Zn  Zn167  1  0.56241507  0.06079148  0.81179357  1
  Zn  Zn168  1  0.56065515  0.56347407  0.31249809  1
  Zn  Zn169  1  0.56356226  0.56391247  0.80952760  1
  Zn  Zn170  1  0.43699950  0.18887190  0.43763645  1
  Zn  Zn171  1  0.43713810  0.18902938  0.93630417  1
  Zn  Zn172  1  0.43678044  0.68699158  0.43787534  1
  Zn  Zn173  1  0.43569666  0.69094614  0.93915140  1
  Zn  Zn174  1  0.93655023  0.18756659  0.43874354  1
  Zn  Zn175  1  0.93618948  0.18553325  0.93706891  1
  Zn  Zn176  1  0.93790603  0.68742186  0.43903449  1
  Zn  Zn177  1  0.93820610  0.68644365  0.93730674  1
  Zn  Zn178  1  0.06230979  0.31401496  0.06375517  1
  Zn  Zn179  1  0.06335469  0.31235305  0.56213077  1
  Zn  Zn180  1  0.06646966  0.80803455  0.06374726  1
  Zn  Zn181  1  0.06418299  0.81223560  0.56345768  1
  Zn  Zn182  1  0.56020764  0.31409029  0.06012181  1
  Zn  Zn183  1  0.56288268  0.31336011  0.56087579  1
  Zn  Zn184  1  0.56462471  0.81340489  0.06312965  1
  Zn  Zn185  1  0.56320326  0.81419270  0.56469672  1
  O  O186  1  0.11842034  0.12028827  0.11991978  1
  O  O187  1  0.11803138  0.12001092  0.61982557  1
  O  O188  1  0.11355393  0.62719075  0.11691857  1
  O  O189  1  0.11805712  0.62069452  0.61701637  1
  O  O190  1  0.61817518  0.12048555  0.11871462  1
  O  O191  1  0.61435059  0.12519516  0.61782892  1
  O  O192  1  0.61621279  0.62069231  0.12132248  1
  O  O193  1  0.61238411  0.62513062  0.62430988  1
  O  O194  1  0.37993504  0.38579584  0.38027579  1
  O  O195  1  0.38485285  0.36769329  0.88401307  1
  O  O196  1  0.38104908  0.88130773  0.38115958  1
  O  O197  1  0.37590440  0.88796270  0.87752963  1
  O  O198  1  0.87964825  0.38106745  0.38020205  1
  O  O199  1  0.87577909  0.38671486  0.87668112  1
  O  O200  1  0.88115823  0.87937499  0.37969871  1
  O  O201  1  0.88182633  0.87923309  0.88207167  1
  O  O202  1  0.25453247  0.00510969  0.37063846  1
  O  O203  1  0.25720012  0.00125854  0.86807484  1
  O  O204  1  0.26256103  0.49780820  0.36736943  1
  O  O205  1  0.24374071  0.51133958  0.86503969  1
  O  O206  1  0.75582364  0.00548365  0.37020892  1
  O  O207  1  0.75661682  0.00654238  0.87608211  1
  O  O208  1  0.75465485  0.50479635  0.36979559  1
  O  O209  1  0.75814970  0.50381288  0.87105663  1
  O  O210  1  0.25520836  0.50065663  0.14003825  1
  O  O211  1  0.24671772  0.49699650  0.63141304  1
  O  O212  1  0.24306630  0.99389045  0.13088237  1
  O  O213  1  0.24636589  0.99719672  0.63457586  1
  O  O214  1  0.74515407  0.49586514  0.13083732  1
  O  O215  1  0.74903005  0.49476519  0.62960216  1
  O  O216  1  0.74292384  1.00084987  0.13141514  1
  O  O217  1  0.74752587  0.99577597  0.62861648  1
  O  O218  1  -0.00143571  0.36898620  0.25719073  1
  O  O219  1  0.00383802  0.36237933  0.74967159  1
  O  O220  1  0.00511365  0.86859511  0.25461034  1
  O  O221  1  0.01118660  0.87522224  0.75701557  1
  O  O222  1  0.50294896  0.37309223  0.25320271  1
  O  O223  1  0.50505102  0.37422848  0.75662686  1
  O  O224  1  0.49834545  0.86528256  0.25615368  1
  O  O225  1  0.50918422  0.86467404  0.75062184  1
  O  O226  1  0.49665751  0.13394843  0.24314007  1
  O  O227  1  0.49915080  0.12660973  0.73708652  1
  O  O228  1  0.49276702  0.63186026  0.24383714  1
  O  O229  1  0.50504682  0.63687506  0.74024242  1
  O  O230  1  0.99377231  0.12981709  0.24458800  1
  O  O231  1  1.00161647  0.13245372  0.74060523  1
  O  O232  1  0.99598992  0.62691495  0.24374253  1
  O  O233  1  1.00180618  0.62522562  0.73699032  1
  O  O234  1  0.36975642  0.25808167  0.00651703  1
  O  O235  1  0.36836341  0.25747009  0.50414610  1
  O  O236  1  0.36803211  0.75457494  -0.00086715  1
  O  O237  1  0.36977311  0.75368446  0.50650152  1
  O  O238  1  0.86770217  0.25031838  0.00596805  1
  O  O239  1  0.86822720  0.25724304  0.50120844  1
  O  O240  1  0.87111010  0.75301932  0.00618207  1
  O  O241  1  0.86864394  0.75395306  0.50798996  1
  O  O242  1  0.13061884  0.24490679  0.49317067  1
  O  O243  1  0.12802365  0.24505005  0.99184020  1
  O  O244  1  0.13559024  0.74329349  0.50254189  1
  O  O245  1  0.13176484  0.73562763  1.00021151  1
  O  O246  1  0.63109951  0.24421335  0.49596542  1
  O  O247  1  0.62946067  0.24458767  0.99488597  1
  O  O248  1  0.63469047  0.75584976  0.49081176  1
  O  O249  1  0.63202904  0.74264603  0.99942764  1
  O  O250  1  0.49076393  0.24708180  0.12818582  1
  O  O251  1  0.49333322  0.24123634  0.62263339  1
  O  O252  1  0.50772586  0.74018771  0.13754506  1
  O  O253  1  0.49496501  0.74381556  0.62930912  1
  O  O254  1  0.99244433  0.24308623  0.12960713  1
  O  O255  1  1.00249197  0.24087701  0.63262653  1
  O  O256  1  0.99525453  0.73926398  0.13134898  1
  O  O257  1  0.99204386  0.74110740  0.62432953  1
  O  O258  1  0.00395014  0.25453891  0.36997481  1
  O  O259  1  0.00701226  0.24842689  0.86681702  1
  O  O260  1  0.00044372  0.75570823  0.36899130  1
  O  O261  1  0.00328687  0.75654905  0.87272925  1
  O  O262  1  0.49817837  0.25902003  0.36791944  1
  O  O263  1  0.50640720  0.26013727  0.87376200  1
  O  O264  1  0.50680638  0.75347493  0.37032134  1
  O  O265  1  0.50060618  0.74965974  0.86327177  1
  O  O266  1  0.24495263  0.13151795  0.49496056  1
  O  O267  1  0.24188629  0.13214611  0.99901658  1
  O  O268  1  0.24157927  0.63374479  0.50851350  1
  O  O269  1  0.24205806  0.61793231  0.98913527  1
  O  O270  1  0.74533864  0.13025917  0.49472983  1
  O  O271  1  0.74295793  0.13085685  0.99423126  1
  O  O272  1  0.75733152  0.63778968  0.49285391  1
  O  O273  1  0.74547373  0.62907410  0.99610044  1
  O  O274  1  0.25820533  0.37021321  -0.00246786  1
  O  O275  1  0.25515859  0.37153000  0.50445931  1
  O  O276  1  0.24580562  0.87539487  0.01611618  1
  O  O277  1  0.25656037  0.86544733  0.50400149  1
  O  O278  1  0.74958945  0.36860606  0.00660472  1
  O  O279  1  0.75428309  0.37090523  0.50361389  1
  O  O280  1  0.75782259  0.86730672  0.00176075  1
  O  O281  1  0.75773576  0.86170547  0.49995106  1
  O  O282  1  0.14319106  0.50555413  0.25964433  1
  O  O283  1  0.13323387  0.49718136  0.74166885  1
  O  O284  1  0.12979654  0.99446221  0.24480816  1
  O  O285  1  0.13293480  0.99180526  0.74731262  1
  O  O286  1  0.62998397  0.49634670  0.24465302  1
  O  O287  1  0.63273685  0.49285505  0.74717507  1
  O  O288  1  0.63045224  1.00006826  0.24421356  1
  O  O289  1  0.62520453  0.98801181  0.74839937  1
  O  O290  1  0.36825310  0.00331131  0.25812697  1
  O  O291  1  0.36736532  -0.00138296  0.75740834  1
  O  O292  1  0.36782566  0.50803211  0.25748737  1
  O  O293  1  0.36200881  0.49725224  0.74420311  1
  O  O294  1  0.86985372  0.00593572  0.25504525  1
  O  O295  1  0.87396819  0.00104041  0.76026042  1
  O  O296  1  0.86889511  0.50505787  0.25566557  1
  O  O297  1  0.87007304  0.50093860  0.75886788  1
  O  O298  1  0.11753958  0.36947229  0.37139754  1
  O  O299  1  0.12190915  0.36115526  0.87395166  1
  O  O300  1  0.11954719  0.87315930  0.36857177  1
  O  O301  1  0.12147212  0.87320008  0.86741369  1
  O  O302  1  0.61684332  0.37494998  0.36598613  1
  O  O303  1  0.61753135  0.37021444  0.86968711  1
  O  O304  1  0.61873769  0.86395335  0.37266392  1
  O  O305  1  0.62219820  0.87103428  0.86538965  1
  O  O306  1  0.37953698  0.13755431  0.12454375  1
  O  O307  1  0.38435889  0.13091010  0.62312865  1
  O  O308  1  0.38663825  0.62063821  0.13590824  1
  O  O309  1  0.38708590  0.63831512  0.62148470  1
  O  O310  1  0.87928336  0.12929398  0.13028439  1
  O  O311  1  0.88798617  0.12629179  0.62506645  1
  O  O312  1  0.88429154  0.62945198  0.13099940  1
  O  O313  1  0.88479981  0.63243934  0.62471806  1
  O  O314  1  0.25943603  0.25117952  0.11863741  1
  O  O315  1  0.25352942  0.25528214  0.61844052  1
  O  O316  1  0.24530721  0.76525010  0.12822885  1
  O  O317  1  0.26114603  0.75068055  0.61836678  1
  O  O318  1  0.75349141  0.25428781  0.11983409  1
  O  O319  1  0.75144166  0.25635772  0.61761429  1
  O  O320  1  0.75696413  0.74881826  0.11986451  1
  O  O321  1  0.75974408  0.74755245  0.61717012  1
  O  O322  1  0.24541648  0.24676303  0.37956453  1
  O  O323  1  0.24058265  0.24794388  0.87872418  1
  O  O324  1  0.25124867  0.75344189  0.38953937  1
  O  O325  1  0.24680549  0.73265660  0.87271891  1
  O  O326  1  0.74846274  0.24343675  0.38059034  1
  O  O327  1  0.74392354  0.24511454  0.88020989  1
  O  O328  1  0.74331340  0.74547929  0.38126331  1
  O  O329  1  0.75148218  0.74085595  0.88312305  1
  O  O330  1  0.00458153  0.11856743  0.00627670  1
  O  O331  1  0.00690929  0.12477188  0.50909962  1
  O  O332  1  0.00619440  0.61760650  0.00725675  1
  O  O333  1  0.00689302  0.62038664  0.51020619  1
  O  O334  1  0.50505410  0.12048962  0.00559210  1
  O  O335  1  0.50439606  0.12097300  0.50624759  1
  O  O336  1  0.50420455  0.62522793  0.00916081  1
  O  O337  1  0.49500211  0.61562914  0.50716332  1
  O  O338  1  0.49294927  0.38443180  0.49497853  1
  O  O339  1  0.49271650  0.37788301  0.99100052  1
  O  O340  1  0.49540106  0.88011282  0.49419543  1
  O  O341  1  0.49979793  0.88353092  0.99878748  1
  O  O342  1  0.99488067  0.38044993  0.49489250  1
  O  O343  1  0.99641639  0.38524961  0.99794543  1
  O  O344  1  0.99503324  0.87510995  0.49386314  1
  O  O345  1  0.99699036  0.87866499  0.99699789  1
  O  O346  1  0.49104051  0.49719142  0.38051821  1
  O  O347  1  0.50462927  0.48703125  0.87511656  1
  O  O348  1  0.49459552  0.99569063  0.37972174  1
  O  O349  1  0.49098536  0.99956224  0.88129036  1
  O  O350  1  0.99404263  0.49492754  0.38081226  1
  O  O351  1  0.99242041  0.49961552  0.88203629  1
  O  O352  1  0.99352019  0.99305620  0.37569061  1
  O  O353  1  0.99550714  0.99402018  0.88233303  1
  O  O354  1  0.00497394  0.00494143  0.12073565  1
  O  O355  1  0.00683544  0.00967524  0.62507186  1
  O  O356  1  -0.00906009  0.51005593  0.11551020  1
  O  O357  1  0.00460420  0.50675449  0.61975352  1
  O  O358  1  0.50347771  0.00680183  0.12089412  1
  O  O359  1  0.49903726  0.01010853  0.61804699  1
  O  O360  1  0.50566456  0.51227716  0.12580837  1
  O  O361  1  0.49981470  0.50949220  0.61604565  1
  O  O362  1  0.25087992  0.39208068  0.24842508  1
  O  O363  1  0.24736962  0.38323445  0.74359100  1
  O  O364  1  0.24485851  0.88025054  0.24198031  1
  O  O365  1  0.24232669  0.88387581  0.75081265  1
  O  O366  1  0.74380108  0.38079190  0.24451217  1
  O  O367  1  0.74503878  0.37970751  0.74386788  1
  O  O368  1  0.74868995  0.88348622  0.24768948  1
  O  O369  1  0.73923477  0.87329282  0.74864528  1
  O  O370  1  0.25021740  0.11948021  0.25677486  1
  O  O371  1  0.25027550  0.11095157  0.75117462  1
  O  O372  1  0.26179254  0.61674764  0.24400709  1
  O  O373  1  0.24565108  0.61735272  0.76164519  1
  O  O374  1  0.75524179  0.12062085  0.25545707  1
  O  O375  1  0.75092270  0.12367236  0.75825985  1
  O  O376  1  0.75531616  0.61969186  0.25575101  1
  O  O377  1  0.75087079  0.61779552  0.75657295  1
  O  O378  1  0.36736094  0.11962899  0.37503713  1
  O  O379  1  0.37343088  0.11321375  0.87321092  1
  O  O380  1  0.38207260  0.61573132  0.36412886  1
  O  O381  1  0.36071286  0.62135975  0.87917652  1
  O  O382  1  0.87010486  0.11943636  0.36978913  1
  O  O383  1  0.86793499  0.11723666  0.87503834  1
  O  O384  1  0.87006068  0.61924280  0.36983168  1
  O  O385  1  0.87037337  0.61390134  0.87371059  1
  O  O386  1  0.12746254  0.37149294  0.13133537  1
  O  O387  1  0.13303577  0.38183637  0.62311447  1
  O  O388  1  0.13214470  0.88056854  0.13157628  1
  O  O389  1  0.12592671  0.88105546  0.63503977  1
  O  O390  1  0.62872586  0.38124315  0.12943193  1
  O  O391  1  0.63091750  0.37770097  0.63038327  1
  O  O392  1  0.62745096  0.88418564  0.12906947  1
  O  O393  1  0.62729948  0.87625123  0.63556885  1
  O  O394  1  0.11660163  0.24874660  0.25770723  1
  O  O395  1  0.11755518  0.24890016  0.75794445  1
  O  O396  1  0.11859480  0.75389625  0.25390553  1
  O  O397  1  0.12569154  0.76242162  0.74794694  1
  O  O398  1  0.61649046  0.25831362  0.24953227  1
  O  O399  1  0.62239960  0.25823565  0.75655725  1
  O  O400  1  0.61432134  0.75089776  0.26030290  1
  O  O401  1  0.61623572  0.75763675  0.75104080  1
  O  O402  1  0.37841611  0.25274267  0.23977883  1
  O  O403  1  0.37580496  0.24631903  0.74076639  1
  O  O404  1  0.38692376  0.74099595  0.25991520  1
  O  O405  1  0.38568580  0.75907477  0.73934388  1
  O  O406  1  0.87958389  0.24371968  0.24459100  1
  O  O407  1  0.88712742  0.24606096  0.74831279  1
  O  O408  1  0.88049603  0.74324858  0.24601021  1
  O  O409  1  0.87724067  0.74764261  0.73855573  1
  O  O410  1  0.38116457  0.49761417  0.49287909  1
  O  O411  1  0.37624143  0.48560536  1.00689568  1
  O  O412  1  0.37997004  0.99441500  0.49455273  1
  O  O413  1  0.37976198  0.99810147  0.99301453  1
  O  O414  1  0.88063470  0.49511596  0.49404199  1
  O  O415  1  0.88415415  0.50026398  0.99093941  1
  O  O416  1  0.87751086  0.99223706  0.49279442  1
  O  O417  1  0.88120168  0.99336479  0.99614531  1
  O  O418  1  0.11890545  0.00543996  0.00506373  1
  O  O419  1  0.12525166  0.00616987  0.50704357  1
  O  O420  1  0.11263830  0.50803770  -0.00602425  1
  O  O421  1  0.12158093  0.50751257  0.50522424  1
  O  O422  1  0.61924946  0.00622341  0.00504317  1
  O  O423  1  0.61806863  0.00609364  0.49984233  1
  O  O424  1  0.62277643  0.50765992  0.00743836  1
  O  O425  1  0.61031490  0.49558483  0.49877525  1
  O  O426  1  0.37464617  0.36559447  0.11529519  1
  O  O427  1  0.36954209  0.37018666  0.61825043  1
  O  O428  1  0.35798614  0.88165283  0.12680715  1
  O  O429  1  0.37711343  0.86385820  0.61759691  1
  O  O430  1  0.86631134  0.36757528  0.12384330  1
  O  O431  1  0.86803368  0.37360580  0.61751222  1
  O  O432  1  0.87527593  0.86698138  0.11866616  1
  O  O433  1  0.87739877  0.86389181  0.61998596  1
  O  O434  1  0.13002571  0.13030140  0.38053330  1
  O  O435  1  0.12483065  0.13454298  0.88101780  1
  O  O436  1  0.11798998  0.62840606  0.39305109  1
  O  O437  1  0.12816161  0.62683886  0.88549863  1
  O  O438  1  0.63141195  0.12753031  0.38088738  1
  O  O439  1  0.62858102  0.13042034  0.88033481  1
  O  O440  1  0.63035695  0.63705265  0.37002125  1
  O  O441  1  0.63147260  0.62521830  0.88289138  1
