# generated using pymatgen
data_V93Zn93O256
_symmetry_space_group_name_H-M   'P 1'
_cell_length_a   17.04959902
_cell_length_b   17.04858360
_cell_length_c   17.05047199
_cell_angle_alpha   90.02034681
_cell_angle_beta   89.95534933
_cell_angle_gamma   90.02684374
_symmetry_Int_Tables_number   1
_chemical_formula_structural   V93Zn93O256
_chemical_formula_sum   'V93 Zn93 O256'
_cell_volume   4956.08415365
_cell_formula_units_Z   1
loop_
 _symmetry_equiv_pos_site_id
 _symmetry_equiv_pos_as_xyz
  1  'x, y, z'
loop_
 _atom_site_type_symbol
 _atom_site_label
 _atom_site_symmetry_multiplicity
 _atom_site_fract_x
 _atom_site_fract_y
 _atom_site_fract_z
 _atom_site_occupancy
  V  V0  1  0.87538699  0.12715114  0.74866481  1
  V  V1  1  0.62504832  0.87623410  0.25052374  1
  V  V2  1  0.74943688  0.62565365  0.87469372  1
  V  V3  1  0.87391040  0.00184898  0.87525733  1
  V  V4  1  0.24891312  0.25045434  -0.00027612  1
  V  V5  1  0.74998900  0.75145260  0.00100023  1
  V  V6  1  0.00284984  0.50261081  0.50233772  1
  V  V7  1  0.49990575  0.62267735  0.62460087  1
  V  V8  1  0.49910258  0.12507457  0.12558648  1
  V  V9  1  0.49987952  0.74724289  0.24917971  1
  V  V10  1  0.37408892  0.37217553  0.49973958  1
  V  V11  1  0.75082201  0.62482195  0.37588865  1
  V  V12  1  0.62484295  0.50082015  0.12556682  1
  V  V13  1  0.62616677  0.62402952  0.49998977  1
  V  V14  1  0.12543005  0.12743438  -0.00183928  1
  V  V15  1  0.49982142  -0.00025362  -0.00055421  1
  V  V16  1  0.00059183  0.87988687  0.37506158  1
  V  V17  1  0.50128839  0.75089908  0.75029342  1
  V  V18  1  0.00043388  0.25089629  0.74776338  1
  V  V19  1  0.37488934  0.00263075  0.87284179  1
  V  V20  1  0.37321020  0.24960716  0.12577024  1
  V  V21  1  0.87620533  0.62701116  0.74846686  1
  V  V22  1  0.37372883  0.37505385  0.00163130  1
  V  V23  1  0.87625355  0.37779669  0.00022322  1
  V  V24  1  0.87886655  0.74746925  0.12462541  1
  V  V25  1  0.49784291  0.00358398  0.50520489  1
  V  V26  1  0.49581954  0.24309397  0.74359881  1
  V  V27  1  0.37432456  -0.00163742  0.37436071  1
  V  V28  1  0.00078409  0.37691536  0.87504790  1
  V  V29  1  0.37189055  0.86877262  0.49968537  1
  V  V30  1  0.24972158  0.74951390  -0.00141132  1
  V  V31  1  0.62627276  0.49874681  0.62585826  1
  V  V32  1  0.00116732  0.75229621  0.74650890  1
  V  V33  1  0.49994046  0.49665152  0.50032153  1
  V  V34  1  0.37543551  0.87542270  -0.00097442  1
  V  V35  1  0.87454888  0.87630059  0.00074208  1
  V  V36  1  0.87604500  0.62674076  0.24842557  1
  V  V37  1  0.49899134  0.37470401  0.87597515  1
  V  V38  1  0.87736853  0.00116767  0.37557611  1
  V  V39  1  0.75013345  0.12635368  0.87509756  1
  V  V40  1  0.62552107  0.37577050  0.75076285  1
  V  V41  1  0.00765122  0.11377334  0.62104767  1
  V  V42  1  0.87496541  0.88048758  0.49893229  1
  V  V43  1  0.24689535  0.62545307  0.87620389  1
  V  V44  1  0.13082990  0.75058165  0.37662794  1
  V  V45  1  0.62502416  0.12575543  0.00092104  1
  V  V46  1  0.12297866  0.25002501  0.37238366  1
  V  V47  1  0.12573331  0.00010103  0.12366716  1
  V  V48  1  0.75133637  0.37662371  0.12609318  1
  V  V49  1  0.24353938  0.37560332  0.13366580  1
  V  V50  1  0.75149186  0.12598827  0.37569978  1
  V  V51  1  0.00541523  0.37558915  0.37120935  1
  V  V52  1  0.24397616  -0.00046312  0.74710116  1
  V  V53  1  0.24355946  0.24331540  0.50073006  1
  V  V54  1  0.00094647  0.87633905  0.87345428  1
  V  V55  1  0.24822736  0.87580471  0.12320699  1
  V  V56  1  0.62471127  0.37385035  0.25139087  1
  V  V57  1  0.12611129  0.25147701  0.87484096  1
  V  V58  1  0.37469396  0.74878901  0.12468167  1
  V  V59  1  0.62347555  0.00040233  0.62526869  1
  V  V60  1  0.24928116  0.37318737  0.62526550  1
  V  V61  1  0.24886264  0.87676289  0.62642015  1
  V  V62  1  0.37395501  0.62255552  0.74997216  1
  V  V63  1  0.12555304  0.37589123  0.74863148  1
  V  V64  1  0.75060958  0.50075104  0.25118706  1
  V  V65  1  0.37362931  0.49973596  0.87573542  1
  V  V66  1  0.12111313  0.50428740  0.13363237  1
  V  V67  1  0.87654755  0.12699519  0.24962594  1
  V  V68  1  -0.00004718  0.12729045  0.12433202  1
  V  V69  1  0.24739659  0.12159060  0.37643490  1
  V  V70  1  0.75007767  0.25231837  0.00028856  1
  V  V71  1  0.37108118  0.74743341  0.62123514  1
  V  V72  1  0.37401290  0.12266311  0.25082754  1
  V  V73  1  0.75206992  0.25184882  0.50231822  1
  V  V74  1  0.37238714  0.49898428  0.37319396  1
  V  V75  1  0.62545143  0.00069739  0.12606565  1
  V  V76  1  0.50066326  0.24948987  0.25176757  1
  V  V77  1  0.50034509  0.87380408  0.37521286  1
  V  V78  1  0.62372477  0.75050141  0.87495956  1
  V  V79  1  0.00086668  0.74680079  0.24721906  1
  V  V80  1  0.74989936  0.00097327  0.24996988  1
  V  V81  1  0.13167665  0.63269069  0.49993103  1
  V  V82  1  0.62252718  0.12476510  0.50160267  1
  V  V83  1  0.62411617  0.25084359  0.87564241  1
  V  V84  1  0.75026980  0.50071320  0.75033722  1
  V  V85  1  0.87621760  0.25171869  0.12598786  1
  V  V86  1  -0.00033794  0.00192126  -0.00119601  1
  V  V87  1  0.62422219  0.62501822  0.00130672  1
  V  V88  1  0.74793528  0.00065357  0.74972825  1
  V  V89  1  0.49986662  0.50000619  0.00154469  1
  V  V90  1  0.87720858  0.50076902  0.37613942  1
  V  V91  1  0.00152015  0.50810119  0.00206847  1
  V  V92  1  0.75053639  0.75115067  0.50073255  1
  Zn  Zn93  1  0.12384741  0.87608733  0.74821226  1
  Zn  Zn94  1  0.12010789  0.62876227  0.00467830  1
  Zn  Zn95  1  0.37889175  0.24042735  0.61717923  1
  Zn  Zn96  1  0.25258479  0.62914950  0.37594214  1
  Zn  Zn97  1  0.87730204  0.75384322  0.62334098  1
  Zn  Zn98  1  0.12546389  0.87457485  0.24788156  1
  Zn  Zn99  1  0.37181283  0.62191034  0.24923324  1
  Zn  Zn100  1  0.24851791  0.49942012  0.74998048  1
  Zn  Zn101  1  0.00429406  0.25570512  0.24756595  1
  Zn  Zn102  1  0.00312302  0.63029454  0.62341146  1
  Zn  Zn103  1  0.37756855  0.11743673  0.73513441  1
  Zn  Zn104  1  0.12394883  0.75190962  0.87631166  1
  Zn  Zn105  1  0.62438800  0.25110035  0.37599812  1
  Zn  Zn106  1  0.10339801  0.07879721  0.49045988  1
  Zn  Zn107  1  0.49725020  0.62306862  0.12589681  1
  Zn  Zn108  1  0.62686494  0.87472908  0.74970191  1
  Zn  Zn109  1  0.75056525  0.87617865  0.12620829  1
  Zn  Zn110  1  0.50131507  0.87586048  0.87439591  1
  Zn  Zn111  1  0.87731693  0.25190116  0.62495335  1
  Zn  Zn112  1  0.75072618  0.87532655  0.62663478  1
  Zn  Zn113  1  0.87648675  0.37644437  0.50330319  1
  Zn  Zn114  1  0.25112386  0.12721619  0.86962033  1
  Zn  Zn115  1  0.75370567  0.37498138  0.62614588  1
  Zn  Zn116  1  0.24826171  -0.00174409  0.24884445  1
  Zn  Zn117  1  0.12641898  0.50491343  0.62592650  1
  Zn  Zn118  1  0.50064146  0.37186286  0.37613042  1
  Zn  Zn119  1  0.87627066  0.50154284  0.87570004  1
  Zn  Zn120  1  0.62508649  0.74958556  0.37436012  1
  Zn  Zn121  1  0.24517635  0.49997052  0.25465730  1
  Zn  Zn122  1  0.18785837  0.18576045  0.18876010  1
  Zn  Zn123  1  0.18669788  0.18358365  0.68645667  1
  Zn  Zn124  1  0.19063389  0.68470657  0.19044832  1
  Zn  Zn125  1  0.18554653  0.68937542  0.68896910  1
  Zn  Zn126  1  0.68824616  0.18860152  0.18813692  1
  Zn  Zn127  1  0.68526004  0.18714645  0.68604430  1
  Zn  Zn128  1  0.68838671  0.68859090  0.18627406  1
  Zn  Zn129  1  0.68790427  0.68656537  0.68574173  1
  Zn  Zn130  1  0.31182465  0.31102408  0.31483692  1
  Zn  Zn131  1  0.31291494  0.31267121  0.81246466  1
  Zn  Zn132  1  0.31253370  0.81447794  0.30807311  1
  Zn  Zn133  1  0.31469089  0.81309352  0.81170491  1
  Zn  Zn134  1  0.81567909  0.31376307  0.31639021  1
  Zn  Zn135  1  0.81427885  0.31443033  0.81296772  1
  Zn  Zn136  1  0.81181743  0.81348177  0.31307013  1
  Zn  Zn137  1  0.81213995  0.81416842  0.81308557  1
  Zn  Zn138  1  0.18608307  0.43623310  0.44008817  1
  Zn  Zn139  1  0.18625945  0.43906973  0.94182957  1
  Zn  Zn140  1  0.18989229  0.93447307  0.43589044  1
  Zn  Zn141  1  0.18747712  0.93809660  0.93510094  1
  Zn  Zn142  1  0.68730472  0.43606154  0.43683478  1
  Zn  Zn143  1  0.68782047  0.43906147  0.93667638  1
  Zn  Zn144  1  0.68819049  0.93833380  0.43551883  1
  Zn  Zn145  1  0.68625324  0.93576681  0.93653646  1
  Zn  Zn146  1  0.31111493  0.06302400  0.06022299  1
  Zn  Zn147  1  0.31157676  0.06241267  0.56340368  1
  Zn  Zn148  1  0.30975734  0.56247754  0.06438660  1
  Zn  Zn149  1  0.31132176  0.55987616  0.55983846  1
  Zn  Zn150  1  0.81233735  0.06412652  0.06335085  1
  Zn  Zn151  1  0.81369174  0.06462074  0.56495323  1
  Zn  Zn152  1  0.81324659  0.56462396  0.06275127  1
  Zn  Zn153  1  0.81505045  0.56383564  0.56447592  1
  Zn  Zn154  1  0.43710061  0.43482914  0.18843013  1
  Zn  Zn155  1  0.43610747  0.43301694  0.68747660  1
  Zn  Zn156  1  0.43701883  0.93576587  0.18665103  1
  Zn  Zn157  1  0.43580315  0.93580447  0.68677016  1
  Zn  Zn158  1  0.93947716  0.43911993  0.18863457  1
  Zn  Zn159  1  0.93690390  0.43796033  0.68535294  1
  Zn  Zn160  1  0.93855462  0.93689455  0.18762089  1
  Zn  Zn161  1  0.93395396  0.93722745  0.68750368  1
  Zn  Zn162  1  0.06410762  0.06387956  0.30841589  1
  Zn  Zn163  1  0.06261086  0.06473381  0.81056397  1
  Zn  Zn164  1  0.06223900  0.56648989  0.31491980  1
  Zn  Zn165  1  0.06283998  0.56171451  0.81243598  1
  Zn  Zn166  1  0.56150298  0.06267421  0.31564227  1
  Zn  Zn167  1  0.56278252  0.06309051  0.81359278  1
  Zn  Zn168  1  0.56142453  0.56122351  0.31481491  1
  Zn  Zn169  1  0.56186435  0.56276947  0.81358332  1
  Zn  Zn170  1  0.43520657  0.18666505  0.43597081  1
  Zn  Zn171  1  0.43698184  0.18726685  0.93627195  1
  Zn  Zn172  1  0.43962912  0.68392226  0.43610562  1
  Zn  Zn173  1  0.43619710  0.68587603  0.93770942  1
  Zn  Zn174  1  0.93788659  0.18778342  0.44009548  1
  Zn  Zn175  1  0.93816727  0.19043344  0.93642392  1
  Zn  Zn176  1  0.94024145  0.69011964  0.43604666  1
  Zn  Zn177  1  0.93580930  0.68987019  0.93387990  1
  Zn  Zn178  1  0.06290812  0.31739096  0.06221044  1
  Zn  Zn179  1  0.06182080  0.31068880  0.56263748  1
  Zn  Zn180  1  0.06298306  0.81318290  0.06006167  1
  Zn  Zn181  1  0.07089441  0.83463349  0.55132043  1
  Zn  Zn182  1  0.56197955  0.31361886  0.06494602  1
  Zn  Zn183  1  0.56565789  0.31347409  0.56359319  1
  Zn  Zn184  1  0.56222735  0.81395164  0.06397010  1
  Zn  Zn185  1  0.56214229  0.81336360  0.56303272  1
  O  O186  1  0.11950236  0.12139704  0.11804398  1
  O  O187  1  0.10952146  0.12578861  0.62392387  1
  O  O188  1  0.13247602  0.60818811  0.12171122  1
  O  O189  1  0.12327372  0.62658408  0.61522911  1
  O  O190  1  0.61935598  0.12065464  0.12003324  1
  O  O191  1  0.62822838  0.11303887  0.61191225  1
  O  O192  1  0.62415653  0.61817090  0.11872863  1
  O  O193  1  0.61918921  0.61841579  0.61960470  1
  O  O194  1  0.37645991  0.38136279  0.38221849  1
  O  O195  1  0.37903068  0.38014163  0.88219768  1
  O  O196  1  0.37974430  0.87685507  0.38271649  1
  O  O197  1  0.37796322  0.88525853  0.88058679  1
  O  O198  1  0.88477408  0.38302345  0.38086193  1
  O  O199  1  0.88199110  0.37827650  0.88255915  1
  O  O200  1  0.88117838  0.88070410  0.37934279  1
  O  O201  1  0.88032497  0.88257993  0.88104161  1
  O  O202  1  0.25762284  0.00330578  0.37268963  1
  O  O203  1  0.26009761  0.00015678  0.86657085  1
  O  O204  1  0.26095441  0.49611666  0.37534547  1
  O  O205  1  0.25600200  0.50807834  0.87613962  1
  O  O206  1  0.75638705  0.00689721  0.36868981  1
  O  O207  1  0.75370887  0.00751712  0.87099474  1
  O  O208  1  0.75679753  0.50511551  0.37047555  1
  O  O209  1  0.75162036  0.50826758  0.86880931  1
  O  O210  1  0.23903098  0.49145575  0.12549374  1
  O  O211  1  0.24954729  0.48507408  0.62514965  1
  O  O212  1  0.24347485  0.99402001  0.12264034  1
  O  O213  1  0.26122268  0.98650697  0.63591720  1
  O  O214  1  0.74577766  0.49574918  0.13134120  1
  O  O215  1  0.74349126  0.50132053  0.63237694  1
  O  O216  1  0.74348224  1.00091737  0.13176794  1
  O  O217  1  0.74003768  1.00030766  0.63088043  1
  O  O218  1  -0.00443512  0.37449036  0.26629850  1
  O  O219  1  0.00573299  0.37134632  0.75500115  1
  O  O220  1  -0.00104192  0.86463740  0.25816523  1
  O  O221  1  -0.00137349  0.86897774  0.75541958  1
  O  O222  1  0.50719104  0.36637326  0.24955137  1
  O  O223  1  0.50547916  0.36672959  0.75749199  1
  O  O224  1  0.50452909  0.86707494  0.25500237  1
  O  O225  1  0.50091455  0.86040607  0.74916057  1
  O  O226  1  0.49441837  0.12875249  0.24476092  1
  O  O227  1  0.50047664  0.14080382  0.75560060  1
  O  O228  1  0.49915230  0.63674933  0.24975360  1
  O  O229  1  0.49468550  0.63160443  0.74435770  1
  O  O230  1  0.99312918  0.12846022  0.24162410  1
  O  O231  1  0.99529041  0.13138391  0.74295692  1
  O  O232  1  0.99163190  0.63919161  0.25687639  1
  O  O233  1  0.99209421  0.63402289  0.75185363  1
  O  O234  1  0.36999711  0.25470988  0.00608226  1
  O  O235  1  0.36203265  0.25446644  0.49620814  1
  O  O236  1  0.37053502  0.75591597  0.00435332  1
  O  O237  1  0.38627111  0.75731807  0.51061362  1
  O  O238  1  0.86948453  0.25708973  0.00548162  1
  O  O239  1  0.86212937  0.25037706  0.50105341  1
  O  O240  1  0.87142727  0.75510790  0.00697112  1
  O  O241  1  0.86554905  0.75782457  0.49881045  1
  O  O242  1  0.13581250  0.25096125  0.49087960  1
  O  O243  1  0.12932155  0.24722242  0.99457458  1
  O  O244  1  0.11538381  0.74369339  0.48767379  1
  O  O245  1  0.13180708  0.74608126  0.99684177  1
  O  O246  1  0.63079196  0.23973534  0.50031920  1
  O  O247  1  0.63003363  0.24606209  0.99620688  1
  O  O248  1  0.63290437  0.74405405  0.49892558  1
  O  O249  1  0.62958406  0.74516456  0.99620641  1
  O  O250  1  0.49320007  0.24411790  0.13023631  1
  O  O251  1  0.50123576  0.25549849  0.64128518  1
  O  O252  1  0.49432449  0.74998350  0.13429097  1
  O  O253  1  0.49353267  0.74324796  0.63201551  1
  O  O254  1  0.99481076  0.24683202  0.12564453  1
  O  O255  1  0.99870251  0.24242184  0.63227267  1
  O  O256  1  0.98964019  0.75797569  0.13431478  1
  O  O257  1  0.99884780  0.75425981  0.63834702  1
  O  O258  1  0.00727382  0.25810214  0.37853940  1
  O  O259  1  0.00653654  0.25726055  0.86963427  1
  O  O260  1  0.00537373  0.75961326  0.36497739  1
  O  O261  1  -0.00172237  0.75848911  0.86542680  1
  O  O262  1  0.50251221  0.25022460  0.36699463  1
  O  O263  1  0.50522397  0.25582764  0.86906462  1
  O  O264  1  0.50124123  0.75490432  0.36587994  1
  O  O265  1  0.50408693  0.74790357  0.86486102  1
  O  O266  1  0.24870324  0.13204270  0.49338802  1
  O  O267  1  0.24302746  0.13329521  0.99774821  1
  O  O268  1  0.23612920  0.62132153  0.49714569  1
  O  O269  1  0.25147212  0.63106781  0.98938829  1
  O  O270  1  0.74254993  0.13135608  0.49539175  1
  O  O271  1  0.74492119  0.13252744  0.99530890  1
  O  O272  1  0.74683469  0.63248832  0.49581902  1
  O  O273  1  0.74465011  0.63132545  0.99476548  1
  O  O274  1  0.25530872  0.36930674  0.00876451  1
  O  O275  1  0.25348975  0.36495755  0.50748908  1
  O  O276  1  0.25592374  0.86950051  0.00333758  1
  O  O277  1  0.26755625  0.87652966  0.50838384  1
  O  O278  1  0.75518037  0.37177676  0.00583286  1
  O  O279  1  0.74922367  0.36355843  0.50116110  1
  O  O280  1  0.75687538  0.86925553  0.00077377  1
  O  O281  1  0.75748223  0.86628595  0.49642244  1
  O  O282  1  0.12151046  0.50298664  0.23698816  1
  O  O283  1  0.12770962  0.49194171  0.74616443  1
  O  O284  1  0.12675922  0.99748155  0.23845548  1
  O  O285  1  0.13992756  0.99691132  0.75648446  1
  O  O286  1  0.63096460  0.49530372  0.24531286  1
  O  O287  1  0.62946027  0.49600794  0.74585359  1
  O  O288  1  0.62920187  0.99687751  0.24556663  1
  O  O289  1  0.62753821  1.00188369  0.74043918  1
  O  O290  1  0.37575925  0.00512200  0.25672282  1
  O  O291  1  0.37058878  -0.00188392  0.75861065  1
  O  O292  1  0.37662414  0.49910901  0.26247834  1
  O  O293  1  0.37426343  0.50481017  0.75697797  1
  O  O294  1  0.86983297  0.00698389  0.25427820  1
  O  O295  1  0.86747173  0.00703263  0.75704527  1
  O  O296  1  0.87039029  0.50685899  0.25461958  1
  O  O297  1  0.87089742  0.51160830  0.75151370  1
  O  O298  1  0.11630594  0.36426673  0.38125664  1
  O  O299  1  0.12104444  0.37075399  0.86984525  1
  O  O300  1  0.11563757  0.86622411  0.37081974  1
  O  O301  1  0.11490233  0.87410909  0.87247778  1
  O  O302  1  0.62193495  0.37307190  0.36639928  1
  O  O303  1  0.61905920  0.37011370  0.87124472  1
  O  O304  1  0.61778498  0.87424786  0.36861805  1
  O  O305  1  0.62075294  0.86680659  0.87132869  1
  O  O306  1  0.37948345  0.12978886  0.12967388  1
  O  O307  1  0.37824187  0.12829835  0.62297450  1
  O  O308  1  0.37713120  0.63280028  0.12726264  1
  O  O309  1  0.37943888  0.63005348  0.62765963  1
  O  O310  1  0.88043478  0.13236128  0.12873880  1
  O  O311  1  0.88388731  0.12823295  0.63245729  1
  O  O312  1  0.86977015  0.63943668  0.13140978  1
  O  O313  1  0.87866447  0.63015289  0.63733338  1
  O  O314  1  0.25300387  0.25638459  0.12052264  1
  O  O315  1  0.24803685  0.25674618  0.61590002  1
  O  O316  1  0.25488977  0.75520485  0.11836345  1
  O  O317  1  0.26714938  0.75616775  0.63400437  1
  O  O318  1  0.75571253  0.25669044  0.11929600  1
  O  O319  1  0.75009860  0.24985283  0.61438576  1
  O  O320  1  0.75965867  0.75395823  0.11941620  1
  O  O321  1  0.75100731  0.75179077  0.61204463  1
  O  O322  1  0.24215688  0.24334642  0.38187672  1
  O  O323  1  0.24437690  0.25003195  0.88154356  1
  O  O324  1  0.23436314  0.75341595  0.36810128  1
  O  O325  1  0.25217326  0.74112499  0.87929934  1
  O  O326  1  0.74824610  0.24391994  0.38432409  1
  O  O327  1  0.74405414  0.24621127  0.88100139  1
  O  O328  1  0.74886156  0.74403500  0.38447293  1
  O  O329  1  0.74427671  0.74498095  0.88097726  1
  O  O330  1  0.00474624  0.12164648  0.00455334  1
  O  O331  1  -0.00226511  0.12570979  0.51568394  1
  O  O332  1  -0.00114316  0.61261934  -0.00711401  1
  O  O333  1  0.00848273  0.61867163  0.49909018  1
  O  O334  1  0.50553585  0.12052461  0.00581658  1
  O  O335  1  0.50918390  0.11281302  0.49150438  1
  O  O336  1  0.50663216  0.61782655  0.00094658  1
  O  O337  1  0.50637069  0.61752106  0.50616228  1
  O  O338  1  0.49303967  0.37876515  0.50093113  1
  O  O339  1  0.49421705  0.37943043  0.99586323  1
  O  O340  1  0.49211888  0.88211183  0.49558232  1
  O  O341  1  0.49358157  0.88244045  0.99956711  1
  O  O342  1  1.00113378  0.38643526  0.49228687  1
  O  O343  1  0.99478645  0.38460129  0.99456243  1
  O  O344  1  0.98454583  0.86644522  0.48567782  1
  O  O345  1  0.99343579  0.88227666  0.99368235  1
  O  O346  1  0.49093972  0.49702104  0.38278693  1
  O  O347  1  0.49416416  0.49442573  0.88125566  1
  O  O348  1  0.49424890  0.99320930  0.38435580  1
  O  O349  1  0.49250040  0.99893378  0.88044029  1
  O  O350  1  0.99789127  0.49471430  0.38235754  1
  O  O351  1  0.99948785  0.49407881  0.88429529  1
  O  O352  1  0.99407309  0.98751845  0.36528588  1
  O  O353  1  0.99331571  0.99720716  0.87939463  1
  O  O354  1  0.00402465  0.00660837  0.11770803  1
  O  O355  1  -0.00346666  0.01519377  0.63374395  1
  O  O356  1  0.01327940  0.49317056  0.11733459  1
  O  O357  1  0.00250215  0.50374497  0.61290649  1
  O  O358  1  0.50490149  0.00629810  0.11968893  1
  O  O359  1  0.50750553  -0.00710488  0.61312953  1
  O  O360  1  0.50655136  0.49958116  0.11912509  1
  O  O361  1  0.50482470  0.50360545  0.62079818  1
  O  O362  1  0.25457602  0.37601549  0.23712069  1
  O  O363  1  0.24533048  0.37317863  0.74036343  1
  O  O364  1  0.24724635  0.87798368  0.23825768  1
  O  O365  1  0.25243830  0.88173391  0.74280822  1
  O  O366  1  0.74668171  0.38139466  0.24555375  1
  O  O367  1  0.74289739  0.38201669  0.75176750  1
  O  O368  1  0.74354279  0.88300061  0.25030847  1
  O  O369  1  0.74772942  0.88394337  0.74811099  1
  O  O370  1  0.25680845  0.12216852  0.25761042  1
  O  O371  1  0.25453549  0.11414743  0.75036870  1
  O  O372  1  0.25442155  0.61874107  0.25778051  1
  O  O373  1  0.25614150  0.62365597  0.75886721  1
  O  O374  1  0.75620595  0.12108555  0.25540078  1
  O  O375  1  0.75348406  0.12142468  0.75649744  1
  O  O376  1  0.75500179  0.62016687  0.25594784  1
  O  O377  1  0.75720935  0.62210545  0.75468580  1
  O  O378  1  0.36832022  0.11734210  0.37020436  1
  O  O379  1  0.37400042  0.11180857  0.87377738  1
  O  O380  1  0.37278164  0.61246042  0.37756010  1
  O  O381  1  0.36675897  0.61934043  0.87004440  1
  O  O382  1  0.87192587  0.12031565  0.36981985  1
  O  O383  1  0.86947484  0.12120520  0.87062209  1
  O  O384  1  0.86995398  0.62070331  0.36895653  1
  O  O385  1  0.86781154  0.62522840  0.86432254  1
  O  O386  1  0.13467785  0.38688464  0.11980126  1
  O  O387  1  0.13476376  0.37477859  0.62966729  1
  O  O388  1  0.13063028  0.88247158  0.12283707  1
  O  O389  1  0.14628737  0.86055934  0.62953778  1
  O  O390  1  0.63234784  0.38094717  0.13049981  1
  O  O391  1  0.62845346  0.38245888  0.63316878  1
  O  O392  1  0.62671229  0.88357105  0.13203226  1
  O  O393  1  0.62781169  0.88754705  0.62519052  1
  O  O394  1  0.12341026  0.24221642  0.26743693  1
  O  O395  1  0.12051498  0.25601846  0.75591587  1
  O  O396  1  0.11473567  0.74935201  0.25522212  1
  O  O397  1  0.11347679  0.75180426  0.75531925  1
  O  O398  1  0.61917886  0.25531246  0.25071356  1
  O  O399  1  0.61615102  0.25425430  0.75598651  1
  O  O400  1  0.61628528  0.75618437  0.24983024  1
  O  O401  1  0.61573171  0.74753334  0.75416235  1
  O  O402  1  0.37948212  0.24279651  0.24497137  1
  O  O403  1  0.38992486  0.25019966  0.75217962  1
  O  O404  1  0.38595573  0.75114505  0.24417769  1
  O  O405  1  0.38425116  0.74318791  0.74258522  1
  O  O406  1  0.87623469  0.24464745  0.24349899  1
  O  O407  1  0.88214923  0.24365395  0.75217836  1
  O  O408  1  0.88028848  0.74752580  0.24338667  1
  O  O409  1  0.88113010  0.74308127  0.74977203  1
  O  O410  1  0.38026569  0.49216340  0.49374587  1
  O  O411  1  0.38008739  0.49425146  0.99601760  1
  O  O412  1  0.38274727  0.99051156  0.49515806  1
  O  O413  1  0.37989631  0.99597498  0.99224603  1
  O  O414  1  0.88617426  0.50424761  0.49371495  1
  O  O415  1  0.88377195  0.49586292  1.00169080  1
  O  O416  1  0.86514226  0.98869163  0.49144465  1
  O  O417  1  0.87980967  0.99734694  0.99492957  1
  O  O418  1  0.11872424  0.00726629  0.00325581  1
  O  O419  1  0.11744937  -0.02808668  0.50796804  1
  O  O420  1  0.11592615  0.50282450  0.00862779  1
  O  O421  1  0.11656888  0.51107681  0.49939453  1
  O  O422  1  0.62041705  0.00646051  0.00499458  1
  O  O423  1  0.61828125  0.00511123  0.50537694  1
  O  O424  1  0.62004971  0.50460885  0.00573044  1
  O  O425  1  0.62063821  0.50432035  0.50588746  1
  O  O426  1  0.36659390  0.36900821  0.11981331  1
  O  O427  1  0.36561582  0.36802324  0.61884518  1
  O  O428  1  0.36901542  0.86972548  0.11797384  1
  O  O429  1  0.37188355  0.86533902  0.61785451  1
  O  O430  1  0.87019311  0.37166699  0.12080018  1
  O  O431  1  0.87117967  0.37096807  0.62086141  1
  O  O432  1  0.87319471  0.86659283  0.11903713  1
  O  O433  1  0.87155034  0.87502262  0.61229787  1
  O  O434  1  0.12697546  0.12826661  0.38308738  1
  O  O435  1  0.12587291  0.13353909  0.88104673  1
  O  O436  1  0.12523100  0.63498091  0.38276448  1
  O  O437  1  0.13835077  0.62551751  0.87616407  1
  O  O438  1  0.63246491  0.12323894  0.38654643  1
  O  O439  1  0.63067247  0.13080793  0.88216480  1
  O  O440  1  0.63260036  0.62503239  0.38267365  1
  O  O441  1  0.62974643  0.63067392  0.88129668  1
