# generated using pymatgen
data_V93Zn93O256
_symmetry_space_group_name_H-M   'P 1'
_cell_length_a   17.05555051
_cell_length_b   17.05171065
_cell_length_c   17.05132924
_cell_angle_alpha   90.01660490
_cell_angle_beta   89.96258839
_cell_angle_gamma   90.02307687
_symmetry_Int_Tables_number   1
_chemical_formula_structural   V93Zn93O256
_chemical_formula_sum   'V93 Zn93 O256'
_cell_volume   4958.97353586
_cell_formula_units_Z   1
loop_
 _symmetry_equiv_pos_site_id
 _symmetry_equiv_pos_as_xyz
  1  'x, y, z'
loop_
 _atom_site_type_symbol
 _atom_site_label
 _atom_site_symmetry_multiplicity
 _atom_site_fract_x
 _atom_site_fract_y
 _atom_site_fract_z
 _atom_site_occupancy
  V  V0  1  0.87984666  0.87343713  0.49699311  1
  V  V1  1  0.62435174  0.37502644  0.24696602  1
  V  V2  1  0.12416986  0.37568902  0.74967042  1
  V  V3  1  0.74980184  0.24897307  0.49701050  1
  V  V4  1  0.00074614  0.12477549  0.12692118  1
  V  V5  1  0.50501913  0.49981563  0.50037411  1
  V  V6  1  0.87456801  0.24815330  0.62551793  1
  V  V7  1  0.74927016  0.62428874  0.37504864  1
  V  V8  1  0.87511068  0.62498942  0.25130655  1
  V  V9  1  0.49925977  -0.00059461  0.49861729  1
  V  V10  1  -0.00219119  0.25057198  0.74930444  1
  V  V11  1  0.25081655  0.00097540  0.25016071  1
  V  V12  1  0.62571777  0.24878487  0.37131787  1
  V  V13  1  0.74917519  0.74771619  0.50068105  1
  V  V14  1  0.12498864  0.87544448  0.75071726  1
  V  V15  1  0.12444897  0.12693681  0.49324003  1
  V  V16  1  0.37380175  0.50183059  0.87662237  1
  V  V17  1  0.12422396  0.36782501  0.25486738  1
  V  V18  1  0.62992769  0.62621102  -0.00397877  1
  V  V19  1  0.25048736  0.75047795  -0.00041273  1
  V  V20  1  0.12567269  0.00012984  0.12552061  1
  V  V21  1  0.12493757  0.24895613  0.87419949  1
  V  V22  1  0.24678623  0.37520449  0.62355886  1
  V  V23  1  0.75111883  0.74734883  -0.00388053  1
  V  V24  1  0.62536063  0.50192685  0.12431551  1
  V  V25  1  0.37452875  0.87589597  0.49934458  1
  V  V26  1  0.74876729  0.24425134  -0.00114612  1
  V  V27  1  0.00185937  0.87489623  0.87608745  1
  V  V28  1  0.00106016  -0.00361762  0.49581507  1
  V  V29  1  0.50535759  0.62308353  0.62498569  1
  V  V30  1  0.12493869  0.00013135  0.62359784  1
  V  V31  1  0.24941244  0.62515928  0.37536751  1
  V  V32  1  0.75111760  0.37459845  0.12507967  1
  V  V33  1  0.12265117  0.75350333  0.37579433  1
  V  V34  1  0.38244416  0.00166860  0.87708177  1
  V  V35  1  0.87676920  0.37443522  0.00059735  1
  V  V36  1  0.38345696  0.87961639  -0.00047611  1
  V  V37  1  0.37391588  0.62657107  0.25000018  1
  V  V38  1  0.74372215  0.37883079  0.62659659  1
  V  V39  1  0.62216157  -0.00076848  0.11763018  1
  V  V40  1  0.12662770  0.12490917  -0.00007483  1
  V  V41  1  0.24870616  0.62713430  0.87484926  1
  V  V42  1  0.00029564  0.62446522  0.12703904  1
  V  V43  1  0.24687926  0.50141894  0.74963963  1
  V  V44  1  0.25007353  0.37340736  0.12478976  1
  V  V45  1  0.37378530  0.24851203  0.62645273  1
  V  V46  1  0.87779209  0.24904200  0.12952431  1
  V  V47  1  0.62569825  0.74968185  0.37536981  1
  V  V48  1  0.75182806  0.87992590  0.12931244  1
  V  V49  1  0.24941503  0.12473784  0.87376473  1
  V  V50  1  0.12335189  0.50014175  0.12575500  1
  V  V51  1  0.75184338  -0.00059892  0.74983681  1
  V  V52  1  0.25077365  0.87549789  0.12513062  1
  V  V53  1  0.12587419  0.75169312  0.87544276  1
  V  V54  1  -0.00155871  0.62369812  0.62541227  1
  V  V55  1  -0.00058352  0.49946885  0.50002215  1
  V  V56  1  0.00077847  0.75310945  0.25536482  1
  V  V57  1  0.50003727  0.75226269  0.75220052  1
  V  V58  1  -0.00091788  0.37627844  0.87575434  1
  V  V59  1  0.62556741  0.00019082  0.62414116  1
  V  V60  1  0.49934045  0.12608793  0.62668372  1
  V  V61  1  0.37431122  0.62754742  0.74982064  1
  V  V62  1  0.24975093  0.75069752  0.50035369  1
  V  V63  1  0.37358950  0.37531146  0.49642944  1
  V  V64  1  0.37517902  0.75115113  0.12559593  1
  V  V65  1  0.24987868  0.50064281  0.25148080  1
  V  V66  1  0.86958534  -0.00066858  0.37141166  1
  V  V67  1  0.25054661  0.00144309  0.74982364  1
  V  V68  1  0.25045374  0.87545953  0.62403147  1
  V  V69  1  0.49984495  0.50310994  0.00050970  1
  V  V70  1  0.87199006  0.62399171  0.75818482  1
  V  V71  1  -0.00072988  0.50010249  0.00120186  1
  V  V72  1  0.62534132  0.12451658  0.49659908  1
  V  V73  1  0.74513340  0.49935338  0.75463011  1
  V  V74  1  0.50083008  0.25030069  0.24431929  1
  V  V75  1  0.12432173  0.62512050  0.50106400  1
  V  V76  1  0.24452027  0.24928318  0.49213505  1
  V  V77  1  0.37640530  0.12523152  0.24916269  1
  V  V78  1  0.00287202  0.36768759  0.37554307  1
  V  V79  1  0.75002908  0.87420530  0.62505250  1
  V  V80  1  0.49953439  0.75102774  0.25059625  1
  V  V81  1  0.74976760  0.50088411  0.25078463  1
  V  V82  1  0.63026953  0.88118577  0.25101951  1
  V  V83  1  0.50127883  0.12226980  0.11469299  1
  V  V84  1  0.62456186  0.87460239  0.75022511  1
  V  V85  1  0.87505794  0.00141158  0.87466239  1
  V  V86  1  0.50010874  0.87597413  0.37556743  1
  V  V87  1  0.37451592  0.37753202  -0.00156521  1
  V  V88  1  0.87459944  0.74829384  0.62644418  1
  V  V89  1  0.49918261  0.37584264  0.37205931  1
  V  V90  1  0.12431824  0.87440900  0.25358797  1
  V  V91  1  0.87558424  0.37476223  0.49872669  1
  V  V92  1  0.87584369  0.87420038  0.00141177  1
  Zn  Zn93  1  0.87119231  0.50332642  0.87942673  1
  Zn  Zn94  1  0.87554547  0.75084808  0.12701154  1
  Zn  Zn95  1  0.86848709  0.11673448  0.24704244  1
  Zn  Zn96  1  0.58242425  0.44344043  0.68211787  1
  Zn  Zn97  1  0.74431422  0.11898765  0.36459495  1
  Zn  Zn98  1  0.87444384  0.49864285  0.37544072  1
  Zn  Zn99  1  0.37503030  0.50157775  0.37430401  1
  Zn  Zn100  1  0.50500861  0.88078307  0.87890862  1
  Zn  Zn101  1  0.00027011  0.12391076  0.62528144  1
  Zn  Zn102  1  0.51787833  0.26746115  0.73997111  1
  Zn  Zn103  1  0.24648788  0.12747129  0.37064047  1
  Zn  Zn104  1  0.50884854  0.37908295  0.86112009  1
  Zn  Zn105  1  0.50080026  0.62706767  0.12604790  1
  Zn  Zn106  1  0.12420202  0.50069829  0.62523700  1
  Zn  Zn107  1  -0.00057591  0.74810029  0.75139182  1
  Zn  Zn108  1  0.00109838  -0.00153304  0.00060315  1
  Zn  Zn109  1  0.12366682  0.62564310  -0.00020335  1
  Zn  Zn110  1  0.62166564  0.25132698  0.86675851  1
  Zn  Zn111  1  0.62187065  0.11829660  -0.00560259  1
  Zn  Zn112  1  0.87566796  0.12452151  0.74987851  1
  Zn  Zn113  1  0.37378405  0.00110838  0.37465045  1
  Zn  Zn114  1  0.62763847  0.62114535  0.50232572  1
  Zn  Zn115  1  0.37500033  0.75083777  0.62424990  1
  Zn  Zn116  1  0.25147957  0.25000592  -0.00254866  1
  Zn  Zn117  1  0.37672348  0.12790190  0.75271926  1
  Zn  Zn118  1  0.74665364  0.12614080  0.87260837  1
  Zn  Zn119  1  0.37929369  0.25008535  0.11977883  1
  Zn  Zn120  1  0.00391654  0.24391093  0.25734749  1
  Zn  Zn121  1  0.62887761  0.75023571  0.87437644  1
  Zn  Zn122  1  0.18933988  0.18836791  0.18583161  1
  Zn  Zn123  1  0.18644155  0.18638769  0.68467078  1
  Zn  Zn124  1  0.18674365  0.68780612  0.18719186  1
  Zn  Zn125  1  0.18586248  0.68923450  0.68703633  1
  Zn  Zn126  1  0.68898956  0.18348339  0.18619754  1
  Zn  Zn127  1  0.68974714  0.18689339  0.68916597  1
  Zn  Zn128  1  0.68799314  0.69036911  0.18547175  1
  Zn  Zn129  1  0.68824156  0.68517764  0.68995230  1
  Zn  Zn130  1  0.31460203  0.31166665  0.30983420  1
  Zn  Zn131  1  0.31188956  0.31418020  0.81314125  1
  Zn  Zn132  1  0.31133662  0.81326775  0.31418421  1
  Zn  Zn133  1  0.31392848  0.81548688  0.81315262  1
  Zn  Zn134  1  0.81319947  0.31171483  0.31245330  1
  Zn  Zn135  1  0.81002454  0.31572809  0.81263802  1
  Zn  Zn136  1  0.81389583  0.81174387  0.31459507  1
  Zn  Zn137  1  0.81415147  0.81347653  0.81324435  1
  Zn  Zn138  1  0.18538675  0.43865975  0.43721411  1
  Zn  Zn139  1  0.18548152  0.43956926  0.93719617  1
  Zn  Zn140  1  0.18900914  0.93921546  0.43437315  1
  Zn  Zn141  1  0.19128207  0.93891607  0.93870744  1
  Zn  Zn142  1  0.68746956  0.43487794  0.43641130  1
  Zn  Zn143  1  0.68677064  0.43370800  0.93591615  1
  Zn  Zn144  1  0.68893628  0.93504856  0.43991562  1
  Zn  Zn145  1  0.69020832  0.93342846  0.93750656  1
  Zn  Zn146  1  0.31356125  0.06230340  0.06113606  1
  Zn  Zn147  1  0.31127797  0.06324764  0.56058213  1
  Zn  Zn148  1  0.31052115  0.56394124  0.06416019  1
  Zn  Zn149  1  0.31558477  0.56314699  0.56250169  1
  Zn  Zn150  1  0.81262246  0.06058875  0.06263952  1
  Zn  Zn151  1  0.81080782  0.06285395  0.55883214  1
  Zn  Zn152  1  0.81382836  0.56382040  0.06499106  1
  Zn  Zn153  1  0.81273911  0.56049876  0.56556030  1
  Zn  Zn154  1  0.43729502  0.44103362  0.18511615  1
  Zn  Zn155  1  0.42142029  0.44000671  0.68431400  1
  Zn  Zn156  1  0.44025871  0.93925888  0.18694397  1
  Zn  Zn157  1  0.43615531  0.93887236  0.68801464  1
  Zn  Zn158  1  0.93772100  0.43728628  0.19044086  1
  Zn  Zn159  1  0.93352414  0.43889838  0.68788381  1
  Zn  Zn160  1  0.94071589  0.93480603  0.18763523  1
  Zn  Zn161  1  0.93981134  0.93558402  0.68651075  1
  Zn  Zn162  1  0.05928154  0.05908512  0.31344072  1
  Zn  Zn163  1  0.06029173  0.06325935  0.81106300  1
  Zn  Zn164  1  0.06219793  0.55994294  0.31447053  1
  Zn  Zn165  1  0.06031809  0.56314242  0.81339817  1
  Zn  Zn166  1  0.56084921  0.06194275  0.30832945  1
  Zn  Zn167  1  0.56644554  0.06713068  0.81141357  1
  Zn  Zn168  1  0.56181410  0.56336738  0.31292821  1
  Zn  Zn169  1  0.56054006  0.56744379  0.81803501  1
  Zn  Zn170  1  0.43735992  0.18884585  0.43605022  1
  Zn  Zn171  1  0.43851028  0.19612914  0.92932872  1
  Zn  Zn172  1  0.43678075  0.68794975  0.43736137  1
  Zn  Zn173  1  0.43853699  0.68816102  0.93896539  1
  Zn  Zn174  1  0.93738740  0.18340243  0.43969012  1
  Zn  Zn175  1  0.93843066  0.18664558  0.93975473  1
  Zn  Zn176  1  0.93653197  0.68546298  0.43707147  1
  Zn  Zn177  1  0.93874122  0.68916616  0.93956161  1
  Zn  Zn178  1  0.06395230  0.31149126  0.06215249  1
  Zn  Zn179  1  0.06222781  0.31218884  0.56258670  1
  Zn  Zn180  1  0.06288278  0.81150762  0.06488393  1
  Zn  Zn181  1  0.06175286  0.81079777  0.56492013  1
  Zn  Zn182  1  0.56897750  0.31826894  0.04529673  1
  Zn  Zn183  1  0.56121029  0.30915339  0.55500179  1
  Zn  Zn184  1  0.56484862  0.81041441  0.06509635  1
  Zn  Zn185  1  0.56186062  0.81090042  0.56365546  1
  O  O186  1  0.11869176  0.12097059  0.12143836  1
  O  O187  1  0.12461452  0.11684704  0.61323987  1
  O  O188  1  0.11896684  0.61748287  0.12469774  1
  O  O189  1  0.11724627  0.62448436  0.61882443  1
  O  O190  1  0.61749313  0.11370034  0.12496113  1
  O  O191  1  0.61754069  0.12010607  0.61683848  1
  O  O192  1  0.62398076  0.61997598  0.11677136  1
  O  O193  1  0.60960985  0.62977244  0.62286414  1
  O  O194  1  0.38184398  0.37589799  0.37923892  1
  O  O195  1  0.37068879  0.38464585  0.88550968  1
  O  O196  1  0.38223510  0.87688254  0.38099548  1
  O  O197  1  0.37710227  0.88404625  0.88299570  1
  O  O198  1  0.88357128  0.37646072  0.38043042  1
  O  O199  1  0.88321547  0.37544370  0.88321951  1
  O  O200  1  0.87036655  0.88327510  0.38880323  1
  O  O201  1  0.88150846  0.88246194  0.88049715  1
  O  O202  1  0.25363557  0.00530776  0.36530058  1
  O  O203  1  0.25838851  0.00571860  0.86907075  1
  O  O204  1  0.25113368  0.50717048  0.36932471  1
  O  O205  1  0.25312918  0.50762168  0.86954339  1
  O  O206  1  0.76565944  -0.00050960  0.38295577  1
  O  O207  1  0.76124368  -0.00316380  0.86912046  1
  O  O208  1  0.74962439  0.50575407  0.36814676  1
  O  O209  1  0.75303506  0.49035521  0.85970567  1
  O  O210  1  0.24388647  0.49158319  0.13112070  1
  O  O211  1  0.25024124  0.49355470  0.63126631  1
  O  O212  1  0.24483008  0.99514329  0.13080063  1
  O  O213  1  0.24463656  0.99480066  0.62907179  1
  O  O214  1  0.74516539  0.49408377  0.13103237  1
  O  O215  1  0.75503948  0.48857865  0.63570992  1
  O  O216  1  0.74300231  0.98632125  0.12285176  1
  O  O217  1  0.74528825  0.99383476  0.62813757  1
  O  O218  1  0.00826178  0.37419187  0.25829880  1
  O  O219  1  0.00403820  0.37060516  0.75519858  1
  O  O220  1  0.00872502  0.86109665  0.24427536  1
  O  O221  1  0.00762638  0.87245225  0.75663349  1
  O  O222  1  0.50466188  0.37120472  0.25173183  1
  O  O223  1  0.50282079  0.38617929  0.74263173  1
  O  O224  1  0.50864262  0.87032018  0.25560268  1
  O  O225  1  0.50558712  0.86650076  0.74810411  1
  O  O226  1  0.49301296  0.12985705  0.23985617  1
  O  O227  1  0.49834012  0.12338807  0.73178578  1
  O  O228  1  0.49289871  0.63319820  0.24991760  1
  O  O229  1  0.49538942  0.63144637  0.74368086  1
  O  O230  1  0.99751648  0.12586181  0.23951716  1
  O  O231  1  0.99627972  0.13372568  0.74478706  1
  O  O232  1  0.99603963  0.63116745  0.24657240  1
  O  O233  1  0.99007504  0.62527616  0.74374413  1
  O  O234  1  0.37089975  0.26424013  0.00053836  1
  O  O235  1  0.36717126  0.25398178  0.50758227  1
  O  O236  1  0.36959262  0.75841116  0.00482808  1
  O  O237  1  0.36769407  0.75754171  0.50101199  1
  O  O238  1  0.87156513  0.25379690  0.01124337  1
  O  O239  1  0.87038071  0.25480931  0.50682727  1
  O  O240  1  0.86807583  0.75581194  0.00404230  1
  O  O241  1  0.87042438  0.75636992  0.50454584  1
  O  O242  1  0.13402542  0.23981696  0.50729970  1
  O  O243  1  0.12751953  0.24384312  0.99222234  1
  O  O244  1  0.12926807  0.74516832  0.49537592  1
  O  O245  1  0.13301928  0.75023561  0.99400901  1
  O  O246  1  0.62936859  0.24341324  0.49043419  1
  O  O247  1  0.64382866  0.23903213  1.01319868  1
  O  O248  1  0.63173367  0.74999666  0.49330842  1
  O  O249  1  0.63296207  0.74328732  1.00123187  1
  O  O250  1  0.50149172  0.24166380  0.12949177  1
  O  O251  1  0.49096834  0.24309667  0.62138864  1
  O  O252  1  0.49269688  0.75026971  0.13326533  1
  O  O253  1  0.49746128  0.74299432  0.63518757  1
  O  O254  1  0.99370514  0.24093214  0.12515846  1
  O  O255  1  0.98873719  0.25174703  0.62967087  1
  O  O256  1  1.00044709  0.74287289  0.13715655  1
  O  O257  1  0.99203908  0.74251166  0.62749947  1
  O  O258  1  -0.00558352  0.26259478  0.37554273  1
  O  O259  1  0.00491791  0.25537334  0.86979959  1
  O  O260  1  0.00695271  0.74268298  0.36356636  1
  O  O261  1  0.00755844  0.75752275  0.87432375  1
  O  O262  1  0.50562856  0.25615661  0.36682149  1
  O  O263  1  0.49526599  0.25905040  0.85634817  1
  O  O264  1  0.50600945  0.75682854  0.37063763  1
  O  O265  1  0.50128589  0.75037206  0.86084864  1
  O  O266  1  0.24233872  0.13208090  0.49731289  1
  O  O267  1  0.24408436  0.12696079  0.99342925  1
  O  O268  1  0.24523964  0.63046016  0.49606606  1
  O  O269  1  0.24858681  0.63243176  0.99317690  1
  O  O270  1  0.74175800  0.13139778  0.49553693  1
  O  O271  1  0.75340000  0.13319670  0.99820729  1
  O  O272  1  0.74867396  0.62950479  0.49557338  1
  O  O273  1  0.74290207  0.63585103  1.00914677  1
  O  O274  1  0.25737373  0.37930691  0.00891421  1
  O  O275  1  0.25196007  0.36795319  0.50307966  1
  O  O276  1  0.25990572  0.86986689  0.00602136  1
  O  O277  1  0.25432376  0.87070460  0.50437110  1
  O  O278  1  0.75864006  0.36664469  0.00792341  1
  O  O279  1  0.75586580  0.37009329  0.50563419  1
  O  O280  1  0.75567151  0.86720211  0.01035525  1
  O  O281  1  0.75908939  0.86813369  0.50674935  1
  O  O282  1  0.13031161  0.49027645  0.24512958  1
  O  O283  1  0.13032257  0.49377176  0.74893966  1
  O  O284  1  0.12993686  0.99503411  0.24515944  1
  O  O285  1  0.13008156  0.99503158  0.74421533  1
  O  O286  1  0.62976598  0.49472833  0.24444377  1
  O  O287  1  0.63993553  0.51088601  0.75291900  1
  O  O288  1  0.62181094  0.98610574  0.24171406  1
  O  O289  1  0.63107027  0.99446898  0.74260593  1
  O  O290  1  0.37004364  0.00946419  0.24868573  1
  O  O291  1  0.36764239  0.00176955  0.75828888  1
  O  O292  1  0.36738326  0.50762722  0.25059894  1
  O  O293  1  0.36550097  0.50843569  0.75691338  1
  O  O294  1  0.88436338  -0.00688514  0.26995338  1
  O  O295  1  0.87096719  -0.00326116  0.75844456  1
  O  O296  1  0.86705164  0.50624294  0.25145938  1
  O  O297  1  0.86595025  0.50781167  0.75325375  1
  O  O298  1  0.11590629  0.37948910  0.36561482  1
  O  O299  1  0.11967269  0.36911465  0.86948254  1
  O  O300  1  0.13146418  0.86627541  0.36650660  1
  O  O301  1  0.12209871  0.87203131  0.87066146  1
  O  O302  1  0.61864035  0.36883434  0.36672827  1
  O  O303  1  0.60830390  0.35842730  0.91485333  1
  O  O304  1  0.62219696  0.87072159  0.36831103  1
  O  O305  1  0.62155074  0.87358997  0.86695701  1
  O  O306  1  0.38243426  0.12524135  0.13246577  1
  O  O307  1  0.38261575  0.13289275  0.62252632  1
  O  O308  1  0.37449794  0.63355972  0.13215336  1
  O  O309  1  0.38640644  0.62715832  0.63144301  1
  O  O310  1  0.88503405  0.13034694  0.12479836  1
  O  O311  1  0.87464990  0.13828697  0.62262025  1
  O  O312  1  0.88220732  0.62772746  0.13441617  1
  O  O313  1  0.87988088  0.63004346  0.63301747  1
  O  O314  1  0.25160819  0.26390860  0.12173259  1
  O  O315  1  0.25630753  0.25408854  0.61449215  1
  O  O316  1  0.25534955  0.75649050  0.12040495  1
  O  O317  1  0.25089863  0.75726898  0.61801012  1
  O  O318  1  0.76160904  0.25431797  0.11962725  1
  O  O319  1  0.75822400  0.25769853  0.61790804  1
  O  O320  1  0.75162931  0.76211256  0.11684256  1
  O  O321  1  0.75490705  0.75425833  0.62025325  1
  O  O322  1  0.25593205  0.24835545  0.38859564  1
  O  O323  1  0.24293062  0.24317197  0.87391139  1
  O  O324  1  0.24296013  0.74436395  0.38109485  1
  O  O325  1  0.24585892  0.74657043  0.87957004  1
  O  O326  1  0.74288057  0.25092725  0.38101132  1
  O  O327  1  0.75500356  0.24930810  0.88934319  1
  O  O328  1  0.74536921  0.74440629  0.38136163  1
  O  O329  1  0.74918923  0.75857691  0.89174710  1
  O  O330  1  0.00717393  0.12276955  0.01155260  1
  O  O331  1  0.00801991  0.11608260  0.50375950  1
  O  O332  1  0.00067789  0.61890555  0.00861599  1
  O  O333  1  0.00407042  0.61969999  0.50501900  1
  O  O334  1  0.49789348  0.13406010  0.01235722  1
  O  O335  1  0.50436356  0.12074366  0.50762998  1
  O  O336  1  0.50893882  0.62135218  0.00357576  1
  O  O337  1  0.49879193  0.61716211  0.50737698  1
  O  O338  1  0.49419560  0.38141178  0.49339857  1
  O  O339  1  0.48124129  0.38517331  1.01003761  1
  O  O340  1  0.49525652  0.87978130  0.49572138  1
  O  O341  1  0.48711383  0.86795851  0.99906503  1
  O  O342  1  0.99683161  0.37876522  0.49325957  1
  O  O343  1  0.99593068  0.37993052  0.99642022  1
  O  O344  1  0.98909778  0.88179759  0.50721422  1
  O  O345  1  0.99412470  0.87567509  0.99576330  1
  O  O346  1  0.49672054  0.49417787  0.38153593  1
  O  O347  1  0.49149804  0.49937308  0.88261930  1
  O  O348  1  0.49962373  0.99319765  0.38119219  1
  O  O349  1  0.48578523  1.00166976  0.86669814  1
  O  O350  1  0.99758964  0.48907912  0.38200322  1
  O  O351  1  0.99871988  0.49316749  0.88332632  1
  O  O352  1  0.99053618  1.00039746  0.38985983  1
  O  O353  1  0.99196312  0.99346784  0.87663082  1
  O  O354  1  0.00610921  0.00891716  0.12500286  1
  O  O355  1  0.00532906  0.00043030  0.61393016  1
  O  O356  1  0.00436486  0.50423703  0.12142758  1
  O  O357  1  0.00013826  0.50538101  0.61813060  1
  O  O358  1  0.51001043  0.00955956  0.12851510  1
  O  O359  1  0.50496142  0.00719671  0.61850503  1
  O  O360  1  0.50773308  0.50431415  0.11901839  1
  O  O361  1  0.49892547  0.50614913  0.61792201  1
  O  O362  1  0.24390930  0.37905839  0.24399521  1
  O  O363  1  0.24420109  0.38135722  0.74437828  1
  O  O364  1  0.24557880  0.88045530  0.24352208  1
  O  O365  1  0.24465011  0.88134736  0.74435521  1
  O  O366  1  0.74413812  0.37986146  0.24425118  1
  O  O367  1  0.75447795  0.38859986  0.74008192  1
  O  O368  1  0.74025728  0.86569607  0.24172675  1
  O  O369  1  0.74491629  0.87890266  0.74340092  1
  O  O370  1  0.25919600  0.12178228  0.24829015  1
  O  O371  1  0.25075501  0.11870266  0.75519106  1
  O  O372  1  0.25358911  0.62062549  0.25552655  1
  O  O373  1  0.25433775  0.62192346  0.75459790  1
  O  O374  1  0.75626115  0.12600578  0.25257729  1
  O  O375  1  0.75618772  0.11381860  0.75131308  1
  O  O376  1  0.75447582  0.62147413  0.25458028  1
  O  O377  1  0.75995105  0.61082732  0.74183846  1
  O  O378  1  0.37690312  0.12436410  0.35960381  1
  O  O379  1  0.36881964  0.11820266  0.87348542  1
  O  O380  1  0.36681682  0.62584044  0.36797337  1
  O  O381  1  0.36870238  0.62145370  0.86991931  1
  O  O382  1  0.87531633  0.10850928  0.37627007  1
  O  O383  1  0.87646133  0.11086938  0.87488999  1
  O  O384  1  0.86688650  0.62245691  0.36901015  1
  O  O385  1  0.87996900  0.62445110  0.86249601  1
  O  O386  1  0.13181483  0.38013888  0.13210462  1
  O  O387  1  0.13046475  0.37613268  0.63183495  1
  O  O388  1  0.13170370  0.88031127  0.13180160  1
  O  O389  1  0.13065677  0.88044069  0.62984971  1
  O  O390  1  0.63144101  0.38181482  0.12787069  1
  O  O391  1  0.63851624  0.37144919  0.61451887  1
  O  O392  1  0.63087010  0.88061314  0.13218904  1
  O  O393  1  0.63042200  0.88078793  0.62928951  1
  O  O394  1  0.12376584  0.26383710  0.24468977  1
  O  O395  1  0.11884211  0.25565493  0.75385412  1
  O  O396  1  0.11908962  0.75396367  0.25573179  1
  O  O397  1  0.12426445  0.75808162  0.75753988  1
  O  O398  1  0.61984775  0.25639590  0.25189041  1
  O  O399  1  0.63063572  0.25520014  0.75158877  1
  O  O400  1  0.61950702  0.75968740  0.25495780  1
  O  O401  1  0.61781842  0.75492922  0.75124606  1
  O  O402  1  0.38110022  0.24138784  0.24464622  1
  O  O403  1  0.37072728  0.25094024  0.73218825  1
  O  O404  1  0.37912135  0.74713223  0.24510919  1
  O  O405  1  0.38324757  0.74614424  0.74862885  1
  O  O406  1  0.87976656  0.25113733  0.23678798  1
  O  O407  1  0.87835489  0.25105759  0.74027931  1
  O  O408  1  0.88498933  0.74515823  0.25133895  1
  O  O409  1  0.87328774  0.74128407  0.74462845  1
  O  O410  1  0.38556297  0.49346161  0.49811202  1
  O  O411  1  0.37825450  0.49726362  0.99600870  1
  O  O412  1  0.38149800  0.99472115  0.49761648  1
  O  O413  1  0.36915340  0.98986057  0.98984207  1
  O  O414  1  0.88147962  0.49193219  0.49948668  1
  O  O415  1  0.88045729  0.49336423  1.00058812  1
  O  O416  1  0.88179560  0.99200559  0.49538942  1
  O  O417  1  0.87649668  0.99221977  0.99102546  1
  O  O418  1  0.12507732  0.00604536  0.00788841  1
  O  O419  1  0.11842797  0.00421723  0.50341077  1
  O  O420  1  0.11734240  0.50121643  0.00781460  1
  O  O421  1  0.11815364  0.50766380  0.50249714  1
  O  O422  1  0.62901768  -0.00206086  0.01331553  1
  O  O423  1  0.61944899  0.00368631  0.50494983  1
  O  O424  1  0.62230285  0.50912005  0.00550285  1
  O  O425  1  0.60935939  0.50024140  0.49454934  1
  O  O426  1  0.36342151  0.37755472  0.11871279  1
  O  O427  1  0.36620667  0.36649737  0.61552791  1
  O  O428  1  0.37075839  0.87223487  0.11838438  1
  O  O429  1  0.36788445  0.87517733  0.61769686  1
  O  O430  1  0.87244385  0.36694077  0.12110955  1
  O  O431  1  0.86715497  0.36549892  0.61923090  1
  O  O432  1  0.86733276  0.87550561  0.12125685  1
  O  O433  1  0.86954152  0.86906051  0.61721119  1
  O  O434  1  0.12450823  0.12001930  0.38875206  1
  O  O435  1  0.12909057  0.12907580  0.87995679  1
  O  O436  1  0.13024919  0.63129759  0.38136832  1
  O  O437  1  0.13099592  0.63297390  0.87594380  1
  O  O438  1  0.62243112  0.13043718  0.37894716  1
  O  O439  1  0.62852783  0.13033971  0.88005311  1
  O  O440  1  0.63145043  0.63273059  0.37608048  1
  O  O441  1  0.62375591  0.62886577  0.89174543  1
