# generated using pymatgen
data_V93Zn93O256
_symmetry_space_group_name_H-M   'P 1'
_cell_length_a   17.04402096
_cell_length_b   17.04766811
_cell_length_c   17.04482760
_cell_angle_alpha   89.94808971
_cell_angle_beta   90.01095334
_cell_angle_gamma   89.96703438
_symmetry_Int_Tables_number   1
_chemical_formula_structural   V93Zn93O256
_chemical_formula_sum   'V93 Zn93 O256'
_cell_volume   4952.55601334
_cell_formula_units_Z   1
loop_
 _symmetry_equiv_pos_site_id
 _symmetry_equiv_pos_as_xyz
  1  'x, y, z'
loop_
 _atom_site_type_symbol
 _atom_site_label
 _atom_site_symmetry_multiplicity
 _atom_site_fract_x
 _atom_site_fract_y
 _atom_site_fract_z
 _atom_site_occupancy
  V  V0  1  0.88264441  0.62359291  0.74608373  1
  V  V1  1  -0.00057247  0.49826716  0.00166769  1
  V  V2  1  0.37490246  0.12381347  0.75303297  1
  V  V3  1  0.24974272  0.50197321  0.25069056  1
  V  V4  1  0.87546834  0.12302252  0.75106203  1
  V  V5  1  0.37490101  0.25065589  0.62556456  1
  V  V6  1  0.62598089  0.75518630  0.36660082  1
  V  V7  1  0.49517437  -0.00077531  -0.00376689  1
  V  V8  1  0.12500213  0.00141263  0.62458960  1
  V  V9  1  0.37521618  0.00143044  0.37273789  1
  V  V10  1  0.62408826  0.37530620  0.25096657  1
  V  V11  1  0.25250253  0.87396979  0.62317558  1
  V  V12  1  0.12549421  0.87472372  0.25185481  1
  V  V13  1  0.12382644  0.37377732  0.25529997  1
  V  V14  1  0.87442842  0.37218940  0.00295543  1
  V  V15  1  0.75077861  0.49960825  0.25073623  1
  V  V16  1  0.74895699  0.74841345  0.49800738  1
  V  V17  1  0.00124682  0.00027522  0.50023860  1
  V  V18  1  0.37509657  0.62513999  0.74821587  1
  V  V19  1  0.12351238  0.49900607  0.12576397  1
  V  V20  1  0.75314854  -0.00039204  0.24920487  1
  V  V21  1  0.62489009  0.50067599  0.62425317  1
  V  V22  1  0.24722338  0.24912064  0.49875067  1
  V  V23  1  0.25409615  -0.00080883  0.75356393  1
  V  V24  1  0.87648155  0.87471043  0.49923133  1
  V  V25  1  0.12450884  0.12064002  0.00736832  1
  V  V26  1  0.37539364  0.49982258  0.87455755  1
  V  V27  1  0.74975326  0.49935209  0.75039461  1
  V  V28  1  0.62331672  -0.00467982  0.12957025  1
  V  V29  1  0.50478024  0.87686883  0.36538361  1
  V  V30  1  0.50043269  0.24986913  0.75069121  1
  V  V31  1  0.49997830  0.62572964  0.12357479  1
  V  V32  1  0.74983011  0.24774159  0.00155982  1
  V  V33  1  0.24961204  0.37431764  0.12554623  1
  V  V34  1  0.87453022  0.87331769  0.00117825  1
  V  V35  1  0.37328212  0.12622416  0.25000353  1
  V  V36  1  0.62413853  0.37411356  0.75034463  1
  V  V37  1  0.75016361  0.37331807  0.12556200  1
  V  V38  1  0.50036018  0.75020614  0.74655050  1
  V  V39  1  0.24584473  0.87798994  0.12341991  1
  V  V40  1  0.87442521  0.74918882  0.12615529  1
  V  V41  1  0.24514377  0.00175552  0.24594810  1
  V  V42  1  0.87507834  0.24896359  0.62727626  1
  V  V43  1  -0.00560112  0.12252351  0.13004532  1
  V  V44  1  0.74937988  0.62501130  0.87523939  1
  V  V45  1  0.24556439  0.63414864  0.37331415  1
  V  V46  1  0.87695078  0.49994525  0.37726817  1
  V  V47  1  0.87669971  0.62414115  0.25073868  1
  V  V48  1  0.00288562  -0.00300561  0.00701225  1
  V  V49  1  0.37381567  0.37507952  0.00002910  1
  V  V50  1  0.87736910  0.37496307  0.50198202  1
  V  V51  1  0.50011262  0.12455755  0.12397888  1
  V  V52  1  0.62474455  0.24892068  0.87569202  1
  V  V53  1  0.87405040  0.49842631  0.87585469  1
  V  V54  1  0.87582273  0.00253731  0.37311257  1
  V  V55  1  0.00091597  0.87173532  0.87350361  1
  V  V56  1  0.49945937  0.50129483  0.49754357  1
  V  V57  1  0.75086792  -0.00064727  0.75113141  1
  V  V58  1  -0.00600820  0.24624374  0.25198598  1
  V  V59  1  0.50020941  0.00082159  0.49810749  1
  V  V60  1  0.37557258  0.87543502  0.49786707  1
  V  V61  1  0.00005741  0.37209648  0.87806464  1
  V  V62  1  0.37503846  0.37714548  0.49968199  1
  V  V63  1  0.49973770  0.62581468  0.62371719  1
  V  V64  1  0.49950456  0.25108295  0.25020511  1
  V  V65  1  0.75446625  0.12519237  0.37104617  1
  V  V66  1  0.75046862  0.37422366  0.62600836  1
  V  V67  1  0.00239961  0.87488723  0.37342812  1
  V  V68  1  0.24690973  0.37938249  0.62647296  1
  V  V69  1  0.12398734  0.24729387  0.87727476  1
  V  V70  1  0.62443054  0.25021010  0.37462588  1
  V  V71  1  -0.00072540  0.24692379  0.75276300  1
  V  V72  1  0.50002535  0.49995460  -0.00066587  1
  V  V73  1  0.74561968  0.87293475  0.12834835  1
  V  V74  1  0.12454410  0.62596013  -0.00025712  1
  V  V75  1  0.00470240  0.74950331  0.25374848  1
  V  V76  1  0.62524611  0.12593970  0.49892542  1
  V  V77  1  0.88255263  0.74594711  0.62469128  1
  V  V78  1  0.49285079  0.87855681  0.87339306  1
  V  V79  1  0.75031757  0.87487375  0.62445615  1
  V  V80  1  0.62582048  0.00068790  0.62412903  1
  V  V81  1  0.37466684  0.62614942  0.24829779  1
  V  V82  1  0.12050398  0.63210658  0.50282484  1
  V  V83  1  0.62442234  0.50077378  0.12474776  1
  V  V84  1  0.37425950  0.25146778  0.12527647  1
  V  V85  1  0.62634590  0.74932477  0.87393700  1
  V  V86  1  0.50017241  0.12548618  0.62501697  1
  V  V87  1  0.75000365  0.12271233  0.87648202  1
  V  V88  1  0.12549799  0.37444210  0.75153109  1
  V  V89  1  0.37476987  0.75240438  0.12134400  1
  V  V90  1  0.62551531  0.87515504  0.74917931  1
  V  V91  1  0.24996308  0.62572574  0.87458596  1
  V  V92  1  0.25325961  0.12104055  0.87662449  1
  Zn  Zn93  1  0.87532967  -0.00237582  0.87556232  1
  Zn  Zn94  1  0.50564865  0.75444782  0.24446011  1
  Zn  Zn95  1  0.75030334  0.24877240  0.50048165  1
  Zn  Zn96  1  0.37538839  0.74874041  0.61998479  1
  Zn  Zn97  1  0.24782282  0.75420756  0.49245920  1
  Zn  Zn98  1  0.62622846  0.62499064  -0.00082635  1
  Zn  Zn99  1  0.12288895  0.12643546  0.49860859  1
  Zn  Zn100  1  0.24833968  0.12553200  0.37562834  1
  Zn  Zn101  1  0.12481063  0.74963962  0.87213613  1
  Zn  Zn102  1  0.62344590  0.62641146  0.49752669  1
  Zn  Zn103  1  0.24923782  0.24870050  0.00089185  1
  Zn  Zn104  1  0.00018377  0.62501898  0.12602861  1
  Zn  Zn105  1  0.36971826  0.87903718  -0.00616711  1
  Zn  Zn106  1  0.00055628  0.37306777  0.37747251  1
  Zn  Zn107  1  0.87063986  0.24414167  0.13175153  1
  Zn  Zn108  1  0.74744838  0.62584646  0.37368626  1
  Zn  Zn109  1  0.00391383  0.74619745  0.74745889  1
  Zn  Zn110  1  0.12281091  0.24682823  0.37780976  1
  Zn  Zn111  1  0.62552254  0.12359144  0.00076124  1
  Zn  Zn112  1  -0.00000062  0.12448556  0.62559696  1
  Zn  Zn113  1  0.74918187  0.74813190  0.00005331  1
  Zn  Zn114  1  0.49898938  0.37710830  0.37399711  1
  Zn  Zn115  1  0.24812763  0.75376738  -0.00167375  1
  Zn  Zn116  1  0.00028937  0.50587875  0.50824198  1
  Zn  Zn117  1  0.49829715  0.37406732  0.87461221  1
  Zn  Zn118  1  0.24902003  0.50114546  0.74885705  1
  Zn  Zn119  1  0.11496215  0.50774235  0.62904355  1
  Zn  Zn120  1  0.12555981  0.87156537  0.75098068  1
  Zn  Zn121  1  0.37541195  0.50276820  0.37348859  1
  Zn  Zn122  1  0.18441765  0.18902767  0.18774940  1
  Zn  Zn123  1  0.18706600  0.18828043  0.68770078  1
  Zn  Zn124  1  0.18756587  0.68952666  0.18541150  1
  Zn  Zn125  1  0.18547437  0.68952965  0.68698745  1
  Zn  Zn126  1  0.68527465  0.18498175  0.18818221  1
  Zn  Zn127  1  0.68890277  0.18740578  0.68873227  1
  Zn  Zn128  1  0.68901486  0.68482841  0.18733580  1
  Zn  Zn129  1  0.68963511  0.68599846  0.68675082  1
  Zn  Zn130  1  0.31307976  0.31549203  0.31501004  1
  Zn  Zn131  1  0.31140002  0.30990136  0.81423273  1
  Zn  Zn132  1  0.31635078  0.81408371  0.30891912  1
  Zn  Zn133  1  0.31216425  0.80868601  0.80847323  1
  Zn  Zn134  1  0.81127806  0.31344212  0.31506431  1
  Zn  Zn135  1  0.81175704  0.31075419  0.81444774  1
  Zn  Zn136  1  0.81475546  0.81469983  0.31064101  1
  Zn  Zn137  1  0.81455072  0.81076626  0.81238837  1
  Zn  Zn138  1  0.18812643  0.44636068  0.43874797  1
  Zn  Zn139  1  0.18833389  0.43820826  0.93784692  1
  Zn  Zn140  1  0.18738080  0.93868294  0.43467642  1
  Zn  Zn141  1  0.18404643  0.93835963  0.93771439  1
  Zn  Zn142  1  0.68890797  0.43638049  0.43787306  1
  Zn  Zn143  1  0.68650363  0.43557506  0.93811026  1
  Zn  Zn144  1  0.68738579  0.93712060  0.43688597  1
  Zn  Zn145  1  0.68392781  0.93635854  0.93985864  1
  Zn  Zn146  1  0.31387214  0.06269278  0.06323854  1
  Zn  Zn147  1  0.31391997  0.06279103  0.56331079  1
  Zn  Zn148  1  0.31150844  0.56170681  0.06209435  1
  Zn  Zn149  1  0.31009865  0.56546862  0.55887016  1
  Zn  Zn150  1  0.81469445  0.05986539  0.06112674  1
  Zn  Zn151  1  0.81364379  0.06331724  0.56120468  1
  Zn  Zn152  1  0.81228576  0.56266105  0.06317837  1
  Zn  Zn153  1  0.81275193  0.56274831  0.56307782  1
  Zn  Zn154  1  0.43736096  0.43906831  0.18654824  1
  Zn  Zn155  1  0.43638822  0.43848500  0.68689250  1
  Zn  Zn156  1  0.43300626  0.93950814  0.18451567  1
  Zn  Zn157  1  0.43702047  0.93871188  0.68672621  1
  Zn  Zn158  1  0.93808622  0.43510466  0.18837817  1
  Zn  Zn159  1  0.94017739  0.43647980  0.68824110  1
  Zn  Zn160  1  0.93504339  0.93683519  0.18709266  1
  Zn  Zn161  1  0.93708049  0.93544647  0.68737822  1
  Zn  Zn162  1  0.06635470  0.06359340  0.31454277  1
  Zn  Zn163  1  0.06391138  0.05879994  0.81558368  1
  Zn  Zn164  1  0.06332978  0.56331170  0.31853689  1
  Zn  Zn165  1  0.06367093  0.55763556  0.81374303  1
  Zn  Zn166  1  0.56487173  0.06374272  0.31002979  1
  Zn  Zn167  1  0.56406829  0.06247673  0.81304842  1
  Zn  Zn168  1  0.56329353  0.56805288  0.31217129  1
  Zn  Zn169  1  0.56143489  0.56242297  0.81197047  1
  Zn  Zn170  1  0.43565430  0.18884753  0.43639368  1
  Zn  Zn171  1  0.43725142  0.18766293  0.93906345  1
  Zn  Zn172  1  0.43570810  0.69012434  0.43413152  1
  Zn  Zn173  1  0.43882861  0.68888007  0.93660485  1
  Zn  Zn174  1  0.93901303  0.18809439  0.43931774  1
  Zn  Zn175  1  0.93502085  0.18445131  0.94029141  1
  Zn  Zn176  1  0.93797589  0.68847426  0.43495879  1
  Zn  Zn177  1  0.93601625  0.68698173  0.93731701  1
  Zn  Zn178  1  0.06200177  0.30773430  0.06622780  1
  Zn  Zn179  1  0.06120810  0.31397081  0.56636862  1
  Zn  Zn180  1  0.06249583  0.81077672  0.06551896  1
  Zn  Zn181  1  0.06657426  0.81385676  0.56019861  1
  Zn  Zn182  1  0.56246824  0.31344255  0.06164673  1
  Zn  Zn183  1  0.56298072  0.31340114  0.56181918  1
  Zn  Zn184  1  0.56239949  0.81227744  0.05712318  1
  Zn  Zn185  1  0.56243937  0.81390249  0.55823285  1
  O  O186  1  0.11496676  0.12984136  0.11348687  1
  O  O187  1  0.12502949  0.11230363  0.62386673  1
  O  O188  1  0.12477605  0.61832838  0.11547997  1
  O  O189  1  0.13645219  0.62365393  0.60791958  1
  O  O190  1  0.61800461  0.11390445  0.12397787  1
  O  O191  1  0.61999256  0.12039883  0.61997993  1
  O  O192  1  0.61879793  0.61832445  0.12376413  1
  O  O193  1  0.61926708  0.61825214  0.62259848  1
  O  O194  1  0.37859720  0.38144263  0.38354629  1
  O  O195  1  0.37420136  0.38099486  0.88111133  1
  O  O196  1  0.38364022  0.88180506  0.37824330  1
  O  O197  1  0.38899268  0.86828580  0.87362014  1
  O  O198  1  0.87293244  0.38340512  0.38560412  1
  O  O199  1  0.87967588  0.37891120  0.88216450  1
  O  O200  1  0.88121095  0.88235643  0.38016405  1
  O  O201  1  0.88305451  0.87459566  0.88267301  1
  O  O202  1  0.25757595  -0.00050133  0.36273080  1
  O  O203  1  0.24229165  0.00947610  0.86441846  1
  O  O204  1  0.25381829  0.51196314  0.36684723  1
  O  O205  1  0.25630854  0.51094513  0.87470593  1
  O  O206  1  0.75318320  0.00472429  0.36772308  1
  O  O207  1  0.74926110  0.00369323  0.86909622  1
  O  O208  1  0.75995043  0.50110720  0.36995545  1
  O  O209  1  0.75492011  0.50303287  0.86945517  1
  O  O210  1  0.24311129  0.49421198  0.13091906  1
  O  O211  1  0.25020411  0.48654303  0.62504096  1
  O  O212  1  0.25880191  0.98958261  0.13570696  1
  O  O213  1  0.24428746  0.99342680  0.63120633  1
  O  O214  1  0.74469558  0.49361515  0.13100505  1
  O  O215  1  0.74488237  0.49444346  0.63071839  1
  O  O216  1  0.74399025  0.99430110  0.13066470  1
  O  O217  1  0.74509858  0.99434248  0.62929662  1
  O  O218  1  0.00961768  0.36668129  0.25077637  1
  O  O219  1  0.00463596  0.36682210  0.76011935  1
  O  O220  1  0.00732367  0.87068601  0.25177447  1
  O  O221  1  0.00015115  0.87495132  0.76265338  1
  O  O222  1  0.50615782  0.36949861  0.25015356  1
  O  O223  1  0.50592478  0.36764284  0.74960244  1
  O  O224  1  0.49448471  0.87681260  0.26189169  1
  O  O225  1  0.50542867  0.87267683  0.75474737  1
  O  O226  1  0.49392400  0.13031295  0.24361537  1
  O  O227  1  0.49525076  0.12899398  0.74467107  1
  O  O228  1  0.49288500  0.62787087  0.24097284  1
  O  O229  1  0.49499396  0.63038454  0.74335783  1
  O  O230  1  1.01032238  0.13348067  0.24030501  1
  O  O231  1  0.99415120  0.12878865  0.75145475  1
  O  O232  1  0.99679762  0.63360914  0.25103536  1
  O  O233  1  0.98528763  0.62427333  0.75873443  1
  O  O234  1  0.37278433  0.25614430  0.00768945  1
  O  O235  1  0.36843533  0.25649510  0.50632401  1
  O  O236  1  0.37302629  0.75276521  0.01083276  1
  O  O237  1  0.37217063  0.76065516  0.50111982  1
  O  O238  1  0.86767842  0.25555550  0.00296652  1
  O  O239  1  0.87270766  0.25881763  0.50706166  1
  O  O240  1  0.87346762  0.75525347  0.00856791  1
  O  O241  1  0.86820424  0.75417035  0.50481399  1
  O  O242  1  0.13531842  0.25100902  0.50205877  1
  O  O243  1  0.12538334  0.23830451  0.99542572  1
  O  O244  1  0.12964277  0.73867071  0.50169673  1
  O  O245  1  0.12542691  0.73639376  0.99970550  1
  O  O246  1  0.62660215  0.24417988  0.49369243  1
  O  O247  1  0.63148587  0.24809474  0.99455581  1
  O  O248  1  0.63558372  0.75160200  0.49127899  1
  O  O249  1  0.62775665  0.74677414  0.98882013  1
  O  O250  1  0.49478907  0.24499332  0.13041526  1
  O  O251  1  0.49528869  0.24439965  0.63024424  1
  O  O252  1  0.49260219  0.74685508  0.12429746  1
  O  O253  1  0.50097538  0.74495992  0.62902241  1
  O  O254  1  0.99661228  0.24081639  0.13412499  1
  O  O255  1  0.99315122  0.24826149  0.63530491  1
  O  O256  1  0.99285036  0.74921619  0.13672656  1
  O  O257  1  0.98483253  0.75789208  0.62429938  1
  O  O258  1  0.00288436  0.25190230  0.36676184  1
  O  O259  1  0.00436295  0.25306533  0.87302881  1
  O  O260  1  -0.00796760  0.75939939  0.36069299  1
  O  O261  1  -0.00010238  0.76090842  0.87518249  1
  O  O262  1  0.50615743  0.25123442  0.36790817  1
  O  O263  1  0.50590608  0.24985643  0.86820528  1
  O  O264  1  0.50867205  0.76005527  0.37264041  1
  O  O265  1  0.50639662  0.75741653  0.86701684  1
  O  O266  1  0.25143162  0.13848804  0.50249589  1
  O  O267  1  0.24178464  0.12118696  0.99421909  1
  O  O268  1  0.24445382  0.62934308  0.48927115  1
  O  O269  1  0.24096550  0.62390396  0.99190065  1
  O  O270  1  0.74277391  0.12414362  0.48971513  1
  O  O271  1  0.74910976  0.12907387  0.99497658  1
  O  O272  1  0.74990730  0.63852038  0.49792069  1
  O  O273  1  0.74844587  0.62583028  0.99067152  1
  O  O274  1  0.25529630  0.37370351  0.00758000  1
  O  O275  1  0.25417918  0.36936049  0.50803527  1
  O  O276  1  0.25074210  0.87634907  0.00836603  1
  O  O277  1  0.25594611  0.87731720  0.50663633  1
  O  O278  1  0.75466043  0.36832582  0.00605707  1
  O  O279  1  0.76066677  0.37366758  0.50699076  1
  O  O280  1  0.75557642  0.87507083  0.01135194  1
  O  O281  1  0.75632067  0.86755707  0.50393232  1
  O  O282  1  0.12804500  0.49228756  0.24588073  1
  O  O283  1  0.12950884  0.49024647  0.74913825  1
  O  O284  1  0.13659895  0.99086660  0.25090382  1
  O  O285  1  0.13610519  0.99820578  0.74132859  1
  O  O286  1  0.63020153  0.49574890  0.24541992  1
  O  O287  1  0.62977652  0.49394164  0.74438349  1
  O  O288  1  0.63553780  1.00211342  0.23830178  1
  O  O289  1  0.63073834  0.99500136  0.74264403  1
  O  O290  1  0.36634343  0.00654586  0.25344846  1
  O  O291  1  0.36202675  0.00794551  0.74294724  1
  O  O292  1  0.36769639  0.50854075  0.24740022  1
  O  O293  1  0.37309720  0.50728449  0.75614457  1
  O  O294  1  0.86199217  -0.00424197  0.25631797  1
  O  O295  1  0.86779980  0.00451430  0.75077881  1
  O  O296  1  0.87150046  0.50259692  0.25861578  1
  O  O297  1  0.86928496  0.50476833  0.75596182  1
  O  O298  1  0.12502377  0.37698606  0.36385035  1
  O  O299  1  0.12027606  0.36785529  0.87284749  1
  O  O300  1  0.11931332  0.87886907  0.36093457  1
  O  O301  1  0.11479248  0.87174756  0.87500878  1
  O  O302  1  0.62413639  0.36852794  0.36855861  1
  O  O303  1  0.62345120  0.36737700  0.86759440  1
  O  O304  1  0.61481532  0.86854572  0.38032169  1
  O  O305  1  0.61695795  0.86880940  0.86773333  1
  O  O306  1  0.38046150  0.13141633  0.13064887  1
  O  O307  1  0.38132429  0.13106335  0.63137606  1
  O  O308  1  0.37817863  0.63359421  0.12761360  1
  O  O309  1  0.38050582  0.62621387  0.63021279  1
  O  O310  1  0.88933708  0.12530833  0.12173798  1
  O  O311  1  0.87535065  0.13057826  0.63280298  1
  O  O312  1  0.87739144  0.62985923  0.13260022  1
  O  O313  1  0.86804794  0.63437038  0.63461557  1
  O  O314  1  0.25634334  0.25603728  0.12442901  1
  O  O315  1  0.25504447  0.25866608  0.61897350  1
  O  O316  1  0.25781151  0.75959213  0.12288263  1
  O  O317  1  0.25181634  0.76705075  0.62516678  1
  O  O318  1  0.75044042  0.25416128  0.12145014  1
  O  O319  1  0.75655844  0.25631921  0.62504077  1
  O  O320  1  0.75407205  0.75857007  0.12542224  1
  O  O321  1  0.75688430  0.75549333  0.61604305  1
  O  O322  1  0.24969440  0.25109620  0.38799134  1
  O  O323  1  0.24238901  0.23784562  0.87724856  1
  O  O324  1  0.25532018  0.73941716  0.37122238  1
  O  O325  1  0.24975300  0.73799946  0.87787793  1
  O  O326  1  0.74419541  0.24011720  0.37494221  1
  O  O327  1  0.74434431  0.24330467  0.88119041  1
  O  O328  1  0.74447134  0.75445838  0.38252161  1
  O  O329  1  0.74357327  0.74400726  0.87439774  1
  O  O330  1  0.00577228  0.11646175  0.00667398  1
  O  O331  1  0.00134682  0.11564642  0.50502447  1
  O  O332  1  0.00890339  0.61745610  -0.00070776  1
  O  O333  1  0.01657490  0.62784704  0.49104628  1
  O  O334  1  0.50122599  0.11633444  0.00530880  1
  O  O335  1  0.50441117  0.12038535  0.50488610  1
  O  O336  1  0.50135997  0.61790047  0.00562835  1
  O  O337  1  0.49946994  0.61697284  0.50479438  1
  O  O338  1  0.49455789  0.38556321  0.50104266  1
  O  O339  1  0.49179359  0.38166466  0.99887524  1
  O  O340  1  0.49513845  0.88307679  0.49040555  1
  O  O341  1  0.49844445  0.88221723  0.98949885  1
  O  O342  1  0.98611831  0.37396722  0.49886982  1
  O  O343  1  0.99559476  0.37775973  0.99708650  1
  O  O344  1  0.99601825  0.87994981  0.49319809  1
  O  O345  1  0.99699414  0.88034790  0.99716194  1
  O  O346  1  0.50036656  0.50125750  0.38650394  1
  O  O347  1  0.49292150  0.49843227  0.88056740  1
  O  O348  1  0.49677135  0.99555850  0.37801256  1
  O  O349  1  0.50805571  0.99003250  0.88332651  1
  O  O350  1  0.98614920  0.49640072  0.37827801  1
  O  O351  1  0.99381155  0.49122041  0.88216850  1
  O  O352  1  0.99513480  0.99518648  0.37899148  1
  O  O353  1  0.99907209  0.98966777  0.88681792  1
  O  O354  1  -0.00386141  0.00544650  0.11557994  1
  O  O355  1  0.01030300  -0.00311023  0.62029956  1
  O  O356  1  0.00567414  0.50108317  0.11921598  1
  O  O357  1  0.00219774  0.49721718  0.62154064  1
  O  O358  1  0.50658980  0.00252147  0.11974988  1
  O  O359  1  0.50591264  0.00587900  0.61885142  1
  O  O360  1  0.50503299  0.50588831  0.11913441  1
  O  O361  1  0.50515863  0.50528769  0.61678878  1
  O  O362  1  0.24217245  0.38020626  0.24570332  1
  O  O363  1  0.24507040  0.37299714  0.74178490  1
  O  O364  1  0.24423456  0.88116121  0.24363613  1
  O  O365  1  0.25184187  0.88424796  0.74242450  1
  O  O366  1  0.74416848  0.38000795  0.24534606  1
  O  O367  1  0.74497845  0.37994964  0.74578794  1
  O  O368  1  0.75309625  0.88398515  0.23736740  1
  O  O369  1  0.74525437  0.87935052  0.74428573  1
  O  O370  1  0.25399493  0.11662094  0.24719469  1
  O  O371  1  0.25349235  0.11875822  0.75733153  1
  O  O372  1  0.25288307  0.62163133  0.25376180  1
  O  O373  1  0.25497319  0.62482736  0.75922131  1
  O  O374  1  0.74513234  0.11473077  0.26143929  1
  O  O375  1  0.75520137  0.11872763  0.75618783  1
  O  O376  1  0.75852679  0.61700327  0.25180628  1
  O  O377  1  0.75900070  0.61799937  0.75526462  1
  O  O378  1  0.37227600  0.11968604  0.36740909  1
  O  O379  1  0.36092425  0.13067033  0.87057342  1
  O  O380  1  0.36764373  0.62475191  0.36546976  1
  O  O381  1  0.36782591  0.62093215  0.87022873  1
  O  O382  1  0.86187012  0.11843433  0.38347644  1
  O  O383  1  0.86785309  0.12103538  0.86943362  1
  O  O384  1  0.87260192  0.61560352  0.37022715  1
  O  O385  1  0.86877673  0.61825724  0.86769746  1
  O  O386  1  0.12939240  0.37881411  0.13428643  1
  O  O387  1  0.13523087  0.37276081  0.63325133  1
  O  O388  1  0.13718813  0.87074016  0.13471377  1
  O  O389  1  0.13504802  0.88537993  0.62548357  1
  O  O390  1  0.63058213  0.38058025  0.13141437  1
  O  O391  1  0.63074758  0.38006625  0.63065247  1
  O  O392  1  0.63400358  0.88369715  0.11838265  1
  O  O393  1  0.63026362  0.88107451  0.62880764  1
  O  O394  1  0.11741206  0.26027575  0.25135414  1
  O  O395  1  0.11911542  0.25346379  0.75746643  1
  O  O396  1  0.11412617  0.75961362  0.24401312  1
  O  O397  1  0.11955228  0.75325169  0.75306280  1
  O  O398  1  0.61883850  0.25517408  0.25469060  1
  O  O399  1  0.61990704  0.25444701  0.75496718  1
  O  O400  1  0.62638527  0.74838609  0.26215250  1
  O  O401  1  0.62049979  0.75600479  0.75325732  1
  O  O402  1  0.37934229  0.24651105  0.24512191  1
  O  O403  1  0.38019308  0.24383555  0.74497880  1
  O  O404  1  0.37752392  0.74536480  0.23551666  1
  O  O405  1  0.38318794  0.74293521  0.74460143  1
  O  O406  1  0.88947139  0.25735722  0.25092248  1
  O  O407  1  0.87991159  0.24357464  0.74750639  1
  O  O408  1  0.88260429  0.74529436  0.24541752  1
  O  O409  1  0.87503639  0.74077582  0.74054359  1
  O  O410  1  0.38526619  0.49577596  0.50062858  1
  O  O411  1  0.38008838  0.49472712  0.99519996  1
  O  O412  1  0.38105401  0.99667558  0.49315883  1
  O  O413  1  0.39074606  0.99767164  1.00628978  1
  O  O414  1  0.87397861  0.49297240  0.49365729  1
  O  O415  1  0.87955219  0.49296251  0.99536461  1
  O  O416  1  0.88057151  0.99277973  0.49503330  1
  O  O417  1  0.88580043  0.99138264  0.99867537  1
  O  O418  1  0.11412202  0.00985213  -0.00256807  1
  O  O419  1  0.12064417  -0.00069715  0.50922234  1
  O  O420  1  0.11952096  0.50666475  0.00490859  1
  O  O421  1  0.12278259  0.51381890  0.50252474  1
  O  O422  1  0.61468599  0.00108488  0.01111601  1
  O  O423  1  0.62002684  0.00561181  0.50488098  1
  O  O424  1  0.61838185  0.49967948  0.00698753  1
  O  O425  1  0.61690247  0.50063656  0.50549090  1
  O  O426  1  0.36872039  0.37063520  0.12048084  1
  O  O427  1  0.36661539  0.36984608  0.62084092  1
  O  O428  1  0.36482399  0.86711208  0.12436982  1
  O  O429  1  0.36693096  0.87813816  0.61686576  1
  O  O430  1  0.86705684  0.37352902  0.11965150  1
  O  O431  1  0.86917440  0.36921169  0.61997638  1
  O  O432  1  0.86562768  0.86924311  0.12072267  1
  O  O433  1  0.86890993  0.86675863  0.61931641  1
  O  O434  1  0.13197921  0.12810909  0.38105466  1
  O  O435  1  0.13239348  0.12812019  0.88458666  1
  O  O436  1  0.13683479  0.62140900  0.38490688  1
  O  O437  1  0.13292521  0.62253961  0.88341910  1
  O  O438  1  0.63311534  0.12943471  0.37950542  1
  O  O439  1  0.63227880  0.13137836  0.87618634  1
  O  O440  1  0.62806591  0.63841300  0.37881895  1
  O  O441  1  0.63183075  0.63155491  0.87220567  1
