# generated using pymatgen
data_V93Zn93O256
_symmetry_space_group_name_H-M   'P 1'
_cell_length_a   17.04529857
_cell_length_b   17.04379338
_cell_length_c   17.04184944
_cell_angle_alpha   90.01438360
_cell_angle_beta   89.94483968
_cell_angle_gamma   89.98884885
_symmetry_Int_Tables_number   1
_chemical_formula_structural   V93Zn93O256
_chemical_formula_sum   'V93 Zn93 O256'
_cell_volume   4950.93670729
_cell_formula_units_Z   1
loop_
 _symmetry_equiv_pos_site_id
 _symmetry_equiv_pos_as_xyz
  1  'x, y, z'
loop_
 _atom_site_type_symbol
 _atom_site_label
 _atom_site_symmetry_multiplicity
 _atom_site_fract_x
 _atom_site_fract_y
 _atom_site_fract_z
 _atom_site_occupancy
  V  V0  1  0.62457316  0.75161304  0.37499255  1
  V  V1  1  0.24505522  0.87234908  0.12814341  1
  V  V2  1  0.87766681  0.62447096  0.74531351  1
  V  V3  1  -0.00066520  -0.00102617  0.00063789  1
  V  V4  1  0.74919707  0.87567865  0.12545079  1
  V  V5  1  0.49952485  0.24991845  0.24989367  1
  V  V6  1  0.37749674  0.74365106  0.62388731  1
  V  V7  1  0.49974749  0.12482864  0.62535881  1
  V  V8  1  0.12459222  -0.00421568  0.12673881  1
  V  V9  1  0.37449755  0.12419556  0.25044899  1
  V  V10  1  0.75054873  0.12663166  0.37623706  1
  V  V11  1  -0.00057815  0.50661088  0.50466370  1
  V  V12  1  0.24858252  -0.00144379  0.75012539  1
  V  V13  1  0.12519163  0.75461583  0.36995790  1
  V  V14  1  0.37532413  0.87530380  0.49916672  1
  V  V15  1  0.12388832  0.50330914  0.62373520  1
  V  V16  1  0.87443074  0.12593260  0.75029350  1
  V  V17  1  0.74908340  0.25156774  0.50077966  1
  V  V18  1  0.74565810  0.62580894  0.87835238  1
  V  V19  1  0.87564326  0.87592138  -0.00295581  1
  V  V20  1  0.37563776  0.62364861  0.24906635  1
  V  V21  1  0.62098969  0.37668514  0.75518800  1
  V  V22  1  0.62513645  0.87407077  0.75104673  1
  V  V23  1  0.12489817  -0.00173276  0.62522153  1
  V  V24  1  0.24980483  0.24891160  0.00077153  1
  V  V25  1  0.38006965  0.49241014  0.87533942  1
  V  V26  1  -0.00073301  0.12634420  0.62641826  1
  V  V27  1  0.62395176  0.00073062  0.12516895  1
  V  V28  1  0.25029012  0.37417988  0.62421539  1
  V  V29  1  0.25224672  0.37460879  0.12467588  1
  V  V30  1  0.74999424  0.00117858  0.25185302  1
  V  V31  1  0.75179180  0.37544283  0.12544861  1
  V  V32  1  0.12603562  0.25037354  0.37516392  1
  V  V33  1  0.12270871  0.62585812  0.50274508  1
  V  V34  1  0.49974152  0.87310385  0.87400407  1
  V  V35  1  0.87813196  0.37667787  0.00134747  1
  V  V36  1  0.49998349  0.25186411  0.75286898  1
  V  V37  1  0.49907273  0.00058151  0.50066228  1
  V  V38  1  0.87675282  0.74800825  0.62455237  1
  V  V39  1  0.50132410  0.74524394  0.74551601  1
  V  V40  1  0.75049106  0.87592075  0.62535961  1
  V  V41  1  0.00007231  0.37737457  0.37639055  1
  V  V42  1  0.75013759  0.62537789  0.37428309  1
  V  V43  1  0.25056754  0.62372166  0.87823020  1
  V  V44  1  0.24979931  0.74981234  0.49978094  1
  V  V45  1  0.62128355  0.25425725  0.87758628  1
  V  V46  1  0.50177720  0.49234220  -0.00251961  1
  V  V47  1  0.37822563  0.62397084  0.74825510  1
  V  V48  1  0.62454895  0.37565246  0.25045141  1
  V  V49  1  0.25115062  0.49882297  0.74949785  1
  V  V50  1  0.37397753  0.87294994  -0.00014611  1
  V  V51  1  0.62204087  0.50524729  0.62657392  1
  V  V52  1  0.12483079  0.12327100  -0.00049129  1
  V  V53  1  0.87496602  0.37804966  0.50102855  1
  V  V54  1  0.87901213  0.50184597  0.87875361  1
  V  V55  1  0.74870845  0.37597263  0.62624373  1
  V  V56  1  0.00094571  0.87677241  0.37293851  1
  V  V57  1  0.74905144  0.75133252  0.50017851  1
  V  V58  1  0.50337937  0.62409638  0.11756419  1
  V  V59  1  0.74315538  0.74683190  -0.00067802  1
  V  V60  1  0.62417614  0.87512237  0.25047590  1
  V  V61  1  0.62521048  0.12446868  0.00064409  1
  V  V62  1  0.62437102  0.00153909  0.62559799  1
  V  V63  1  0.12538014  0.12620046  0.50017729  1
  V  V64  1  0.75004797  0.12494419  0.87559284  1
  V  V65  1  0.25070485  0.50010337  0.24985443  1
  V  V66  1  0.37565450  0.37539662  0.50081074  1
  V  V67  1  0.12476209  0.74896198  0.87414201  1
  V  V68  1  0.62660256  0.50431465  0.11938026  1
  V  V69  1  0.00149167  0.37742415  0.87774261  1
  V  V70  1  0.75124598  0.00009638  0.75066164  1
  V  V71  1  0.49926632  0.50580260  0.50305250  1
  V  V72  1  0.00149270  0.74737479  0.74400906  1
  V  V73  1  0.25008269  0.12370693  0.87656024  1
  V  V74  1  0.11976797  0.50340326  0.11848260  1
  V  V75  1  0.24975111  0.62507104  0.37311890  1
  V  V76  1  0.75073830  0.50194944  0.25160802  1
  V  V77  1  0.62275086  0.62681977  0.50316841  1
  V  V78  1  0.37431314  0.74837784  0.12316564  1
  V  V79  1  0.50117818  0.74938090  0.24920688  1
  V  V80  1  0.37484228  -0.00177042  0.87498025  1
  V  V81  1  -0.00045224  0.12544688  0.12528482  1
  V  V82  1  0.00258122  0.75250671  0.24717582  1
  V  V83  1  -0.00165243  0.25004985  0.24876111  1
  V  V84  1  0.37506940  0.12378877  0.75012600  1
  V  V85  1  0.87501087  0.87609236  0.49904680  1
  V  V86  1  0.12391733  0.37478030  0.74949356  1
  V  V87  1  0.87556810  0.74794648  0.12559381  1
  V  V88  1  0.49952553  0.37653688  0.37548373  1
  V  V89  1  0.87502805  0.25129902  0.62697126  1
  V  V90  1  0.50034300  -0.00069491  0.00049307  1
  V  V91  1  0.24671859  -0.00324018  0.25084364  1
  V  V92  1  0.37486256  0.25009568  0.62505915  1
  Zn  Zn93  1  0.50004251  0.12509816  0.12531191  1
  Zn  Zn94  1  0.62185148  0.74550613  0.87751182  1
  Zn  Zn95  1  0.25206149  0.25061927  0.49802625  1
  Zn  Zn96  1  0.12452472  0.87376915  0.74913385  1
  Zn  Zn97  1  0.24955864  0.12327683  0.37503506  1
  Zn  Zn98  1  0.74960574  0.50158817  0.75095475  1
  Zn  Zn99  1  -0.00105069  0.00017424  0.49864662  1
  Zn  Zn100  1  0.24862036  0.87320575  0.62610720  1
  Zn  Zn101  1  -0.00330984  0.62168015  0.11926086  1
  Zn  Zn102  1  0.50014568  0.87746227  0.37354294  1
  Zn  Zn103  1  0.87681329  0.62363625  0.25128509  1
  Zn  Zn104  1  0.62510897  0.25151180  0.37814214  1
  Zn  Zn105  1  0.37570512  0.24930293  0.12406702  1
  Zn  Zn106  1  0.24697907  0.74701307  0.00129551  1
  Zn  Zn107  1  0.37973021  0.36847687  -0.00534125  1
  Zn  Zn108  1  0.10793722  0.61592041  -0.01021634  1
  Zn  Zn109  1  0.62392563  0.12828897  0.50144604  1
  Zn  Zn110  1  0.87338248  0.24896812  0.12426798  1
  Zn  Zn111  1  0.87466594  0.12340943  0.24873221  1
  Zn  Zn112  1  0.87721946  0.00165829  0.87428069  1
  Zn  Zn113  1  0.87623862  0.00159960  0.37476445  1
  Zn  Zn114  1  0.12508838  0.37784350  0.25016250  1
  Zn  Zn115  1  0.74999436  0.24943563  0.00281401  1
  Zn  Zn116  1  0.37430240  0.50061795  0.37572367  1
  Zn  Zn117  1  0.87667786  0.50322683  0.37422958  1
  Zn  Zn118  1  0.37503439  -0.00036844  0.37498212  1
  Zn  Zn119  1  0.12396307  0.24890398  0.87301278  1
  Zn  Zn120  1  0.00058385  0.25022542  0.75141279  1
  Zn  Zn121  1  0.00198336  0.87593969  0.87287885  1
  Zn  Zn122  1  0.18577414  0.18463141  0.18736352  1
  Zn  Zn123  1  0.18792979  0.18832099  0.68846898  1
  Zn  Zn124  1  0.18678590  0.68525683  0.18750391  1
  Zn  Zn125  1  0.19048195  0.68492536  0.68738223  1
  Zn  Zn126  1  0.68735444  0.18803676  0.18840334  1
  Zn  Zn127  1  0.68749426  0.18854407  0.68893733  1
  Zn  Zn128  1  0.68787929  0.68702277  0.18777852  1
  Zn  Zn129  1  0.69044576  0.68731111  0.68926589  1
  Zn  Zn130  1  0.31329708  0.31367272  0.31278628  1
  Zn  Zn131  1  0.31050992  0.31067797  0.81118519  1
  Zn  Zn132  1  0.31408315  0.81145557  0.31138051  1
  Zn  Zn133  1  0.31108423  0.81263817  0.81018617  1
  Zn  Zn134  1  0.81343295  0.31465903  0.31445093  1
  Zn  Zn135  1  0.80902289  0.31236503  0.81321113  1
  Zn  Zn136  1  0.81363358  0.81310317  0.31254304  1
  Zn  Zn137  1  0.81299036  0.81085546  0.81278739  1
  Zn  Zn138  1  0.18746745  0.43747163  0.43754310  1
  Zn  Zn139  1  0.18975558  0.43568129  0.93722961  1
  Zn  Zn140  1  0.18841380  0.93698642  0.43792104  1
  Zn  Zn141  1  0.18741880  0.93458824  0.93932213  1
  Zn  Zn142  1  0.68626425  0.43826761  0.43732523  1
  Zn  Zn143  1  0.69221477  0.43840468  0.93874912  1
  Zn  Zn144  1  0.68595054  0.94006835  0.43783667  1
  Zn  Zn145  1  0.68758637  0.93657500  0.93622149  1
  Zn  Zn146  1  0.31364211  0.06116178  0.06528581  1
  Zn  Zn147  1  0.31061318  0.06287711  0.56285506  1
  Zn  Zn148  1  0.31403646  0.55911519  0.06113413  1
  Zn  Zn149  1  0.31022771  0.56270154  0.56132931  1
  Zn  Zn150  1  0.81232185  0.06393181  0.06392749  1
  Zn  Zn151  1  0.81347702  0.06274001  0.56091591  1
  Zn  Zn152  1  0.81397369  0.56261975  0.06066302  1
  Zn  Zn153  1  0.80938087  0.56272286  0.56236382  1
  Zn  Zn154  1  0.43673375  0.43727346  0.18610486  1
  Zn  Zn155  1  0.43903451  0.43672894  0.68701857  1
  Zn  Zn156  1  0.43554574  0.93652689  0.18631735  1
  Zn  Zn157  1  0.43664933  0.93453583  0.68605409  1
  Zn  Zn158  1  0.93735033  0.43603415  0.19022570  1
  Zn  Zn159  1  0.93816853  0.43859468  0.68892942  1
  Zn  Zn160  1  0.93603471  0.93706745  0.18887469  1
  Zn  Zn161  1  0.93916635  0.93626900  0.68756293  1
  Zn  Zn162  1  0.06362246  0.06310748  0.31073744  1
  Zn  Zn163  1  0.06078292  0.06217355  0.81354338  1
  Zn  Zn164  1  0.06359268  0.56551723  0.31031601  1
  Zn  Zn165  1  0.06138139  0.56154279  0.80890791  1
  Zn  Zn166  1  0.56330807  0.06309290  0.31593599  1
  Zn  Zn167  1  0.56302025  0.06341908  0.81338128  1
  Zn  Zn168  1  0.56359456  0.56324959  0.31262486  1
  Zn  Zn169  1  0.56197424  0.56298536  0.81370311  1
  Zn  Zn170  1  0.43716314  0.18698340  0.43614129  1
  Zn  Zn171  1  0.43847293  0.18561109  0.93769186  1
  Zn  Zn172  1  0.43803503  0.68733132  0.43490251  1
  Zn  Zn173  1  0.43684066  0.68530649  0.93594649  1
  Zn  Zn174  1  0.93647055  0.18889780  0.43864983  1
  Zn  Zn175  1  0.93733048  0.19079829  0.93737909  1
  Zn  Zn176  1  0.93632527  0.68826104  0.43624221  1
  Zn  Zn177  1  0.93760126  0.68758611  0.93615582  1
  Zn  Zn178  1  0.06456725  0.31429927  0.06179275  1
  Zn  Zn179  1  0.06073472  0.31466249  0.56308558  1
  Zn  Zn180  1  0.06336168  0.80893041  0.05773010  1
  Zn  Zn181  1  0.06110659  0.81214425  0.55992839  1
  Zn  Zn182  1  0.56483137  0.31301043  0.06551121  1
  Zn  Zn183  1  0.56229152  0.31479194  0.56457668  1
  Zn  Zn184  1  0.56156974  0.81396576  0.06324597  1
  Zn  Zn185  1  0.56164646  0.81482341  0.56373105  1
  O  O186  1  0.11928667  0.11701990  0.11828612  1
  O  O187  1  0.12079190  0.11919969  0.61837616  1
  O  O188  1  0.12781666  0.61089471  0.12164839  1
  O  O189  1  0.13348460  0.61601390  0.61562589  1
  O  O190  1  0.62363704  0.11821990  0.11908025  1
  O  O191  1  0.61755910  0.11923831  0.62664429  1
  O  O192  1  0.61584021  0.61481930  0.12988475  1
  O  O193  1  0.63209312  0.61326110  0.62062709  1
  O  O194  1  0.38108990  0.37785232  0.38242341  1
  O  O195  1  0.36995119  0.38881001  0.87365602  1
  O  O196  1  0.37693723  0.87324191  0.38817796  1
  O  O197  1  0.37934774  0.87899242  0.87939603  1
  O  O198  1  0.88209173  0.37862591  0.38371202  1
  O  O199  1  0.88003372  0.38248278  0.88004117  1
  O  O200  1  0.88443808  0.87448557  0.38093245  1
  O  O201  1  0.87520016  0.87500752  0.88784989  1
  O  O202  1  0.25099103  -0.00038273  0.36356306  1
  O  O203  1  0.25542902  0.00402638  0.87135638  1
  O  O204  1  0.24987112  0.50696326  0.36833035  1
  O  O205  1  0.25814715  0.50581664  0.86944654  1
  O  O206  1  0.74988221  0.00973738  0.37062696  1
  O  O207  1  0.75136228  0.00651590  0.86825713  1
  O  O208  1  0.74899677  0.50763417  0.36945530  1
  O  O209  1  0.76037556  0.50812337  0.87370714  1
  O  O210  1  0.24422909  0.49237771  0.12910943  1
  O  O211  1  0.24609266  0.49366788  0.63072203  1
  O  O212  1  0.24570301  0.99110971  0.13094451  1
  O  O213  1  0.23954623  1.00066664  0.63097745  1
  O  O214  1  0.74285913  0.49763075  0.12897644  1
  O  O215  1  0.73885648  0.49429113  0.62681918  1
  O  O216  1  0.74367944  0.99484644  0.13087963  1
  O  O217  1  0.74498226  0.99502604  0.63062702  1
  O  O218  1  0.00389008  0.36604604  0.25664037  1
  O  O219  1  0.00538265  0.37484109  0.75943467  1
  O  O220  1  -0.00509126  0.86373304  0.26019351  1
  O  O221  1  0.00195127  0.86270344  0.75300094  1
  O  O222  1  0.50274781  0.36883733  0.25423950  1
  O  O223  1  0.51342086  0.36877414  0.74534403  1
  O  O224  1  0.50554872  0.86741752  0.24911368  1
  O  O225  1  0.50371200  0.86567276  0.75460071  1
  O  O226  1  0.49275929  0.13289840  0.25112652  1
  O  O227  1  0.49370373  0.13020559  0.74559306  1
  O  O228  1  0.49583286  0.62879059  0.23956330  1
  O  O229  1  0.49460194  0.63760782  0.75560031  1
  O  O230  1  0.99919243  0.13371280  0.24473499  1
  O  O231  1  0.99298734  0.12701612  0.74443020  1
  O  O232  1  0.99779027  0.63931146  0.24517163  1
  O  O233  1  0.98790671  0.63413971  0.75508959  1
  O  O234  1  0.36484576  0.24910222  0.00192271  1
  O  O235  1  0.37477232  0.25652296  0.50678816  1
  O  O236  1  0.37283447  0.75430955  0.00554920  1
  O  O237  1  0.37191849  0.75440179  0.50625913  1
  O  O238  1  0.87168998  0.26332239  0.00133322  1
  O  O239  1  0.86996960  0.25815193  0.50729480  1
  O  O240  1  0.86672457  0.75894163  0.00760433  1
  O  O241  1  0.86890403  0.75518336  0.50506632  1
  O  O242  1  0.12411224  0.24286148  0.49224430  1
  O  O243  1  0.13532273  0.24323447  0.99840724  1
  O  O244  1  0.12965601  0.74518331  0.49206151  1
  O  O245  1  0.12740600  0.74302657  0.98578815  1
  O  O246  1  0.63250533  0.25013797  0.49988310  1
  O  O247  1  0.62471912  0.24556390  0.99255599  1
  O  O248  1  0.62907325  0.74694249  0.49682267  1
  O  O249  1  0.63941054  0.75591034  0.99965136  1
  O  O250  1  0.49781718  0.24956752  0.13766974  1
  O  O251  1  0.49421281  0.24518674  0.63226032  1
  O  O252  1  0.49645613  0.74135724  0.12793483  1
  O  O253  1  0.48994289  0.75504111  0.63487646  1
  O  O254  1  1.00325772  0.24566622  0.13464654  1
  O  O255  1  0.99283367  0.24493180  0.62689787  1
  O  O256  1  0.99223262  0.75481950  0.13276563  1
  O  O257  1  0.99390048  0.75400572  0.63523240  1
  O  O258  1  0.00756008  0.25499058  0.36917663  1
  O  O259  1  0.00256483  0.26311277  0.87245722  1
  O  O260  1  0.00611361  0.75636500  0.36773954  1
  O  O261  1  0.00941685  0.74986859  0.86419282  1
  O  O262  1  0.50091841  0.25628732  0.36510111  1
  O  O263  1  0.51300216  0.24439116  0.86961661  1
  O  O264  1  0.50725943  0.75073361  0.36701951  1
  O  O265  1  0.50071588  0.75421123  0.86585800  1
  O  O266  1  0.23790738  0.12815905  0.49801320  1
  O  O267  1  0.24603728  0.13027386  0.99742726  1
  O  O268  1  0.24461822  0.63093207  0.49224564  1
  O  O269  1  0.25130682  0.62360393  0.98513351  1
  O  O270  1  0.74942144  0.13235559  0.49305430  1
  O  O271  1  0.74272557  0.12611006  0.99440540  1
  O  O272  1  0.74288241  0.63234383  0.49483447  1
  O  O273  1  0.75902042  0.63626428  0.99009088  1
  O  O274  1  0.25135117  0.36450324  0.00647325  1
  O  O275  1  0.25710461  0.37467506  0.50646905  1
  O  O276  1  0.25707298  0.87249941  0.01004555  1
  O  O277  1  0.25911105  0.86827455  0.50146348  1
  O  O278  1  0.76023550  0.37410586  0.00679222  1
  O  O279  1  0.75493814  0.37218131  0.50599320  1
  O  O280  1  0.75720592  0.86877661  0.00510525  1
  O  O281  1  0.75418158  0.87035798  0.50542414  1
  O  O282  1  0.13352805  0.50012665  0.23989409  1
  O  O283  1  0.13114706  0.49530526  0.74361071  1
  O  O284  1  0.13829445  1.00623820  0.24216143  1
  O  O285  1  0.12915423  1.00031295  0.74035963  1
  O  O286  1  0.62910009  0.49520248  0.24013112  1
  O  O287  1  0.62363677  0.49376671  0.74365314  1
  O  O288  1  0.62955235  0.99474608  0.24525956  1
  O  O289  1  0.63022077  0.99412911  0.74521162  1
  O  O290  1  0.36658157  0.00715992  0.24988908  1
  O  O291  1  0.37002729  0.00393538  0.75484294  1
  O  O292  1  0.36915178  0.50619447  0.25108060  1
  O  O293  1  0.37310634  0.50382876  0.75601098  1
  O  O294  1  0.86565859  0.00146919  0.25319505  1
  O  O295  1  0.86871810  0.00636061  0.75043827  1
  O  O296  1  0.86733642  0.50334277  0.25210461  1
  O  O297  1  0.87342127  0.50829160  0.75780272  1
  O  O298  1  0.11946014  0.36512421  0.37511642  1
  O  O299  1  0.11626402  0.37760528  0.86986119  1
  O  O300  1  0.11581595  0.86303109  0.38225911  1
  O  O301  1  0.12610496  0.86137352  0.87269843  1
  O  O302  1  0.61782176  0.37481109  0.36779453  1
  O  O303  1  0.63208542  0.36708490  0.86668070  1
  O  O304  1  0.62401849  0.86890047  0.36849554  1
  O  O305  1  0.61815247  0.87207937  0.86795560  1
  O  O306  1  0.37759154  0.12650062  0.13758345  1
  O  O307  1  0.37935832  0.12979410  0.63121126  1
  O  O308  1  0.38283558  0.62809637  0.12902032  1
  O  O309  1  0.36948854  0.63645509  0.63044908  1
  O  O310  1  0.88354347  0.12911926  0.12687642  1
  O  O311  1  0.87961134  0.13110230  0.62993247  1
  O  O312  1  0.87356873  0.63844899  0.12676475  1
  O  O313  1  0.86575284  0.63153526  0.63720959  1
  O  O314  1  0.24809001  0.25688366  0.11760943  1
  O  O315  1  0.25730331  0.25631022  0.62381811  1
  O  O316  1  0.25447958  0.75616664  0.12481080  1
  O  O317  1  0.25966402  0.75134894  0.61901658  1
  O  O318  1  0.75190851  0.25991584  0.12507371  1
  O  O319  1  0.75494166  0.25635919  0.62097515  1
  O  O320  1  0.75653508  0.75461651  0.11880828  1
  O  O321  1  0.75525632  0.75705618  0.61963863  1
  O  O322  1  0.23696614  0.24881153  0.37473044  1
  O  O323  1  0.24979166  0.24328535  0.88490656  1
  O  O324  1  0.24203972  0.74665757  0.37774545  1
  O  O325  1  0.24283403  0.73928032  0.87136200  1
  O  O326  1  0.74966516  0.24363719  0.38114296  1
  O  O327  1  0.73720812  0.24377792  0.87641956  1
  O  O328  1  0.74383187  0.74664633  0.38077533  1
  O  O329  1  0.75028976  0.74311826  0.88311698  1
  O  O330  1  0.00496691  0.11994403  0.00490691  1
  O  O331  1  0.01018662  0.12428801  0.50564449  1
  O  O332  1  -0.00248904  0.62678906  0.00617185  1
  O  O333  1  0.00630630  0.61493686  0.49296015  1
  O  O334  1  0.50649294  0.11694542  0.00186339  1
  O  O335  1  0.49961187  0.11928373  0.50767913  1
  O  O336  1  0.49520074  0.61506074  0.01195610  1
  O  O337  1  0.50603675  0.61399500  0.49494778  1
  O  O338  1  0.49560355  0.38471609  0.49610735  1
  O  O339  1  0.49698297  0.38777180  1.00784959  1
  O  O340  1  0.49038412  0.88075257  0.50017221  1
  O  O341  1  0.49407667  0.87907183  0.99421649  1
  O  O342  1  0.99492613  0.38496068  0.49549732  1
  O  O343  1  0.99118939  0.37146294  0.98983501  1
  O  O344  1  0.99344852  0.87419333  0.48885711  1
  O  O345  1  0.98998427  0.87891036  0.99987965  1
  O  O346  1  0.49988218  0.49537129  0.38540835  1
  O  O347  1  0.49188214  0.50797467  0.88613787  1
  O  O348  1  0.49651522  0.99764461  0.38385958  1
  O  O349  1  0.49416591  0.99355196  0.87946473  1
  O  O350  1  1.00186903  0.49540957  0.38421781  1
  O  O351  1  0.98912972  0.49091993  0.86945023  1
  O  O352  1  1.00172696  0.98831274  0.37416051  1
  O  O353  1  0.99749523  0.99600194  0.88411921  1
  O  O354  1  0.00535883  0.00363566  0.12134341  1
  O  O355  1  0.01002547  0.00637300  0.62364752  1
  O  O356  1  0.01751673  0.49826150  0.13259979  1
  O  O357  1  0.00683677  0.49488874  0.61243246  1
  O  O358  1  0.50643645  -0.00061646  0.11814631  1
  O  O359  1  0.50399640  0.00510692  0.62153916  1
  O  O360  1  0.50689491  0.50601584  0.11867390  1
  O  O361  1  0.51090283  0.49477893  0.61479337  1
  O  O362  1  0.24831479  0.37932562  0.24083815  1
  O  O363  1  0.24467078  0.38058650  0.74462273  1
  O  O364  1  0.25857231  0.88372543  0.23825839  1
  O  O365  1  0.24630229  0.88263708  0.74614754  1
  O  O366  1  0.74521377  0.38187803  0.24576670  1
  O  O367  1  0.73806406  0.37758674  0.74513468  1
  O  O368  1  0.74408479  0.87957600  0.24475672  1
  O  O369  1  0.74599366  0.87904429  0.74506219  1
  O  O370  1  0.25782236  0.11593178  0.24917691  1
  O  O371  1  0.25587404  0.11913227  0.75620414  1
  O  O372  1  0.25636239  0.62052888  0.25424283  1
  O  O373  1  0.25745959  0.61777265  0.75894376  1
  O  O374  1  0.75056489  0.12100806  0.25939783  1
  O  O375  1  0.75471123  0.11951184  0.75503144  1
  O  O376  1  0.74967409  0.61968979  0.25696990  1
  O  O377  1  0.76159257  0.62668404  0.75998895  1
  O  O378  1  0.37080352  0.12335049  0.36341010  1
  O  O379  1  0.37011988  0.11755044  0.86972032  1
  O  O380  1  0.36769525  0.62468599  0.36737029  1
  O  O381  1  0.36810282  0.61558988  0.86869940  1
  O  O382  1  0.86361091  0.12448808  0.37409849  1
  O  O383  1  0.86810156  0.12526672  0.86962338  1
  O  O384  1  0.86516762  0.62506535  0.37244463  1
  O  O385  1  0.86834467  0.61868496  0.86713084  1
  O  O386  1  0.13563343  0.38480282  0.12561628  1
  O  O387  1  0.13075100  0.38186744  0.62898770  1
  O  O388  1  0.13771432  0.87798533  0.11763074  1
  O  O389  1  0.12557800  0.88710642  0.62274049  1
  O  O390  1  0.63118296  0.38517458  0.13110161  1
  O  O391  1  0.62964739  0.38427005  0.63396685  1
  O  O392  1  0.63052849  0.88042204  0.13058496  1
  O  O393  1  0.63083961  0.88115236  0.63132381  1
  O  O394  1  0.11575539  0.24865642  0.25913531  1
  O  O395  1  0.12386690  0.25876199  0.75279741  1
  O  O396  1  0.11717271  0.74549004  0.26021772  1
  O  O397  1  0.11786110  0.74680445  0.75517106  1
  O  O398  1  0.61455717  0.25679715  0.25112615  1
  O  O399  1  0.62046676  0.25765677  0.75772640  1
  O  O400  1  0.62065489  0.75567828  0.25405185  1
  O  O401  1  0.61622325  0.75537776  0.74850391  1
  O  O402  1  0.38214982  0.24228420  0.24952606  1
  O  O403  1  0.37986464  0.24409952  0.74612068  1
  O  O404  1  0.38110551  0.74377701  0.24259641  1
  O  O405  1  0.38174939  0.74576750  0.74237360  1
  O  O406  1  0.88896325  0.25043555  0.24961298  1
  O  O407  1  0.87412327  0.24436321  0.74389778  1
  O  O408  1  0.88146840  0.75103527  0.23942669  1
  O  O409  1  0.88236668  0.74367422  0.74592984  1
  O  O410  1  0.38435542  0.49583317  0.50117663  1
  O  O411  1  0.38312052  0.49645285  0.99141106  1
  O  O412  1  0.37822187  0.99051275  0.50135544  1
  O  O413  1  0.37992701  0.99402025  0.99467139  1
  O  O414  1  0.88347733  0.49712783  0.50042271  1
  O  O415  1  0.87085161  0.48985591  0.98923984  1
  O  O416  1  0.87872487  0.99198461  0.49698288  1
  O  O417  1  0.87954563  0.98943745  1.00212536  1
  O  O418  1  0.11963078  0.00365884  0.00645632  1
  O  O419  1  0.12496657  0.00919619  0.50752163  1
  O  O420  1  0.13134220  0.49892797  0.01427604  1
  O  O421  1  0.11788651  0.50533966  0.50373202  1
  O  O422  1  0.61978339  0.00369145  0.00486998  1
  O  O423  1  0.61773322  0.00176289  0.50899981  1
  O  O424  1  0.61860574  0.49439430  0.01129714  1
  O  O425  1  0.61810733  0.50507492  0.50817454  1
  O  O426  1  0.36202532  0.37362602  0.12200375  1
  O  O427  1  0.37029658  0.36958092  0.62117469  1
  O  O428  1  0.36667324  0.86799188  0.11914261  1
  O  O429  1  0.37321608  0.86435309  0.61497558  1
  O  O430  1  0.87169986  0.37664590  0.11565733  1
  O  O431  1  0.86869001  0.37198820  0.62148723  1
  O  O432  1  0.86937065  0.86683840  0.11719698  1
  O  O433  1  0.86941076  0.86898826  0.61954947  1
  O  O434  1  0.12374993  0.13334945  0.38387711  1
  O  O435  1  0.13247976  0.12467237  0.88202216  1
  O  O436  1  0.13003231  0.63614449  0.38065923  1
  O  O437  1  0.13408271  0.62880719  0.87153741  1
  O  O438  1  0.63760145  0.12865696  0.37850885  1
  O  O439  1  0.63020916  0.13285616  0.88002537  1
  O  O440  1  0.63029483  0.63221701  0.38170120  1
  O  O441  1  0.64145674  0.62580947  0.86861459  1
