# generated using pymatgen
data_V93Zn93O256
_symmetry_space_group_name_H-M   'P 1'
_cell_length_a   17.05476296
_cell_length_b   17.05156433
_cell_length_c   17.06148337
_cell_angle_alpha   89.99856869
_cell_angle_beta   90.04262086
_cell_angle_gamma   90.01101583
_symmetry_Int_Tables_number   1
_chemical_formula_structural   V93Zn93O256
_chemical_formula_sum   'V93 Zn93 O256'
_cell_volume   4961.65512709
_cell_formula_units_Z   1
loop_
 _symmetry_equiv_pos_site_id
 _symmetry_equiv_pos_as_xyz
  1  'x, y, z'
loop_
 _atom_site_type_symbol
 _atom_site_label
 _atom_site_symmetry_multiplicity
 _atom_site_fract_x
 _atom_site_fract_y
 _atom_site_fract_z
 _atom_site_occupancy
  V  V0  1  0.62312949  0.37085284  0.74862700  1
  V  V1  1  0.62209950  0.37563044  0.24885910  1
  V  V2  1  0.37684677  0.12703799  0.75034104  1
  V  V3  1  0.12613146  0.87547977  0.74978242  1
  V  V4  1  0.73848514  0.62540706  0.87773912  1
  V  V5  1  0.74880839  0.12574815  0.87625034  1
  V  V6  1  -0.00094976  0.24989453  0.24970069  1
  V  V7  1  0.25055902  0.87536907  0.12527285  1
  V  V8  1  -0.00024935  0.00017623  0.50024643  1
  V  V9  1  0.37567300  0.49866830  0.87518878  1
  V  V10  1  0.62539370  -0.00454336  0.62861492  1
  V  V11  1  0.12570749  0.00007230  0.62605568  1
  V  V12  1  0.62336451  0.50165065  0.11745106  1
  V  V13  1  0.87436230  0.75080990  0.62530236  1
  V  V14  1  0.87456167  0.37441263  -0.00006756  1
  V  V15  1  0.00037163  0.62493519  0.12360198  1
  V  V16  1  0.12612130  0.62721530  0.49780203  1
  V  V17  1  0.12448045  0.12489764  0.00041450  1
  V  V18  1  0.00089689  0.75094111  0.25087483  1
  V  V19  1  0.12416307  0.49982171  0.62451988  1
  V  V20  1  0.25036744  0.37444451  0.62414621  1
  V  V21  1  0.25002729  -0.00026730  0.74978156  1
  V  V22  1  -0.00877547  0.50002311  0.49620885  1
  V  V23  1  0.37610321  0.25040224  0.12496578  1
  V  V24  1  0.74974295  0.37452631  0.12417258  1
  V  V25  1  0.62368985  0.24587444  0.87226719  1
  V  V26  1  0.87228482  0.61813373  0.25663445  1
  V  V27  1  0.00031853  0.25038117  0.74929362  1
  V  V28  1  -0.00023944  0.74990885  0.75045383  1
  V  V29  1  0.12533392  0.74982178  0.87490661  1
  V  V30  1  0.12532572  0.25106367  0.37567382  1
  V  V31  1  0.62258707  0.62311633  0.50169777  1
  V  V32  1  0.38004695  0.62774075  0.74827380  1
  V  V33  1  0.00068408  0.50077245  -0.00056817  1
  V  V34  1  0.87427318  0.74917292  0.12412822  1
  V  V35  1  -0.00835273  0.37949562  0.37465360  1
  V  V36  1  0.62615152  0.12707665  0.49926773  1
  V  V37  1  0.12495126  0.12585924  0.49968221  1
  V  V38  1  0.37792452  0.87488283  -0.00429299  1
  V  V39  1  0.00021268  0.12546363  0.62506606  1
  V  V40  1  0.49953657  -0.00380258  0.49848871  1
  V  V41  1  -0.00040704  0.87482751  0.87592467  1
  V  V42  1  0.25083736  0.12579531  0.87511250  1
  V  V43  1  0.25016167  0.25068243  0.00027557  1
  V  V44  1  0.38183446  0.63242937  0.25009785  1
  V  V45  1  0.25007999  0.62586763  0.37436383  1
  V  V46  1  0.87555150  0.12563217  0.24958908  1
  V  V47  1  0.87617166  0.87433857  0.00022949  1
  V  V48  1  0.62514580  0.00084046  0.12677817  1
  V  V49  1  0.25079507  0.37603183  0.12544710  1
  V  V50  1  0.50649317  0.76469055  0.75557311  1
  V  V51  1  -0.00055425  0.87471546  0.37410528  1
  V  V52  1  0.50042843  0.12664385  0.63349573  1
  V  V53  1  0.74840112  0.49872821  0.74945032  1
  V  V54  1  0.87427835  -0.00009577  0.37532161  1
  V  V55  1  0.24971176  0.00018384  0.24993891  1
  V  V56  1  0.74832298  0.75005520  0.49994761  1
  V  V57  1  0.74880975  0.12507208  0.37575592  1
  V  V58  1  0.00054651  -0.00034194  0.00025346  1
  V  V59  1  0.25026399  0.50104901  0.74987620  1
  V  V60  1  -0.00051165  0.62488180  0.62501921  1
  V  V61  1  0.87207933  0.25334364  0.62116871  1
  V  V62  1  0.61986856  0.74915427  0.37256135  1
  V  V63  1  0.87442035  0.12530984  0.74967702  1
  V  V64  1  0.61837760  0.87094947  0.25154502  1
  V  V65  1  0.74176326  0.74472957  -0.00061961  1
  V  V66  1  0.49998587  0.12663428  0.12581036  1
  V  V67  1  0.50359233  0.63205548  0.12059802  1
  V  V68  1  0.12563068  0.00044072  0.12487041  1
  V  V69  1  0.87452245  0.87488828  0.50023274  1
  V  V70  1  0.37559844  0.00081450  0.37529466  1
  V  V71  1  0.37587168  0.37590266  -0.00111977  1
  V  V72  1  0.75025364  0.87405885  0.12583450  1
  V  V73  1  -0.00077970  0.37582856  0.87521891  1
  V  V74  1  0.25252611  0.75035994  0.00118114  1
  V  V75  1  0.87292806  0.62529302  0.75139927  1
  V  V76  1  0.49973492  0.37501427  0.37495303  1
  V  V77  1  0.25048372  0.50069794  0.24884656  1
  V  V78  1  0.74886904  0.87573136  0.62716249  1
  V  V79  1  0.37480937  0.49951274  0.37471428  1
  V  V80  1  0.12501907  0.62537817  -0.00000813  1
  V  V81  1  0.49957847  0.36901685  0.87183172  1
  V  V82  1  0.50177814  -0.00293181  -0.00393724  1
  V  V83  1  0.37661847  0.00037203  0.87563576  1
  V  V84  1  0.12528745  0.25050219  0.87476058  1
  V  V85  1  0.74774051  -0.00488986  0.75178634  1
  V  V86  1  0.12557895  0.37647208  0.25025742  1
  V  V87  1  0.37429929  0.37579309  0.50009329  1
  V  V88  1  0.75064727  -0.00085352  0.25043003  1
  V  V89  1  0.12466876  0.37562953  0.74940190  1
  V  V90  1  0.37902280  0.25022728  0.62861807  1
  V  V91  1  0.24918629  0.12563723  0.37530485  1
  V  V92  1  0.25103763  0.62496313  0.87550113  1
  Zn  Zn93  1  0.75167028  0.61713664  0.37964079  1
  Zn  Zn94  1  0.25533338  0.75130599  0.50124924  1
  Zn  Zn95  1  0.74984633  0.25403355  0.49801850  1
  Zn  Zn96  1  0.12639170  0.50074625  0.12429007  1
  Zn  Zn97  1  0.62296643  0.76952213  0.87444766  1
  Zn  Zn98  1  0.86693947  0.38093169  0.49524270  1
  Zn  Zn99  1  0.62717828  0.12633658  0.00140559  1
  Zn  Zn100  1  -0.00132720  0.12648716  0.12462055  1
  Zn  Zn101  1  0.37559436  0.75420522  0.62352337  1
  Zn  Zn102  1  0.49830725  0.24910981  0.25149631  1
  Zn  Zn103  1  0.62153891  0.49869726  0.62420642  1
  Zn  Zn104  1  0.49968807  0.50132222  0.50427799  1
  Zn  Zn105  1  0.12595317  0.87499103  0.25047694  1
  Zn  Zn106  1  0.37007692  0.87157323  0.50015987  1
  Zn  Zn107  1  0.75022122  0.24814854  0.00002456  1
  Zn  Zn108  1  0.87589092  0.00085069  0.87522843  1
  Zn  Zn109  1  0.12766561  0.75318433  0.37541512  1
  Zn  Zn110  1  0.24968875  0.24997052  0.49992501  1
  Zn  Zn111  1  0.62513099  0.25097049  0.37417494  1
  Zn  Zn112  1  0.25082847  0.87226212  0.62166650  1
  Zn  Zn113  1  0.38037586  0.75446455  0.13014150  1
  Zn  Zn114  1  0.50358501  0.50437106  -0.00353273  1
  Zn  Zn115  1  0.74717266  0.37467073  0.62176916  1
  Zn  Zn116  1  0.50093308  0.62639308  0.62683788  1
  Zn  Zn117  1  0.75474185  0.49493633  0.25501250  1
  Zn  Zn118  1  0.87522606  0.24826158  0.12508137  1
  Zn  Zn119  1  0.49570226  0.87066998  0.37022992  1
  Zn  Zn120  1  0.87388406  0.50221313  0.87530827  1
  Zn  Zn121  1  0.37450067  0.12751526  0.25086941  1
  Zn  Zn122  1  0.18684345  0.18736892  0.18840880  1
  Zn  Zn123  1  0.19005364  0.18790863  0.68637013  1
  Zn  Zn124  1  0.18967705  0.68734434  0.18646445  1
  Zn  Zn125  1  0.18979959  0.68852496  0.68549591  1
  Zn  Zn126  1  0.68718184  0.18938970  0.18884321  1
  Zn  Zn127  1  0.68728211  0.18514301  0.68891500  1
  Zn  Zn128  1  0.68634787  0.68790734  0.18733628  1
  Zn  Zn129  1  0.68531164  0.68798573  0.68824662  1
  Zn  Zn130  1  0.31293374  0.31120008  0.31128118  1
  Zn  Zn131  1  0.31246464  0.31201428  0.81043581  1
  Zn  Zn132  1  0.31084442  0.81298824  0.31549990  1
  Zn  Zn133  1  0.31406223  0.81225401  0.81174401  1
  Zn  Zn134  1  0.80954662  0.30911574  0.31124400  1
  Zn  Zn135  1  0.81204672  0.31202219  0.81174922  1
  Zn  Zn136  1  0.80956348  0.80865787  0.31337976  1
  Zn  Zn137  1  0.81128765  0.81159192  0.81562874  1
  Zn  Zn138  1  0.18558697  0.43911624  0.43697533  1
  Zn  Zn139  1  0.18762562  0.43834252  0.93781707  1
  Zn  Zn140  1  0.18671292  0.93605079  0.43695604  1
  Zn  Zn141  1  0.18889066  0.93723890  0.93748974  1
  Zn  Zn142  1  0.69040605  0.44039251  0.43517313  1
  Zn  Zn143  1  0.68819324  0.43678306  0.93499906  1
  Zn  Zn144  1  0.68659117  0.93648729  0.43785445  1
  Zn  Zn145  1  0.69177417  0.93960581  0.94324181  1
  Zn  Zn146  1  0.31326049  0.06302044  0.06320180  1
  Zn  Zn147  1  0.31151918  0.06189043  0.56173846  1
  Zn  Zn148  1  0.31619943  0.56296829  0.06356259  1
  Zn  Zn149  1  0.31297994  0.56253499  0.56268823  1
  Zn  Zn150  1  0.81442782  0.06143086  0.06307776  1
  Zn  Zn151  1  0.81258741  0.06396329  0.56309079  1
  Zn  Zn152  1  0.81231589  0.56166255  0.06454853  1
  Zn  Zn153  1  0.80799525  0.56483195  0.56542966  1
  Zn  Zn154  1  0.43847147  0.44279352  0.18666563  1
  Zn  Zn155  1  0.43977384  0.43974887  0.68706224  1
  Zn  Zn156  1  0.43567559  0.94058330  0.18535359  1
  Zn  Zn157  1  0.43210409  0.93942986  0.68252116  1
  Zn  Zn158  1  0.94022820  0.43747169  0.18491796  1
  Zn  Zn159  1  0.93586881  0.43814696  0.68618683  1
  Zn  Zn160  1  0.93805815  0.93821389  0.18605807  1
  Zn  Zn161  1  0.93664051  0.93806673  0.68879112  1
  Zn  Zn162  1  0.06285620  0.06269051  0.31167095  1
  Zn  Zn163  1  0.06249419  0.06223996  0.81354186  1
  Zn  Zn164  1  0.06218370  0.56209222  0.31255221  1
  Zn  Zn165  1  0.06174719  0.56225171  0.81357845  1
  Zn  Zn166  1  0.56290298  0.06090808  0.31174798  1
  Zn  Zn167  1  0.56251536  -0.05516673  0.81361162  1
  Zn  Zn168  1  0.56401997  0.56130457  0.31099619  1
  Zn  Zn169  1  0.56070033  0.55893861  0.81216780  1
  Zn  Zn170  1  0.43775377  0.18803504  0.44155647  1
  Zn  Zn171  1  0.43977055  0.18653282  0.93867497  1
  Zn  Zn172  1  0.43813759  0.68733228  0.43768718  1
  Zn  Zn173  1  0.44019705  0.68952928  0.93565300  1
  Zn  Zn174  1  0.93798198  0.18889698  0.43614804  1
  Zn  Zn175  1  0.93726819  0.18816237  0.93767866  1
  Zn  Zn176  1  0.93850223  0.68859457  0.43741643  1
  Zn  Zn177  1  0.93312632  0.68699388  0.93641373  1
  Zn  Zn178  1  0.06256109  0.31247772  0.06456833  1
  Zn  Zn179  1  0.06023383  0.31349457  0.56028081  1
  Zn  Zn180  1  0.06426641  0.81257508  0.06352152  1
  Zn  Zn181  1  0.06310958  0.81360029  0.56363525  1
  Zn  Zn182  1  0.56284970  0.31221713  0.05745478  1
  Zn  Zn183  1  0.56007966  0.31251530  0.56240382  1
  Zn  Zn184  1  0.56334586  0.81474781  0.06357326  1
  Zn  Zn185  1  0.55978561  0.80851313  0.56605998  1
  O  O186  1  0.12440741  0.11902277  0.11718381  1
  O  O187  1  0.11893734  0.12082964  0.62081544  1
  O  O188  1  0.11855717  0.62504729  0.11720561  1
  O  O189  1  0.11910144  0.61898905  0.61798190  1
  O  O190  1  0.61743965  0.12028731  0.12454369  1
  O  O191  1  0.61954714  0.11716495  0.61892406  1
  O  O192  1  0.61153175  0.61646147  0.13457822  1
  O  O193  1  0.62438741  0.62588377  0.61304673  1
  O  O194  1  0.38103009  0.37905586  0.37919367  1
  O  O195  1  0.38187435  0.37712648  0.87704090  1
  O  O196  1  0.37791524  0.88850791  0.37599095  1
  O  O197  1  0.36866435  0.88315526  0.88893090  1
  O  O198  1  0.88859601  0.36913285  0.37487564  1
  O  O199  1  0.88028664  0.37577782  0.88380519  1
  O  O200  1  0.87833456  0.87988366  0.38097886  1
  O  O201  1  0.88231410  0.87572810  0.88196378  1
  O  O202  1  0.25764461  0.00563064  0.37051234  1
  O  O203  1  0.25565981  0.00738138  0.87049221  1
  O  O204  1  0.25535717  0.50541335  0.36854513  1
  O  O205  1  0.25485570  0.50473391  0.86871102  1
  O  O206  1  0.75544123  0.00447722  0.37032462  1
  O  O207  1  0.75216015  0.00951894  0.86708046  1
  O  O208  1  0.74644703  0.50574308  0.36570713  1
  O  O209  1  0.75143530  0.50672842  0.86615598  1
  O  O210  1  0.25007614  0.49372262  0.13056439  1
  O  O211  1  0.24411809  0.49426884  0.63104219  1
  O  O212  1  0.24585991  0.99561897  0.12965156  1
  O  O213  1  0.24209456  1.00260756  0.63340670  1
  O  O214  1  0.74255001  0.49070230  0.12897311  1
  O  O215  1  0.74593466  0.49875253  0.63895565  1
  O  O216  1  0.74472329  0.99399129  0.13043171  1
  O  O217  1  0.74375961  0.99766907  0.63235886  1
  O  O218  1  0.00489814  0.37211559  0.25692975  1
  O  O219  1  0.00545665  0.37077676  0.75473885  1
  O  O220  1  -0.00188168  0.86525620  0.25457249  1
  O  O221  1  0.00501263  0.86956388  0.75552562  1
  O  O222  1  0.50575105  0.37486584  0.25698148  1
  O  O223  1  0.50984172  0.38001326  0.76234726  1
  O  O224  1  0.51462357  0.88204711  0.24868034  1
  O  O225  1  0.49679408  0.86897602  0.75094649  1
  O  O226  1  0.49977456  0.12533368  0.23716887  1
  O  O227  1  0.49381946  0.11999368  0.73359821  1
  O  O228  1  0.48958832  0.61701657  0.23871600  1
  O  O229  1  0.49013956  0.62875581  0.75208081  1
  O  O230  1  0.99324880  0.13157574  0.25049996  1
  O  O231  1  0.99567822  0.13067420  0.74517579  1
  O  O232  1  0.99159238  0.63209986  0.24566944  1
  O  O233  1  0.99476973  0.62997949  0.74494068  1
  O  O234  1  0.36896641  0.25564848  0.00434372  1
  O  O235  1  0.37189173  0.25619637  0.51106436  1
  O  O236  1  0.37138231  0.76042638  0.00005607  1
  O  O237  1  0.37534803  0.75259506  0.50317712  1
  O  O238  1  0.87438347  0.26328601  0.00229250  1
  O  O239  1  0.87526740  0.25077378  0.51106634  1
  O  O240  1  0.86707902  0.75544347  0.00544777  1
  O  O241  1  0.87001527  0.75479533  0.50599565  1
  O  O242  1  0.12510018  0.24361544  0.49406826  1
  O  O243  1  0.13037567  0.24587662  0.99394612  1
  O  O244  1  0.12006943  0.73445136  0.49967061  1
  O  O245  1  0.13117180  0.74494779  0.99393552  1
  O  O246  1  0.62443267  0.23567133  0.50086792  1
  O  O247  1  0.62941623  0.24845993  0.98698181  1
  O  O248  1  0.62938045  0.74415231  0.49387285  1
  O  O249  1  0.63926758  0.75645596  0.99892103  1
  O  O250  1  0.49565680  0.24081408  0.12147368  1
  O  O251  1  0.48851658  0.23983198  0.61856882  1
  O  O252  1  0.50182853  0.73605636  0.12295727  1
  O  O253  1  0.49653351  0.74805426  0.64216021  1
  O  O254  1  0.99788565  0.24852479  0.13439136  1
  O  O255  1  0.99346716  0.24513908  0.63026142  1
  O  O256  1  0.99470145  0.74577388  0.13185566  1
  O  O257  1  0.99415980  0.74477142  0.63081167  1
  O  O258  1  0.00608702  0.25897559  0.36988579  1
  O  O259  1  0.00605430  0.25570000  0.86890448  1
  O  O260  1  0.00029705  0.75591179  0.36567229  1
  O  O261  1  0.00529298  0.75427397  0.86990171  1
  O  O262  1  0.50044673  0.26188759  0.37425322  1
  O  O263  1  0.50929167  0.25861510  0.87898243  1
  O  O264  1  0.51542283  0.75429090  0.37940254  1
  O  O265  1  0.50394301  0.74767798  0.86087549  1
  O  O266  1  0.24199751  0.12537428  0.49321824  1
  O  O267  1  0.24527751  0.13106768  0.99432999  1
  O  O268  1  0.23903782  0.62114633  0.49373546  1
  O  O269  1  0.24655609  0.63008470  0.99490846  1
  O  O270  1  0.73992900  0.12306829  0.49500562  1
  O  O271  1  0.75030946  0.12503059  0.98960969  1
  O  O272  1  0.74138800  0.63257902  0.50038694  1
  O  O273  1  0.75756028  0.63474644  0.99172310  1
  O  O274  1  0.25511281  0.36933110  0.00437241  1
  O  O275  1  0.25548578  0.37535573  0.50672211  1
  O  O276  1  0.25853171  0.87124292  0.00536445  1
  O  O277  1  0.24976971  0.87108198  0.50201735  1
  O  O278  1  0.75880288  0.37633614  0.00689687  1
  O  O279  1  0.75096820  0.37197804  0.50409972  1
  O  O280  1  0.75764052  0.86728068  0.00746271  1
  O  O281  1  0.75579564  0.87094891  0.50672364  1
  O  O282  1  0.13191669  0.49470031  0.24778786  1
  O  O283  1  0.12972202  0.49558417  0.74469120  1
  O  O284  1  0.13148684  0.99876237  0.24308333  1
  O  O285  1  0.12968618  0.99569635  0.74598913  1
  O  O286  1  0.62343679  0.48749996  0.23769268  1
  O  O287  1  0.63338660  0.48903854  0.75135653  1
  O  O288  1  0.63222556  0.99192271  0.24628554  1
  O  O289  1  0.63447233  1.00139202  0.73741291  1
  O  O290  1  0.37018597  0.00318134  0.25966306  1
  O  O291  1  0.37043609  0.00749762  0.75649766  1
  O  O292  1  0.36876366  0.50777384  0.25538236  1
  O  O293  1  0.36948233  0.50673803  0.75618157  1
  O  O294  1  0.86987662  0.00438440  0.25584750  1
  O  O295  1  0.86577568  0.00729337  0.75037786  1
  O  O296  1  0.87832813  0.51602802  0.24393318  1
  O  O297  1  0.86487506  0.50534287  0.75043871  1
  O  O298  1  0.11685714  0.37060560  0.36961804  1
  O  O299  1  0.12015350  0.36979253  0.86921898  1
  O  O300  1  0.11478431  0.87309643  0.37057985  1
  O  O301  1  0.11978482  0.86908473  0.87029089  1
  O  O302  1  0.61538338  0.37519004  0.36553848  1
  O  O303  1  0.61910288  0.36712564  0.86897355  1
  O  O304  1  0.62486314  0.86878072  0.36721957  1
  O  O305  1  0.63030683  0.88149001  0.87345837  1
  O  O306  1  0.38430300  0.13062306  0.12502773  1
  O  O307  1  0.38122939  0.13104438  0.62804987  1
  O  O308  1  0.38641347  0.62630595  0.13281787  1
  O  O309  1  0.37408458  0.62454981  0.64013300  1
  O  O310  1  0.87656538  0.12730492  0.13351519  1
  O  O311  1  0.88101920  0.13237865  0.62968393  1
  O  O312  1  0.88151900  0.63093001  0.13207010  1
  O  O313  1  0.87963117  0.63211517  0.63128140  1
  O  O314  1  0.25528800  0.25570612  0.11926524  1
  O  O315  1  0.25939694  0.25593980  0.62261166  1
  O  O316  1  0.25342747  0.75645010  0.11775737  1
  O  O317  1  0.25432413  0.75257693  0.62158594  1
  O  O318  1  0.74978639  0.26326157  0.12185320  1
  O  O319  1  0.76159979  0.24817734  0.62512442  1
  O  O320  1  0.75398085  0.75356898  0.11711621  1
  O  O321  1  0.75494053  0.75637001  0.62141353  1
  O  O322  1  0.24352876  0.24428635  0.37666967  1
  O  O323  1  0.24487224  0.24580241  0.87993955  1
  O  O324  1  0.24579161  0.74051142  0.37798330  1
  O  O325  1  0.24481834  0.74443871  0.88071168  1
  O  O326  1  0.74530109  0.24047679  0.37800744  1
  O  O327  1  0.74408843  0.24227491  0.87519403  1
  O  O328  1  0.73999200  0.74665918  0.38305682  1
  O  O329  1  0.74646558  0.74238816  0.88183573  1
  O  O330  1  0.00658177  0.11899106  -0.00023717  1
  O  O331  1  0.00474482  0.11916611  0.50489205  1
  O  O332  1  0.00413695  0.62144308  0.00328261  1
  O  O333  1  0.00567040  0.61828729  0.50396636  1
  O  O334  1  0.50122936  0.11514671  0.00953905  1
  O  O335  1  0.50766275  0.11559033  0.50765385  1
  O  O336  1  0.49310276  0.62265363  0.01568372  1
  O  O337  1  0.51137920  0.62431407  0.50197317  1
  O  O338  1  0.49446777  0.37642056  0.49027171  1
  O  O339  1  0.49355079  0.37664211  0.98807919  1
  O  O340  1  0.50308167  0.89043806  0.49861304  1
  O  O341  1  0.48991477  0.88640178  1.00990344  1
  O  O342  1  0.99873946  0.38444666  0.49157508  1
  O  O343  1  0.99349359  0.37960594  0.99572849  1
  O  O344  1  0.99375666  0.88041489  0.49529504  1
  O  O345  1  0.99608706  0.87872998  0.99514420  1
  O  O346  1  0.49394236  0.48837916  0.37483803  1
  O  O347  1  0.49462017  0.48945499  0.87806079  1
  O  O348  1  0.49246705  1.00118272  0.38263675  1
  O  O349  1  0.49325214  1.00220807  0.88891377  1
  O  O350  1  1.00526929  0.49089644  0.38464141  1
  O  O351  1  0.99734344  0.49358409  0.88074501  1
  O  O352  1  0.99342509  0.99512437  0.38053664  1
  O  O353  1  0.99885167  0.99313240  0.88144130  1
  O  O354  1  0.00726895  0.00119731  0.11786225  1
  O  O355  1  0.00458488  0.00605478  0.62043313  1
  O  O356  1  0.00374333  0.50678005  0.11672374  1
  O  O357  1  0.00518701  0.50510866  0.61781852  1
  O  O358  1  0.50414243  0.00885464  0.11776420  1
  O  O359  1  0.50768667  0.00692673  0.61785805  1
  O  O360  1  0.50714109  0.50780073  0.11988222  1
  O  O361  1  0.50451144  0.50561721  0.62229312  1
  O  O362  1  0.24556467  0.38087051  0.24532489  1
  O  O363  1  0.24397119  0.38107289  0.74454417  1
  O  O364  1  0.24933573  0.88165842  0.24350244  1
  O  O365  1  0.24274014  0.88288762  0.75216470  1
  O  O366  1  0.74169045  0.37404820  0.24039614  1
  O  O367  1  0.74159141  0.38323556  0.75137321  1
  O  O368  1  0.74370319  0.88010285  0.24481340  1
  O  O369  1  0.75865855  0.88783811  0.74368701  1
  O  O370  1  0.25104874  0.11825101  0.25736117  1
  O  O371  1  0.25580214  0.12009312  0.75644841  1
  O  O372  1  0.25810251  0.61976656  0.25395518  1
  O  O373  1  0.25760536  0.62056162  0.75678654  1
  O  O374  1  0.75377535  0.11875887  0.25552615  1
  O  O375  1  0.75414158  0.11518465  0.75651070  1
  O  O376  1  0.76711836  0.62746382  0.24554465  1
  O  O377  1  0.75258203  0.61837904  0.75692247  1
  O  O378  1  0.37034851  0.11648369  0.37532815  1
  O  O379  1  0.37009179  0.12143706  0.87078083  1
  O  O380  1  0.37165627  0.61903565  0.36746934  1
  O  O381  1  0.37024674  0.61921881  0.86807053  1
  O  O382  1  0.86947751  0.11864629  0.37047060  1
  O  O383  1  0.86533948  0.12671621  0.86845716  1
  O  O384  1  0.87502506  0.63131169  0.35928815  1
  O  O385  1  0.86435143  0.62394403  0.86736481  1
  O  O386  1  0.13306568  0.37645626  0.13169859  1
  O  O387  1  0.12909182  0.37962915  0.62990156  1
  O  O388  1  0.13288879  0.88213113  0.12580970  1
  O  O389  1  0.12361110  0.88324900  0.63300989  1
  O  O390  1  0.63010920  0.38035495  0.12923130  1
  O  O391  1  0.62463446  0.37233279  0.63742352  1
  O  O392  1  0.63096246  0.87990951  0.13339330  1
  O  O393  1  0.63194130  0.88883489  0.61587948  1
  O  O394  1  0.11970150  0.25636919  0.25625084  1
  O  O395  1  0.12057719  0.25551439  0.75469217  1
  O  O396  1  0.11083061  0.74915187  0.24955233  1
  O  O397  1  0.11895175  0.75425407  0.75564484  1
  O  O398  1  0.62044219  0.26373488  0.24990652  1
  O  O399  1  0.63190604  0.25957227  0.76038325  1
  O  O400  1  0.63364247  0.76053618  0.25965899  1
  O  O401  1  0.60934586  0.74879147  0.75037664  1
  O  O402  1  0.37827659  0.24723701  0.24084878  1
  O  O403  1  0.36989563  0.24354398  0.73705409  1
  O  O404  1  0.37171554  0.73709705  0.25002296  1
  O  O405  1  0.38677729  0.74257007  0.75385810  1
  O  O406  1  0.88106438  0.24295538  0.24889495  1
  O  O407  1  0.88095727  0.24548910  0.74192881  1
  O  O408  1  0.88354524  0.74307455  0.24429242  1
  O  O409  1  0.88006843  0.74572362  0.74438458  1
  O  O410  1  0.37589968  0.49404830  0.49221674  1
  O  O411  1  0.37392749  0.49221540  0.99135092  1
  O  O412  1  0.38435554  1.00289674  0.49134440  1
  O  O413  1  0.38182199  0.99419328  0.99638106  1
  O  O414  1  0.88817840  0.50189858  0.50785430  1
  O  O415  1  0.88063845  0.48941471  0.99935925  1
  O  O416  1  0.88010939  0.99516972  0.49562756  1
  O  O417  1  0.88197645  0.99197156  0.99880022  1
  O  O418  1  0.12096456  0.00545626  0.00431345  1
  O  O419  1  0.11783770  0.00619582  0.50562899  1
  O  O420  1  0.11929782  0.50774500  -0.00007208  1
  O  O421  1  0.11555006  0.50896572  0.50509250  1
  O  O422  1  0.61681449  0.00196630  0.00913062  1
  O  O423  1  0.61968935  0.00908406  0.50656730  1
  O  O424  1  0.62533858  0.49426512  0.01321018  1
  O  O425  1  0.62474589  0.51253456  0.50090317  1
  O  O426  1  0.37070220  0.37093949  0.11925008  1
  O  O427  1  0.37153651  0.36832634  0.62202443  1
  O  O428  1  0.36950529  0.87478214  0.11555434  1
  O  O429  1  0.36919759  0.87490293  0.61878420  1
  O  O430  1  0.86598624  0.37589703  0.11782489  1
  O  O431  1  0.87392852  0.36352131  0.62365445  1
  O  O432  1  0.86938212  0.86882112  0.12070988  1
  O  O433  1  0.87017630  0.87019979  0.61922914  1
  O  O434  1  0.12884033  0.13047294  0.38063694  1
  O  O435  1  0.13099728  0.13129222  0.87981765  1
  O  O436  1  0.12984117  0.62480705  0.38357832  1
  O  O437  1  0.13086682  0.63059049  0.87967258  1
  O  O438  1  0.62873600  0.12432056  0.38407194  1
  O  O439  1  0.63873213  0.13544078  0.87571094  1
  O  O440  1  0.62503903  0.63351619  0.38127885  1
  O  O441  1  0.63753650  0.62314597  0.87179645  1
