# generated using pymatgen
data_V93Zn93O256
_symmetry_space_group_name_H-M   'P 1'
_cell_length_a   17.04936837
_cell_length_b   17.04804467
_cell_length_c   17.04741474
_cell_angle_alpha   89.96041138
_cell_angle_beta   89.96900665
_cell_angle_gamma   90.02022510
_symmetry_Int_Tables_number   1
_chemical_formula_structural   V93Zn93O256
_chemical_formula_sum   'V93 Zn93 O256'
_cell_volume   4954.97196761
_cell_formula_units_Z   1
loop_
 _symmetry_equiv_pos_site_id
 _symmetry_equiv_pos_as_xyz
  1  'x, y, z'
loop_
 _atom_site_type_symbol
 _atom_site_label
 _atom_site_symmetry_multiplicity
 _atom_site_fract_x
 _atom_site_fract_y
 _atom_site_fract_z
 _atom_site_occupancy
  V  V0  1  0.74975497  0.74899318  0.49827093  1
  V  V1  1  0.62530138  0.24998358  0.37435800  1
  V  V2  1  0.12288422  0.62551606  0.00039586  1
  V  V3  1  0.74965970  0.74959335  -0.00148135  1
  V  V4  1  0.74902069  0.62465105  0.87524562  1
  V  V5  1  0.75505736  0.37677642  0.12284509  1
  V  V6  1  -0.00281882  0.62681151  0.12468233  1
  V  V7  1  -0.00693602  0.00001629  -0.00466175  1
  V  V8  1  0.49871573  0.49995000  0.00150044  1
  V  V9  1  0.37611277  0.87571158  0.49980537  1
  V  V10  1  0.37414458  0.49944370  0.87688032  1
  V  V11  1  0.24395691  0.74442217  0.49498609  1
  V  V12  1  0.37654847  0.25206658  0.62381877  1
  V  V13  1  0.25051107  0.00039295  0.74987055  1
  V  V14  1  0.37546901  0.25119748  0.12608449  1
  V  V15  1  0.12478903  0.87685697  0.75008355  1
  V  V16  1  0.49969180  0.00028869  0.00064497  1
  V  V17  1  -0.00037604  0.74952423  0.74931972  1
  V  V18  1  0.75120978  0.87605503  0.62425776  1
  V  V19  1  0.24836594  0.87497616  0.12470077  1
  V  V20  1  0.12498770  0.12583160  0.00066975  1
  V  V21  1  0.75480492  0.11786701  0.87486423  1
  V  V22  1  0.50004321  0.87560649  0.37568057  1
  V  V23  1  0.50271766  0.12448459  0.62435597  1
  V  V24  1  0.12610047  0.25153688  0.87391061  1
  V  V25  1  0.62328833  0.62278492  0.50043003  1
  V  V26  1  0.87519675  0.49179467  0.87832182  1
  V  V27  1  0.62634519  0.12325478  0.50057442  1
  V  V28  1  0.25585337  0.37613711  0.62259122  1
  V  V29  1  -0.00104915  0.12594863  0.12517381  1
  V  V30  1  0.25554340  0.25369909  0.50038011  1
  V  V31  1  0.75039286  0.87521348  0.12311646  1
  V  V32  1  0.24868643  0.49964776  0.74999065  1
  V  V33  1  0.87587107  0.11789238  0.75262415  1
  V  V34  1  0.62498063  0.87432481  0.75031506  1
  V  V35  1  0.37064501  0.62568997  0.25465561  1
  V  V36  1  0.62650057  0.12575213  0.00003208  1
  V  V37  1  0.37353008  0.87521498  0.00121789  1
  V  V38  1  0.25019430  0.87572518  0.62611286  1
  V  V39  1  0.24819321  0.75134503  0.00097564  1
  V  V40  1  0.50041478  0.12680068  0.12572675  1
  V  V41  1  0.62632638  0.24977654  0.87525753  1
  V  V42  1  0.87567006  0.62338570  0.74889881  1
  V  V43  1  0.62572323  0.37502433  0.75029319  1
  V  V44  1  0.24804698  0.62461395  0.87584565  1
  V  V45  1  -0.00393827  0.49384382  -0.00110788  1
  V  V46  1  0.12427264  0.50055802  0.12606256  1
  V  V47  1  0.86706221  0.49999923  0.37210449  1
  V  V48  1  0.12536283  0.37688588  0.24936941  1
  V  V49  1  0.62433017  0.74876363  0.37561849  1
  V  V50  1  0.37509247  0.49738407  0.38124252  1
  V  V51  1  0.00281383  -0.00430325  0.49485153  1
  V  V52  1  0.62837095  0.50082602  0.12869819  1
  V  V53  1  0.12416642  0.00022709  0.12519649  1
  V  V54  1  0.00191147  0.50247378  0.49696119  1
  V  V55  1  0.12547384  0.50198252  0.62064066  1
  V  V56  1  0.49931571  0.74995712  0.24985988  1
  V  V57  1  0.87651257  0.12658225  0.24812126  1
  V  V58  1  0.62559196  0.49950143  0.62507267  1
  V  V59  1  0.50126820  0.24906584  0.75071586  1
  V  V60  1  0.75097487  0.12463802  0.37415380  1
  V  V61  1  0.37673289  0.74896015  0.62640527  1
  V  V62  1  0.49880960  0.62415984  0.12661839  1
  V  V63  1  0.87679473  0.24950821  0.62363280  1
  V  V64  1  0.87754617  -0.00227063  0.37382808  1
  V  V65  1  0.49731295  0.37490517  0.38145912  1
  V  V66  1  0.12302229  0.75029957  0.87515592  1
  V  V67  1  0.75864881  0.25439323  0.00011926  1
  V  V68  1  0.50033539  0.87399240  0.87509731  1
  V  V69  1  0.87964819  0.87270918  0.49393934  1
  V  V70  1  0.75347564  0.24827464  0.49947969  1
  V  V71  1  0.25134529  0.25228010  0.00134686  1
  V  V72  1  0.87591323  0.37404541  0.49890062  1
  V  V73  1  0.37503449  0.12489798  0.25018074  1
  V  V74  1  0.37422505  0.00056581  0.87534867  1
  V  V75  1  0.62526935  0.87511507  0.25054447  1
  V  V76  1  0.24937036  -0.00026470  0.25078722  1
  V  V77  1  0.62960530  0.37815445  0.25098750  1
  V  V78  1  0.62515981  0.00138432  0.12560555  1
  V  V79  1  0.37421908  0.62565127  0.75085816  1
  V  V80  1  0.11914512  0.87380094  0.25814180  1
  V  V81  1  0.00092830  0.25056337  0.74870127  1
  V  V82  1  0.12578535  0.12444056  0.50094636  1
  V  V83  1  0.37630424  0.12431175  0.75038733  1
  V  V84  1  0.86770562  0.62228196  0.24904161  1
  V  V85  1  0.00247326  0.62445108  0.62151918  1
  V  V86  1  0.12396969  0.25163772  0.37476904  1
  V  V87  1  0.75017998  0.49894336  0.75090961  1
  V  V88  1  0.49944052  0.37544393  0.87655285  1
  V  V89  1  0.37560631  0.00019254  0.37509432  1
  V  V90  1  -0.00771618  0.87924062  0.87436337  1
  V  V91  1  -0.00314696  0.75459103  0.25500141  1
  V  V92  1  0.75086494  0.00053092  0.24914014  1
  Zn  Zn93  1  0.25356627  0.37940644  0.12714558  1
  Zn  Zn94  1  0.87196314  0.87783631  -0.00285983  1
  Zn  Zn95  1  0.11378673  0.74514188  0.38170659  1
  Zn  Zn96  1  0.12468163  0.37470890  0.74946922  1
  Zn  Zn97  1  0.25159661  0.12567659  0.87433832  1
  Zn  Zn98  1  0.87619983  0.74826514  0.62261873  1
  Zn  Zn99  1  -0.00300660  0.37234423  0.87775617  1
  Zn  Zn100  1  0.24830483  0.50245713  0.25146222  1
  Zn  Zn101  1  0.37360282  0.74939803  0.12585571  1
  Zn  Zn102  1  0.75117453  0.37317245  0.62513659  1
  Zn  Zn103  1  0.49901508  0.25152799  0.25024362  1
  Zn  Zn104  1  0.62272204  0.62528478  -0.00128643  1
  Zn  Zn105  1  0.49463962  0.49494384  0.50525644  1
  Zn  Zn106  1  0.50170639  0.00012328  0.50098491  1
  Zn  Zn107  1  0.62500573  0.00001398  0.62457507  1
  Zn  Zn108  1  0.12574389  0.00043707  0.62443052  1
  Zn  Zn109  1  0.25279515  0.12534920  0.37571573  1
  Zn  Zn110  1  -0.00146979  0.37590452  0.37278611  1
  Zn  Zn111  1  0.87380164  0.75172509  0.12423588  1
  Zn  Zn112  1  0.75543894  -0.00401845  0.75328410  1
  Zn  Zn113  1  -0.00016677  0.25018107  0.24777791  1
  Zn  Zn114  1  -0.00015278  0.12273618  0.62455636  1
  Zn  Zn115  1  0.50025471  0.74804046  0.75269965  1
  Zn  Zn116  1  0.62227125  0.74698932  0.87458172  1
  Zn  Zn117  1  0.74459116  0.62038113  0.36875156  1
  Zn  Zn118  1  0.87902233  0.25668691  0.12415952  1
  Zn  Zn119  1  0.49961961  0.62302456  0.62808957  1
  Zn  Zn120  1  0.37572816  0.37610828  0.00417066  1
  Zn  Zn121  1  0.23599818  0.61632997  0.38049105  1
  Zn  Zn122  1  0.18883897  0.18760456  0.18782273  1
  Zn  Zn123  1  0.18903931  0.18570483  0.68623518  1
  Zn  Zn124  1  0.18417940  0.68872779  0.18927481  1
  Zn  Zn125  1  0.18700695  0.68825743  0.68641879  1
  Zn  Zn126  1  0.68852209  0.19143386  0.18773782  1
  Zn  Zn127  1  0.69029830  0.18672714  0.68727254  1
  Zn  Zn128  1  0.68604864  0.68876549  0.18499452  1
  Zn  Zn129  1  0.68900529  0.68850679  0.68666341  1
  Zn  Zn130  1  0.31209940  0.31419909  0.31213725  1
  Zn  Zn131  1  0.31334816  0.31403175  0.81129914  1
  Zn  Zn132  1  0.31191073  0.81444272  0.31178660  1
  Zn  Zn133  1  0.31191639  0.81338778  0.81376888  1
  Zn  Zn134  1  0.81325098  0.31294025  0.31051736  1
  Zn  Zn135  1  0.81199451  0.30915773  0.81116631  1
  Zn  Zn136  1  0.81119464  0.80975144  0.31189258  1
  Zn  Zn137  1  0.81254028  0.80850848  0.81063314  1
  Zn  Zn138  1  0.18814763  0.43657165  0.43687189  1
  Zn  Zn139  1  0.18551358  0.43666075  0.93912728  1
  Zn  Zn140  1  0.19072414  0.93449775  0.43702894  1
  Zn  Zn141  1  0.18423021  0.93831840  0.93622290  1
  Zn  Zn142  1  0.68744653  0.43449311  0.43956689  1
  Zn  Zn143  1  0.68611053  0.43823031  0.94064603  1
  Zn  Zn144  1  0.68875206  0.93801216  0.43780558  1
  Zn  Zn145  1  0.68560226  0.93612770  0.93749757  1
  Zn  Zn146  1  0.31171200  0.06414366  0.06352815  1
  Zn  Zn147  1  0.31429738  0.06371732  0.56311143  1
  Zn  Zn148  1  0.31167390  0.56326020  0.06520142  1
  Zn  Zn149  1  0.31196251  0.56456715  0.56252579  1
  Zn  Zn150  1  0.81326678  0.06533995  0.06288951  1
  Zn  Zn151  1  0.81555445  0.06140310  0.56379632  1
  Zn  Zn152  1  0.81158513  0.56306151  0.06133758  1
  Zn  Zn153  1  0.81208846  0.56144233  0.56118553  1
  Zn  Zn154  1  0.43899787  0.43765485  0.19266267  1
  Zn  Zn155  1  0.43788954  0.43756951  0.68998492  1
  Zn  Zn156  1  0.43677000  0.93771548  0.18752334  1
  Zn  Zn157  1  0.43905321  0.93790156  0.68712494  1
  Zn  Zn158  1  0.93988847  0.43978215  0.18962774  1
  Zn  Zn159  1  0.93680478  0.43548891  0.68732255  1
  Zn  Zn160  1  0.93639479  0.93797348  0.18351284  1
  Zn  Zn161  1  0.94027797  0.93686274  0.68116239  1
  Zn  Zn162  1  0.06293762  0.06334298  0.31342862  1
  Zn  Zn163  1  0.06410753  0.06395319  0.81305255  1
  Zn  Zn164  1  0.05852826  0.56732895  0.31186902  1
  Zn  Zn165  1  0.06211895  0.56176936  0.81072904  1
  Zn  Zn166  1  0.56159593  0.06287284  0.31286256  1
  Zn  Zn167  1  0.56527969  0.06005746  0.81216246  1
  Zn  Zn168  1  0.55862204  0.56044096  0.31277318  1
  Zn  Zn169  1  0.56110792  0.56332196  0.81291236  1
  Zn  Zn170  1  0.43972751  0.18706915  0.43705467  1
  Zn  Zn171  1  0.43743999  0.18754357  0.93816243  1
  Zn  Zn172  1  0.43647162  0.68631160  0.43853544  1
  Zn  Zn173  1  0.43644207  0.68790687  0.93904671  1
  Zn  Zn174  1  0.93986332  0.18436472  0.43564716  1
  Zn  Zn175  1  0.93834583  0.18630610  0.93601789  1
  Zn  Zn176  1  0.93485905  0.68442152  0.43493909  1
  Zn  Zn177  1  0.93458250  0.68577691  0.93649644  1
  Zn  Zn178  1  0.06394954  0.31315481  0.06442689  1
  Zn  Zn179  1  0.06405901  0.31569583  0.56298558  1
  Zn  Zn180  1  0.06056744  0.81390604  0.06529883  1
  Zn  Zn181  1  0.06301365  0.81375516  0.56489039  1
  Zn  Zn182  1  0.56475430  0.31276613  0.06212756  1
  Zn  Zn183  1  0.56571096  0.31028447  0.56244902  1
  Zn  Zn184  1  0.56293172  0.81151717  0.06291648  1
  Zn  Zn185  1  0.56246790  0.81178213  0.56306258  1
  O  O186  1  0.11919259  0.11997308  0.12028522  1
  O  O187  1  0.12423241  0.12381747  0.61182839  1
  O  O188  1  0.11717515  0.62016461  0.12031719  1
  O  O189  1  0.11449244  0.61400805  0.63022363  1
  O  O190  1  0.62131435  0.12063795  0.12027512  1
  O  O191  1  0.62097563  0.12449647  0.61943401  1
  O  O192  1  0.61850422  0.61489898  0.12678251  1
  O  O193  1  0.62456198  0.61641439  0.61917101  1
  O  O194  1  0.38604965  0.38473739  0.36645076  1
  O  O195  1  0.38170840  0.38188809  0.87618542  1
  O  O196  1  0.38113749  0.88038188  0.37916101  1
  O  O197  1  0.37966350  0.88124747  0.88129941  1
  O  O198  1  0.87763130  0.38284598  0.37863268  1
  O  O199  1  0.87551721  0.38817768  0.86974106  1
  O  O200  1  0.86635654  0.88109650  0.38723227  1
  O  O201  1  0.88903921  0.87138933  0.87398608  1
  O  O202  1  0.25759474  0.00076987  0.36831093  1
  O  O203  1  0.25594491  0.00190140  0.86918122  1
  O  O204  1  0.25966627  0.49994841  0.37367296  1
  O  O205  1  0.25267052  0.50480627  0.87072292  1
  O  O206  1  0.75630955  0.00542235  0.36827212  1
  O  O207  1  0.74688465  0.01429677  0.87578340  1
  O  O208  1  0.76300825  0.50066060  0.38081694  1
  O  O209  1  0.75677174  0.50380997  0.87185406  1
  O  O210  1  0.23967768  0.49960557  0.12861457  1
  O  O211  1  0.24413449  0.49490278  0.62724709  1
  O  O212  1  0.24352285  0.99544441  0.13040897  1
  O  O213  1  0.25050567  0.99328011  0.63152713  1
  O  O214  1  0.73699045  0.49114394  0.11510691  1
  O  O215  1  0.74104738  0.49810188  0.63127841  1
  O  O216  1  0.74391312  0.99647150  0.12915145  1
  O  O217  1  0.75011622  0.98608073  0.62590683  1
  O  O218  1  0.01237730  0.37157994  0.25145146  1
  O  O219  1  0.00198481  0.36149201  0.75149283  1
  O  O220  1  0.00770040  0.86744253  0.24175962  1
  O  O221  1  0.00411843  0.87086157  0.75497651  1
  O  O222  1  0.51227220  0.37324535  0.26028310  1
  O  O223  1  0.50614696  0.36878904  0.75643604  1
  O  O224  1  0.50590902  0.87040986  0.25501157  1
  O  O225  1  0.50857432  0.87363127  0.75550076  1
  O  O226  1  0.49391654  0.12665359  0.24306386  1
  O  O227  1  0.49699345  0.13032946  0.74558550  1
  O  O228  1  0.49114246  0.63056020  0.24692009  1
  O  O229  1  0.49046108  0.62812704  0.74874241  1
  O  O230  1  0.99502012  0.12487100  0.24303009  1
  O  O231  1  0.99384302  0.13455431  0.75029488  1
  O  O232  1  0.98879353  0.63470718  0.24290100  1
  O  O233  1  0.99563065  0.62884547  0.74131903  1
  O  O234  1  0.36624155  0.25038899  0.00543882  1
  O  O235  1  0.36217865  0.24258769  0.50615854  1
  O  O236  1  0.36603810  0.75743768  0.00184632  1
  O  O237  1  0.36750124  0.75453528  0.50878860  1
  O  O238  1  0.86241086  0.24670605  0.00060706  1
  O  O239  1  0.87352647  0.25327471  0.50286498  1
  O  O240  1  0.86184187  0.75097938  0.00095719  1
  O  O241  1  0.87041771  0.75742304  0.49936584  1
  O  O242  1  0.13242794  0.24407498  0.49450294  1
  O  O243  1  0.13177807  0.24650146  0.99302239  1
  O  O244  1  0.14042809  0.75963755  0.49943307  1
  O  O245  1  0.12801496  0.74515018  0.99502197  1
  O  O246  1  0.63370130  0.24353695  0.49395094  1
  O  O247  1  0.63400876  0.24384630  0.99452892  1
  O  O248  1  0.62896933  0.74178537  0.49576020  1
  O  O249  1  0.63671368  0.74835276  0.99792181  1
  O  O250  1  0.49435110  0.24390489  0.12499907  1
  O  O251  1  0.49617720  0.24603461  0.63114569  1
  O  O252  1  0.49881896  0.74336884  0.13220110  1
  O  O253  1  0.48616670  0.74897103  0.62647314  1
  O  O254  1  0.99772638  0.24218561  0.12442724  1
  O  O255  1  0.99725799  0.24808195  0.63334175  1
  O  O256  1  0.99573883  0.74412666  0.13234729  1
  O  O257  1  1.00083908  0.73949675  0.62933105  1
  O  O258  1  0.01411626  0.25159512  0.37520481  1
  O  O259  1  0.00827387  0.25107537  0.86803432  1
  O  O260  1  -0.00424926  0.74796435  0.35970922  1
  O  O261  1  0.00429484  0.75687220  0.86976439  1
  O  O262  1  0.50641821  0.25817352  0.37388612  1
  O  O263  1  0.50629197  0.25429528  0.87042141  1
  O  O264  1  0.50510696  0.75580708  0.37002833  1
  O  O265  1  0.50096077  0.75827914  0.87398406  1
  O  O266  1  0.24165128  0.13448029  0.50008553  1
  O  O267  1  0.24421609  0.13598615  0.99868317  1
  O  O268  1  0.25137004  0.64132580  0.50107668  1
  O  O269  1  0.24286409  0.63058602  0.99503529  1
  O  O270  1  0.74788319  0.12858513  0.49341888  1
  O  O271  1  0.74618838  0.13252306  0.99344146  1
  O  O272  1  0.73837584  0.63024287  0.50052062  1
  O  O273  1  0.74754731  0.63341143  0.99425333  1
  O  O274  1  0.25082164  0.36308509  0.00250737  1
  O  O275  1  0.24408353  0.36425352  0.51090559  1
  O  O276  1  0.25287833  0.87121662  0.00441229  1
  O  O277  1  0.25771711  0.86691513  0.50651048  1
  O  O278  1  0.74251774  0.36458989  0.00984046  1
  O  O279  1  0.75795182  0.36560234  0.50097206  1
  O  O280  1  0.75050861  0.86770877  0.00302237  1
  O  O281  1  0.75723355  0.86978993  0.50666067  1
  O  O282  1  0.12177723  0.49217772  0.24502237  1
  O  O283  1  0.13003186  0.49775552  0.73959975  1
  O  O284  1  0.12815688  0.99303720  0.24584753  1
  O  O285  1  0.13162782  0.99541647  0.74821519  1
  O  O286  1  0.61962221  0.49121398  0.23959850  1
  O  O287  1  0.62976041  0.49545991  0.74319015  1
  O  O288  1  0.63122341  0.99521594  0.24531132  1
  O  O289  1  0.62984710  0.98651022  0.74768153  1
  O  O290  1  0.36908642  0.00438376  0.25471794  1
  O  O291  1  0.37060685  0.00440612  0.75592960  1
  O  O292  1  0.37484797  0.51025798  0.26030762  1
  O  O293  1  0.36804098  0.50547067  0.75612736  1
  O  O294  1  0.87005344  0.00508209  0.25413194  1
  O  O295  1  0.87727035  0.01419680  0.74283007  1
  O  O296  1  0.88429431  0.51096623  0.26178236  1
  O  O297  1  0.87062670  0.50390569  0.75702075  1
  O  O298  1  0.12317373  0.36777622  0.36823769  1
  O  O299  1  0.12350870  0.36223502  0.87208732  1
  O  O300  1  0.12939867  0.86995988  0.36093877  1
  O  O301  1  0.11537933  0.86894028  0.86929227  1
  O  O302  1  0.62050363  0.37149090  0.36819880  1
  O  O303  1  0.61975594  0.37010202  0.86973266  1
  O  O304  1  0.62054018  0.86959823  0.36996117  1
  O  O305  1  0.61940488  0.87398073  0.86590047  1
  O  O306  1  0.38097556  0.13015505  0.13019742  1
  O  O307  1  0.38205920  0.13203345  0.63111556  1
  O  O308  1  0.38033248  0.62577111  0.13691279  1
  O  O309  1  0.37468014  0.63313904  0.63138845  1
  O  O310  1  0.88143089  0.12662322  0.13175435  1
  O  O311  1  0.87731313  0.13213386  0.63356558  1
  O  O312  1  0.87922361  0.62366554  0.13336766  1
  O  O313  1  0.88554634  0.62294437  0.63028027  1
  O  O314  1  0.25523128  0.25074827  0.11522990  1
  O  O315  1  0.25476585  0.25775108  0.61954655  1
  O  O316  1  0.24908418  0.75681884  0.11805199  1
  O  O317  1  0.25747963  0.75433030  0.61711149  1
  O  O318  1  0.75083642  0.25838616  0.11595388  1
  O  O319  1  0.75841218  0.25040583  0.61762979  1
  O  O320  1  0.74871555  0.75681252  0.11518173  1
  O  O321  1  0.75282124  0.75999631  0.61793904  1
  O  O322  1  0.24162374  0.25172916  0.38478583  1
  O  O323  1  0.24345451  0.24947704  0.88225527  1
  O  O324  1  0.25434945  0.75165085  0.39140635  1
  O  O325  1  0.24276920  0.74498129  0.88062450  1
  O  O326  1  0.74584792  0.24342708  0.37969220  1
  O  O327  1  0.74533399  0.24285508  0.88181575  1
  O  O328  1  0.74108316  0.74738296  0.38124612  1
  O  O329  1  0.74917433  0.74340837  0.88248974  1
  O  O330  1  0.00542594  0.11807539  0.00300583  1
  O  O331  1  0.01035484  0.11647686  0.50025315  1
  O  O332  1  0.00450200  0.61801666  0.00394413  1
  O  O333  1  -0.00723007  0.61427811  0.51035959  1
  O  O334  1  0.50644951  0.11983646  0.00517588  1
  O  O335  1  0.50847595  0.12595172  0.50699461  1
  O  O336  1  0.49988972  0.61878898  0.00813328  1
  O  O337  1  0.51369931  0.62346752  0.50350222  1
  O  O338  1  0.50782043  0.37526898  0.48601455  1
  O  O339  1  0.49948233  0.38087582  0.99338447  1
  O  O340  1  0.49396110  0.87487368  0.49350237  1
  O  O341  1  0.49475793  0.88130047  0.99655729  1
  O  O342  1  0.99465302  0.38613968  0.49928938  1
  O  O343  1  1.00549883  0.39012829  0.99901291  1
  O  O344  1  0.99023538  0.88168374  0.50476538  1
  O  O345  1  0.99979973  0.88284228  0.99159960  1
  O  O346  1  0.49306349  0.49149303  0.37840184  1
  O  O347  1  0.49404343  0.49515183  0.88077741  1
  O  O348  1  0.49376695  0.99280774  0.37591826  1
  O  O349  1  0.49487623  0.99480589  0.88164473  1
  O  O350  1  0.99094288  0.50101593  0.38536390  1
  O  O351  1  0.99285840  0.49943356  0.88117941  1
  O  O352  1  0.99438067  1.00377299  0.38705274  1
  O  O353  1  1.00868386  0.99066101  0.88407217  1
  O  O354  1  0.00585881  0.00546992  0.11506199  1
  O  O355  1  0.00453598  0.00245742  0.60943761  1
  O  O356  1  0.00353291  0.50613251  0.11643685  1
  O  O357  1  0.00643096  0.50487767  0.61881317  1
  O  O358  1  0.50570347  0.00596221  0.12006273  1
  O  O359  1  0.50247348  0.00862552  0.62227909  1
  O  O360  1  0.50766342  0.50388796  0.12153340  1
  O  O361  1  0.51121563  0.49989303  0.62415103  1
  O  O362  1  0.23643850  0.37798193  0.24933431  1
  O  O363  1  0.24811219  0.38077657  0.73969372  1
  O  O364  1  0.24123431  0.87957455  0.24415631  1
  O  O365  1  0.24460662  0.88038897  0.74620158  1
  O  O366  1  0.73649406  0.36937347  0.24107325  1
  O  O367  1  0.74301308  0.38050082  0.74893884  1
  O  O368  1  0.74399846  0.88068552  0.24466468  1
  O  O369  1  0.74539855  0.87454947  0.74226755  1
  O  O370  1  0.25610935  0.11738501  0.25163616  1
  O  O371  1  0.25840228  0.11927802  0.75047148  1
  O  O372  1  0.26133603  0.62719138  0.25276931  1
  O  O373  1  0.25349307  0.61954004  0.75604109  1
  O  O374  1  0.75503711  0.11958662  0.25410513  1
  O  O375  1  0.75854312  0.12420197  0.75824675  1
  O  O376  1  0.76310430  0.63093983  0.24913926  1
  O  O377  1  0.75532878  0.61863522  0.75431946  1
  O  O378  1  0.37463233  0.11900334  0.36853269  1
  O  O379  1  0.37543175  0.11849566  0.86832512  1
  O  O380  1  0.37521752  0.61753703  0.36715465  1
  O  O381  1  0.36689115  0.61937038  0.87123275  1
  O  O382  1  0.87017384  0.11815777  0.36874814  1
  O  O383  1  0.86570179  0.13213037  0.86424250  1
  O  O384  1  0.87040147  0.61687214  0.36723486  1
  O  O385  1  0.86936318  0.61479446  0.86779671  1
  O  O386  1  0.12628955  0.38131231  0.13422650  1
  O  O387  1  0.13530204  0.38446488  0.62741220  1
  O  O388  1  0.12974055  0.88177100  0.13268082  1
  O  O389  1  0.13198698  0.87688552  0.63308891  1
  O  O390  1  0.63056052  0.38133391  0.13258428  1
  O  O391  1  0.62691389  0.38322086  0.63078217  1
  O  O392  1  0.62958285  0.88205609  0.13102312  1
  O  O393  1  0.63410823  0.87422765  0.63149814  1
  O  O394  1  0.12661096  0.25683829  0.25939519  1
  O  O395  1  0.11813163  0.24728117  0.75692782  1
  O  O396  1  0.11367434  0.75977615  0.24739738  1
  O  O397  1  0.11941129  0.75574294  0.75521308  1
  O  O398  1  0.62280826  0.25868216  0.25672575  1
  O  O399  1  0.62089223  0.25467985  0.75532942  1
  O  O400  1  0.61954984  0.75545288  0.25552946  1
  O  O401  1  0.62370182  0.76207792  0.75048397  1
  O  O402  1  0.37496733  0.24317682  0.24415508  1
  O  O403  1  0.38186713  0.24471659  0.74475940  1
  O  O404  1  0.38078297  0.74264662  0.25037555  1
  O  O405  1  0.37119888  0.74500149  0.74072108  1
  O  O406  1  0.87855942  0.24159597  0.24826757  1
  O  O407  1  0.88359141  0.24234859  0.74501405  1
  O  O408  1  0.88044152  0.74315277  0.24727518  1
  O  O409  1  0.88242121  0.74159551  0.74609518  1
  O  O410  1  0.37719637  0.50839331  0.48678295  1
  O  O411  1  0.37965623  0.49901941  0.99469314  1
  O  O412  1  0.37602000  0.99381996  0.49344835  1
  O  O413  1  0.37980910  0.99559262  0.99586307  1
  O  O414  1  0.88212250  0.49487557  0.49325646  1
  O  O415  1  0.88489801  0.50748438  0.98927831  1
  O  O416  1  0.88321856  0.99282529  0.49466657  1
  O  O417  1  0.88962727  1.00095495  1.00216714  1
  O  O418  1  0.11761691  0.00616299  0.00534016  1
  O  O419  1  0.12051044  0.00683342  0.49672377  1
  O  O420  1  0.11664756  0.50685613  0.00391457  1
  O  O421  1  0.11517918  0.49434549  0.51001707  1
  O  O422  1  0.61959597  0.00587848  0.00607299  1
  O  O423  1  0.62382413  0.00794420  0.50170225  1
  O  O424  1  0.61659973  0.50114435  0.01089936  1
  O  O425  1  0.62655234  0.50659057  0.50901325  1
  O  O426  1  0.37364918  0.36820170  0.12579477  1
  O  O427  1  0.36402554  0.37006750  0.62977760  1
  O  O428  1  0.36714647  0.87444713  0.11911411  1
  O  O429  1  0.37016521  0.86664630  0.62173837  1
  O  O430  1  0.85889873  0.37747778  0.13522698  1
  O  O431  1  0.87373946  0.36797187  0.61773222  1
  O  O432  1  0.86469582  0.87393929  0.12022578  1
  O  O433  1  0.86772027  0.87254588  0.61386477  1
  O  O434  1  0.12872293  0.13410165  0.38395135  1
  O  O435  1  0.12717515  0.13721820  0.88086769  1
  O  O436  1  0.12625361  0.63352672  0.36886549  1
  O  O437  1  0.12865406  0.63045817  0.87955580  1
  O  O438  1  0.63140712  0.13007659  0.37905880  1
  O  O439  1  0.63369463  0.13038675  0.87941979  1
  O  O440  1  0.62505739  0.62822322  0.38268755  1
  O  O441  1  0.63346350  0.62578262  0.87674814  1
