# generated using pymatgen
data_V93Zn93O256
_symmetry_space_group_name_H-M   'P 1'
_cell_length_a   17.05997742
_cell_length_b   17.05838408
_cell_length_c   17.06407234
_cell_angle_alpha   90.01339940
_cell_angle_beta   90.05080562
_cell_angle_gamma   89.97862965
_symmetry_Int_Tables_number   1
_chemical_formula_structural   V93Zn93O256
_chemical_formula_sum   'V93 Zn93 O256'
_cell_volume   4965.90962218
_cell_formula_units_Z   1
loop_
 _symmetry_equiv_pos_site_id
 _symmetry_equiv_pos_as_xyz
  1  'x, y, z'
loop_
 _atom_site_type_symbol
 _atom_site_label
 _atom_site_symmetry_multiplicity
 _atom_site_fract_x
 _atom_site_fract_y
 _atom_site_fract_z
 _atom_site_occupancy
  V  V0  1  0.50016209  0.24798607  0.24901666  1
  V  V1  1  0.62381307  0.25006153  0.87361377  1
  V  V2  1  0.50174223  -0.00073111  0.49805129  1
  V  V3  1  0.24808577  0.88268190  0.63255928  1
  V  V4  1  0.62764281  -0.00399796  0.12402305  1
  V  V5  1  0.86993036  0.87601717  0.00331451  1
  V  V6  1  0.75070793  -0.00460048  0.24636716  1
  V  V7  1  0.62603613  0.25015760  0.37633811  1
  V  V8  1  0.12438824  -0.00004260  0.12576961  1
  V  V9  1  0.62424989  0.62567408  -0.00019951  1
  V  V10  1  0.50110242  0.62338463  0.62479986  1
  V  V11  1  0.12333687  0.62668916  0.50239185  1
  V  V12  1  0.62506848  -0.00048089  0.62445078  1
  V  V13  1  0.88729505  0.13038574  0.74302903  1
  V  V14  1  -0.00745020  0.37737751  0.37558158  1
  V  V15  1  0.37483447  0.75012661  0.12500261  1
  V  V16  1  0.62496279  0.12416721  -0.00121115  1
  V  V17  1  -0.00023620  0.75429726  0.75078664  1
  V  V18  1  0.37526894  0.25157977  0.62426298  1
  V  V19  1  0.24206237  0.49778806  0.74981425  1
  V  V20  1  -0.00022185  0.75043235  0.25054414  1
  V  V21  1  0.50015606  0.62457310  0.12504521  1
  V  V22  1  0.75015209  0.37506486  0.12450514  1
  V  V23  1  0.12161435  0.11864942  0.50185285  1
  V  V24  1  0.62382525  0.75059739  0.87533332  1
  V  V25  1  0.75024350  0.49942077  0.25056899  1
  V  V26  1  0.50042555  0.12524169  0.12437337  1
  V  V27  1  0.62519972  0.49888441  0.62548373  1
  V  V28  1  -0.00105005  0.12666015  0.12539508  1
  V  V29  1  0.37347724  0.62374988  0.74972285  1
  V  V30  1  0.50130444  0.74911635  0.74966054  1
  V  V31  1  0.87547507  0.86959166  0.50356758  1
  V  V32  1  0.62533712  0.87437810  0.74944113  1
  V  V33  1  0.37553163  0.62524023  0.25046969  1
  V  V34  1  0.49898179  0.00009107  -0.00179385  1
  V  V35  1  0.24827345  0.49931030  0.24871022  1
  V  V36  1  0.25005920  0.25192489  0.00080931  1
  V  V37  1  0.50059771  0.37489576  0.37667641  1
  V  V38  1  0.37543723  0.50023991  0.37606391  1
  V  V39  1  0.74972549  0.25050145  -0.00003886  1
  V  V40  1  -0.00051084  0.88013558  0.37862038  1
  V  V41  1  0.12375298  0.12608154  0.00039118  1
  V  V42  1  0.12455709  0.62555102  0.00100145  1
  V  V43  1  0.75491532  0.86871891  0.62451757  1
  V  V44  1  -0.00534074  0.49944181  0.49906712  1
  V  V45  1  0.74972230  0.12547249  0.87315269  1
  V  V46  1  0.24953931  0.74914234  0.00059454  1
  V  V47  1  0.74840216  0.75391389  0.00343616  1
  V  V48  1  0.87375101  0.63076253  0.74903054  1
  V  V49  1  0.62546308  0.49963521  0.12511786  1
  V  V50  1  0.37526888  0.74866409  0.62436865  1
  V  V51  1  0.50123009  0.87531729  0.37508409  1
  V  V52  1  -0.00367071  0.63270526  0.62503502  1
  V  V53  1  0.62649777  0.74928618  0.37571184  1
  V  V54  1  0.62492630  0.37433329  0.74928713  1
  V  V55  1  -0.00046850  0.25046611  0.24919979  1
  V  V56  1  0.75108935  0.12500307  0.37492659  1
  V  V57  1  0.74968855  0.62504004  0.87583682  1
  V  V58  1  0.24931210  0.62478597  0.87501243  1
  V  V59  1  0.24378059  0.37439311  0.62893309  1
  V  V60  1  0.75821799  0.37309534  0.62267782  1
  V  V61  1  0.12768115  0.25263037  0.37102638  1
  V  V62  1  0.25083723  -0.00067625  0.24876027  1
  V  V63  1  0.50019701  0.12492666  0.62414116  1
  V  V64  1  0.12517183  0.87542569  0.24995798  1
  V  V65  1  0.50085716  0.75023896  0.25037408  1
  V  V66  1  0.87506963  0.12446330  0.25019430  1
  V  V67  1  0.86885856  0.75566337  0.12660179  1
  V  V68  1  0.00004966  0.50152644  0.00126013  1
  V  V69  1  0.62570736  0.62442399  0.50068570  1
  V  V70  1  0.12238941  0.25401801  0.87024884  1
  V  V71  1  -0.00022883  0.62514167  0.12514280  1
  V  V72  1  0.87434424  0.37520370  -0.00072803  1
  V  V73  1  -0.00228994  0.00046190  0.00134799  1
  V  V74  1  0.62811270  0.87462980  0.24645091  1
  V  V75  1  0.87454643  0.62465572  0.25184439  1
  V  V76  1  0.37517390  0.87659688  -0.00083292  1
  V  V77  1  0.25031387  0.75025031  0.50153492  1
  V  V78  1  0.75978261  0.25267678  0.50220171  1
  V  V79  1  0.12549983  0.75085175  0.37593266  1
  V  V80  1  0.75001195  0.00083852  0.74936203  1
  V  V81  1  -0.00103377  0.87453452  0.87670250  1
  V  V82  1  0.25275205  0.11824492  0.87021551  1
  V  V83  1  0.50036483  0.24896485  0.74895806  1
  V  V84  1  0.00299931  0.37388619  0.86946987  1
  V  V85  1  0.49874687  0.49936923  -0.00072736  1
  V  V86  1  0.25305454  0.12580385  0.37348916  1
  V  V87  1  0.87456845  0.50125702  0.87610160  1
  V  V88  1  0.75009108  0.62449436  0.37593095  1
  V  V89  1  0.37492812  0.37574115  -0.00045069  1
  V  V90  1  0.62724871  0.12471822  0.50036943  1
  V  V91  1  0.87416772  0.00115677  0.87561959  1
  V  V92  1  0.37774687  -0.00020918  0.37304006  1
  Zn  Zn93  1  0.37564396  0.12391810  0.24592140  1
  Zn  Zn94  1  0.12455791  0.37780757  0.24705183  1
  Zn  Zn95  1  0.05604786  0.30862267  0.70647428  1
  Zn  Zn96  1  0.75380005  0.74665524  0.50388457  1
  Zn  Zn97  1  0.25158191  0.25259614  0.49942646  1
  Zn  Zn98  1  0.87375745  0.00021153  0.37712488  1
  Zn  Zn99  1  0.89145277  0.24986333  0.62402312  1
  Zn  Zn100  1  0.12026709  0.01227218  0.64301562  1
  Zn  Zn101  1  0.12054736  0.49443912  0.62712804  1
  Zn  Zn102  1  0.62657059  0.37477944  0.24968052  1
  Zn  Zn103  1  -0.00765853  0.00749622  0.51170146  1
  Zn  Zn104  1  0.24946098  0.62492542  0.37618936  1
  Zn  Zn105  1  0.24881036  0.87504530  0.12480363  1
  Zn  Zn106  1  0.12428255  0.49853269  0.12573231  1
  Zn  Zn107  1  0.87147971  0.49725952  0.37860477  1
  Zn  Zn108  1  0.37235785  -0.00524103  0.86604613  1
  Zn  Zn109  1  0.24723985  0.37516018  0.12527866  1
  Zn  Zn110  1  0.87501662  0.25066759  0.12409984  1
  Zn  Zn111  1  0.49958161  0.49942111  0.50127317  1
  Zn  Zn112  1  0.12458884  0.75150906  0.87664953  1
  Zn  Zn113  1  0.37629053  0.87491109  0.50040474  1
  Zn  Zn114  1  0.13230713  0.88327038  0.75827103  1
  Zn  Zn115  1  0.37509287  0.49879291  0.87305304  1
  Zn  Zn116  1  0.37114380  0.11571958  0.74330984  1
  Zn  Zn117  1  0.49940547  0.87760346  0.87189676  1
  Zn  Zn118  1  0.49945106  0.37539087  0.87363142  1
  Zn  Zn119  1  0.74970258  0.49896772  0.75021509  1
  Zn  Zn120  1  0.37420717  0.24905059  0.12491314  1
  Zn  Zn121  1  0.37162845  0.37706030  0.50084760  1
  Zn  Zn122  1  0.18690549  0.18637105  0.18662267  1
  Zn  Zn123  1  0.19068763  0.18582793  0.68700751  1
  Zn  Zn124  1  0.18816850  0.68611744  0.18736952  1
  Zn  Zn125  1  0.18387841  0.68994929  0.68881299  1
  Zn  Zn126  1  0.68705041  0.18596952  0.18674246  1
  Zn  Zn127  1  0.69059242  0.18815893  0.68683786  1
  Zn  Zn128  1  0.68762602  0.68596057  0.18896728  1
  Zn  Zn129  1  0.68703101  0.68700459  0.68827886  1
  Zn  Zn130  1  0.31501485  0.31440652  0.30990385  1
  Zn  Zn131  1  0.31207033  0.31106767  0.81161473  1
  Zn  Zn132  1  0.31302046  0.81381230  0.31322514  1
  Zn  Zn133  1  0.31448328  0.80860631  0.81393118  1
  Zn  Zn134  1  0.81274448  0.31105830  0.31104964  1
  Zn  Zn135  1  0.81284683  0.31221219  0.81074145  1
  Zn  Zn136  1  0.81309175  0.81253265  0.31575976  1
  Zn  Zn137  1  0.81180249  0.81305425  0.81530974  1
  Zn  Zn138  1  0.18571165  0.43852035  0.43995864  1
  Zn  Zn139  1  0.18613477  0.43935997  0.93618447  1
  Zn  Zn140  1  0.19137204  0.93627143  0.43730770  1
  Zn  Zn141  1  0.18494247  0.93619998  0.93965684  1
  Zn  Zn142  1  0.68770841  0.43694707  0.43989572  1
  Zn  Zn143  1  0.68668461  0.43757351  0.93645085  1
  Zn  Zn144  1  0.68963736  0.93645623  0.43605819  1
  Zn  Zn145  1  0.68769096  0.93700093  0.93644314  1
  Zn  Zn146  1  0.31266192  0.06351755  0.06115259  1
  Zn  Zn147  1  0.31354854  0.06235190  0.55846619  1
  Zn  Zn148  1  0.31236112  0.56231846  0.06300548  1
  Zn  Zn149  1  0.31131514  0.56130921  0.56416946  1
  Zn  Zn150  1  0.81180552  0.06438356  0.06403076  1
  Zn  Zn151  1  0.81368091  0.05923990  0.56327098  1
  Zn  Zn152  1  0.81269695  0.56454822  0.06366843  1
  Zn  Zn153  1  0.81185845  0.56162218  0.56445355  1
  Zn  Zn154  1  0.43596740  0.43507823  0.18646290  1
  Zn  Zn155  1  0.43532609  0.43725936  0.68852009  1
  Zn  Zn156  1  0.43942788  0.93772513  0.18603214  1
  Zn  Zn157  1  0.43522627  0.93655189  0.68697611  1
  Zn  Zn158  1  0.93656904  0.43723736  0.18856441  1
  Zn  Zn159  1  0.93384427  0.44693261  0.68570776  1
  Zn  Zn160  1  0.93755210  0.93808700  0.18906722  1
  Zn  Zn161  1  0.93948799  0.94230411  0.68704868  1
  Zn  Zn162  1  0.06383451  0.06300401  0.31307890  1
  Zn  Zn163  1  0.06532475  0.06074053  0.81514036  1
  Zn  Zn164  1  0.06284099  0.56426119  0.31474527  1
  Zn  Zn165  1  0.06184387  0.56422418  0.81487376  1
  Zn  Zn166  1  0.56574057  0.06287415  0.31174824  1
  Zn  Zn167  1  0.55915788  0.06166674  0.81107422  1
  Zn  Zn168  1  0.56395179  0.56216424  0.31207406  1
  Zn  Zn169  1  0.56145336  0.56046008  0.81262457  1
  Zn  Zn170  1  0.43753288  0.18756732  0.43906238  1
  Zn  Zn171  1  0.43699697  0.18832840  0.93708734  1
  Zn  Zn172  1  0.43907698  0.68656098  0.43819803  1
  Zn  Zn173  1  0.43642995  0.68761849  0.93551382  1
  Zn  Zn174  1  0.93922810  0.18787284  0.43451763  1
  Zn  Zn175  1  0.93656289  0.18923638  0.93416795  1
  Zn  Zn176  1  0.93677873  0.68952448  0.43680910  1
  Zn  Zn177  1  0.93622612  0.68923457  0.93852818  1
  Zn  Zn178  1  0.06297438  0.31583523  0.06203885  1
  Zn  Zn179  1  0.06405070  0.31017171  0.54570674  1
  Zn  Zn180  1  0.06018291  0.81219555  0.06295758  1
  Zn  Zn181  1  0.06220725  0.81815460  0.56622043  1
  Zn  Zn182  1  0.56301195  0.31310202  0.06210566  1
  Zn  Zn183  1  0.56612751  0.31263003  0.56197106  1
  Zn  Zn184  1  0.56092351  0.81395110  0.06293683  1
  Zn  Zn185  1  0.56499232  0.81178425  0.56210887  1
  O  O186  1  0.11821749  0.11975750  0.11986623  1
  O  O187  1  0.13848239  0.12535302  0.60485222  1
  O  O188  1  0.11683789  0.62367901  0.11949661  1
  O  O189  1  0.11255179  0.62560262  0.61899846  1
  O  O190  1  0.62003825  0.11772877  0.11777302  1
  O  O191  1  0.62078496  0.11923876  0.61933999  1
  O  O192  1  0.61938869  0.62006634  0.11922234  1
  O  O193  1  0.62100022  0.61902445  0.62115078  1
  O  O194  1  0.38351582  0.38315517  0.37614102  1
  O  O195  1  0.37621215  0.37509778  0.88720837  1
  O  O196  1  0.38351653  0.88128762  0.37637158  1
  O  O197  1  0.37620520  0.87389537  0.88768379  1
  O  O198  1  0.88880076  0.37501114  0.37224828  1
  O  O199  1  0.88167659  0.38027787  0.87952584  1
  O  O200  1  0.88404609  0.87689032  0.38262026  1
  O  O201  1  0.87879602  0.88210807  0.88253432  1
  O  O202  1  0.25670323  0.00719823  0.36872461  1
  O  O203  1  0.24881356  0.01674024  0.88535257  1
  O  O204  1  0.25983345  0.50060077  0.36848054  1
  O  O205  1  0.25138717  0.50560085  0.86609927  1
  O  O206  1  0.74879709  0.00750843  0.36387692  1
  O  O207  1  0.75474576  0.00561386  0.86925790  1
  O  O208  1  0.75135735  0.50506126  0.37014396  1
  O  O209  1  0.75598775  0.50756209  0.87422429  1
  O  O210  1  0.24999922  0.50086355  0.13807731  1
  O  O211  1  0.24665280  0.49190483  0.63163645  1
  O  O212  1  0.24210555  1.00060103  0.13059837  1
  O  O213  1  0.25028714  0.98421356  0.61696461  1
  O  O214  1  0.74478321  0.49567902  0.12954249  1
  O  O215  1  0.74419433  0.49036935  0.62611657  1
  O  O216  1  0.74342728  1.00730074  0.13814025  1
  O  O217  1  0.74301599  0.99127752  0.63029532  1
  O  O218  1  0.00309245  0.37034408  0.25880741  1
  O  O219  1  -0.00406534  0.38586956  0.76491298  1
  O  O220  1  0.00483099  0.87047789  0.25906049  1
  O  O221  1  -0.00738624  0.86434516  0.75846544  1
  O  O222  1  0.50098235  0.36599820  0.25926996  1
  O  O223  1  0.50616752  0.36707280  0.75014199  1
  O  O224  1  0.50664922  0.86927114  0.25565488  1
  O  O225  1  0.50784187  0.86643962  0.74863744  1
  O  O226  1  0.50129327  0.13356708  0.24503173  1
  O  O227  1  0.50048457  0.13282286  0.74031990  1
  O  O228  1  0.49561834  0.63058915  0.24455531  1
  O  O229  1  0.49494296  0.62954146  0.74392331  1
  O  O230  1  0.99553845  0.12978500  0.24594322  1
  O  O231  1  0.98516010  0.12152330  0.75732792  1
  O  O232  1  0.99476232  0.63174279  0.24638079  1
  O  O233  1  0.99371982  0.63263708  0.74486821  1
  O  O234  1  0.36629343  0.25795167  0.00006340  1
  O  O235  1  0.37364731  0.25264558  0.51137667  1
  O  O236  1  0.37092532  0.75691745  0.00545411  1
  O  O237  1  0.36604309  0.74866382  0.50463449  1
  O  O238  1  0.86719876  0.25666780  -0.00029569  1
  O  O239  1  0.86306461  0.24084396  0.50361182  1
  O  O240  1  0.86916686  0.75495152  0.00896771  1
  O  O241  1  0.87238739  0.76441470  0.49682362  1
  O  O242  1  0.13088482  0.23821310  0.48443898  1
  O  O243  1  0.13233295  0.24639456  0.99220087  1
  O  O244  1  0.13210692  0.74602168  0.49669613  1
  O  O245  1  0.13131307  0.74352090  1.00178924  1
  O  O246  1  0.63397861  0.24313789  0.49493887  1
  O  O247  1  0.62970127  0.24371346  0.99399923  1
  O  O248  1  0.62758132  0.74251421  0.49297013  1
  O  O249  1  0.62809534  0.74495903  0.99632293  1
  O  O250  1  0.50274875  0.24459694  0.13456776  1
  O  O251  1  0.49386390  0.24563939  0.62761016  1
  O  O252  1  0.49491299  0.74375190  0.13104903  1
  O  O253  1  0.49604952  0.74371960  0.62983146  1
  O  O254  1  1.00009505  0.24395067  0.13092505  1
  O  O255  1  1.00250475  0.26035188  0.62285530  1
  O  O256  1  0.99026136  0.74477997  0.13119419  1
  O  O257  1  1.00246703  0.74158426  0.63487457  1
  O  O258  1  0.00835852  0.25801105  0.37043975  1
  O  O259  1  0.00980713  0.26132292  0.88053871  1
  O  O260  1  0.00566770  0.75936217  0.36952664  1
  O  O261  1  -0.00035656  0.75578708  0.86854797  1
  O  O262  1  0.50440446  0.25568244  0.36867069  1
  O  O263  1  0.50673948  0.24968437  0.86756012  1
  O  O264  1  0.50589560  0.75451147  0.36899940  1
  O  O265  1  0.50675919  0.75084428  0.86766460  1
  O  O266  1  0.24408963  0.12702980  0.48533883  1
  O  O267  1  0.24426444  0.13490952  0.99307701  1
  O  O268  1  0.24273880  0.63461729  0.50102918  1
  O  O269  1  0.24559083  0.62948002  0.99553993  1
  O  O270  1  0.74554239  0.13118063  0.49568730  1
  O  O271  1  0.74449922  0.12985486  0.99358556  1
  O  O272  1  0.74459194  0.62620895  0.49531208  1
  O  O273  1  0.74350327  0.63211916  0.99547011  1
  O  O274  1  0.25663920  0.36761273  -0.00136940  1
  O  O275  1  0.25069218  0.37398040  0.51241016  1
  O  O276  1  0.25878668  0.86935174  0.00244888  1
  O  O277  1  0.25178328  0.86360668  0.50765130  1
  O  O278  1  0.75478825  0.37049907  0.00445209  1
  O  O279  1  0.74486373  0.36351235  0.50927082  1
  O  O280  1  0.75724290  0.86693971  -0.00464770  1
  O  O281  1  0.75730554  0.87418745  0.50724154  1
  O  O282  1  0.13752738  0.50206305  0.25247186  1
  O  O283  1  0.13783577  0.50691248  0.74767066  1
  O  O284  1  0.13044977  0.99520366  0.24518440  1
  O  O285  1  0.12923787  0.99614874  0.75326867  1
  O  O286  1  0.63192293  0.49898363  0.24264213  1
  O  O287  1  0.62707957  0.49359303  0.74354827  1
  O  O288  1  0.63247465  0.99536001  0.24445686  1
  O  O289  1  0.62974824  0.99425440  0.74423887  1
  O  O290  1  0.36982534  0.00127185  0.25518622  1
  O  O291  1  0.37960115  0.00416163  0.75416270  1
  O  O292  1  0.36934745  0.50431729  0.25764787  1
  O  O293  1  0.36392070  0.50702279  0.75008600  1
  O  O294  1  0.86623683  0.00495883  0.25124699  1
  O  O295  1  0.86940681  0.00913591  0.75631055  1
  O  O296  1  0.86786975  0.50760939  0.25198514  1
  O  O297  1  0.87280783  0.51469528  0.75819809  1
  O  O298  1  0.12020037  0.36459183  0.37301016  1
  O  O299  1  0.11489248  0.36662875  0.88066848  1
  O  O300  1  0.11838397  0.87048224  0.37091403  1
  O  O301  1  0.11469495  0.87163093  0.87712647  1
  O  O302  1  0.61603707  0.36947355  0.37323780  1
  O  O303  1  0.62407602  0.36759939  0.86811802  1
  O  O304  1  0.62013663  0.86917284  0.36812704  1
  O  O305  1  0.62409004  0.86811767  0.86719839  1
  O  O306  1  0.38430269  0.12827923  0.12550273  1
  O  O307  1  0.37979184  0.13482967  0.62221258  1
  O  O308  1  0.38163919  0.63039344  0.13049299  1
  O  O309  1  0.38079896  0.62924507  0.62980785  1
  O  O310  1  0.88211580  0.12734045  0.13156959  1
  O  O311  1  0.87300930  0.12307520  0.63986110  1
  O  O312  1  0.88020372  0.63489213  0.13125599  1
  O  O313  1  0.88527842  0.61988472  0.63654705  1
  O  O314  1  0.24975025  0.24933985  0.11177891  1
  O  O315  1  0.25898454  0.25780439  0.62586829  1
  O  O316  1  0.25778488  0.75098430  0.11943900  1
  O  O317  1  0.25528963  0.75367649  0.61675868  1
  O  O318  1  0.74980053  0.25597176  0.11782673  1
  O  O319  1  0.75086924  0.25726956  0.61635799  1
  O  O320  1  0.76157464  0.74343471  0.12069267  1
  O  O321  1  0.74461515  0.76473051  0.62491399  1
  O  O322  1  0.24486221  0.24316432  0.37165281  1
  O  O323  1  0.24253049  0.24480375  0.88426164  1
  O  O324  1  0.24529400  0.74993907  0.38528749  1
  O  O325  1  0.24805052  0.74265284  0.88274136  1
  O  O326  1  0.74620485  0.24612259  0.38265959  1
  O  O327  1  0.74332978  0.24517649  0.88058798  1
  O  O328  1  0.74272871  0.74232498  0.37565614  1
  O  O329  1  0.74333752  0.74414599  0.88206062  1
  O  O330  1  0.00366833  0.12046250  0.00438097  1
  O  O331  1  0.01757656  0.12387473  0.49027304  1
  O  O332  1  0.00353062  0.62109126  0.00525351  1
  O  O333  1  0.00357042  0.62315753  0.50742883  1
  O  O334  1  0.50617127  0.12082062  0.00430468  1
  O  O335  1  0.50753239  0.11968390  0.50425091  1
  O  O336  1  0.50448437  0.62051507  0.00580477  1
  O  O337  1  0.50763901  0.62349660  0.50730329  1
  O  O338  1  0.49916141  0.37549609  0.48670934  1
  O  O339  1  0.49122767  0.37976502  0.99944243  1
  O  O340  1  0.50085007  0.88096924  0.49302678  1
  O  O341  1  0.49017207  0.88021466  0.99858230  1
  O  O342  1  1.00864654  0.38913270  0.48629747  1
  O  O343  1  0.99350557  0.38171495  0.99133037  1
  O  O344  1  0.99356312  0.87106012  0.48985278  1
  O  O345  1  0.99094090  0.88088103  0.99662330  1
  O  O346  1  0.49219123  0.49130927  0.37244574  1
  O  O347  1  0.49654746  0.49713170  0.88338998  1
  O  O348  1  0.49797037  0.99544664  0.37845001  1
  O  O349  1  0.49757263  0.99817749  0.88456877  1
  O  O350  1  0.99851128  0.49398440  0.38077596  1
  O  O351  1  0.99494047  0.49436113  0.88178794  1
  O  O352  1  1.00094784  0.98739133  0.37662761  1
  O  O353  1  0.99275793  0.99499266  0.88397982  1
  O  O354  1  0.00440028  0.00650124  0.12083537  1
  O  O355  1  0.01616486  -0.02200768  0.61618933  1
  O  O356  1  -0.00142618  0.50796087  0.11901734  1
  O  O357  1  0.00250981  0.50973273  0.61719120  1
  O  O358  1  0.50687008  0.00611842  0.11839522  1
  O  O359  1  0.50619336  0.00476717  0.61736134  1
  O  O360  1  0.50482984  0.50536236  0.12049643  1
  O  O361  1  0.50576134  0.50546449  0.62387551  1
  O  O362  1  0.25000777  0.38623140  0.24821408  1
  O  O363  1  0.25612381  0.38527751  0.74083429  1
  O  O364  1  0.24293707  0.88115534  0.24879400  1
  O  O365  1  0.25307125  0.86632012  0.73538433  1
  O  O366  1  0.74913350  0.38069855  0.24351151  1
  O  O367  1  0.74261675  0.37495112  0.74129385  1
  O  O368  1  0.74464693  0.88730025  0.25743563  1
  O  O369  1  0.74680179  0.88028261  0.74374535  1
  O  O370  1  0.25100404  0.11964485  0.25924215  1
  O  O371  1  0.25079310  0.13016427  0.76783633  1
  O  O372  1  0.25749117  0.61761410  0.25399355  1
  O  O373  1  0.25391281  0.61945771  0.75345259  1
  O  O374  1  0.75455513  0.11834435  0.25564123  1
  O  O375  1  0.75472708  0.11838913  0.75551348  1
  O  O376  1  0.75458012  0.61876244  0.25612880  1
  O  O377  1  0.75870104  0.62628272  0.75609640  1
  O  O378  1  0.36720764  0.12027775  0.37318770  1
  O  O379  1  0.35886980  0.12661995  0.87799336  1
  O  O380  1  0.37632081  0.61535210  0.36888818  1
  O  O381  1  0.36715117  0.62381120  0.86772757  1
  O  O382  1  0.86946007  0.12255934  0.36804213  1
  O  O383  1  0.86856054  0.12003575  0.86756637  1
  O  O384  1  0.86845879  0.62544025  0.36832765  1
  O  O385  1  0.86962058  0.62092554  0.86976917  1
  O  O386  1  0.12868354  0.38055646  0.12901241  1
  O  O387  1  0.13521191  0.37097675  0.62687391  1
  O  O388  1  0.12384479  0.88196131  0.13192078  1
  O  O389  1  0.14421033  0.86969374  0.62727651  1
  O  O390  1  0.63172167  0.38231053  0.12579764  1
  O  O391  1  0.63276758  0.37942580  0.63020736  1
  O  O392  1  0.61873248  0.88309726  0.13369525  1
  O  O393  1  0.63302311  0.88071540  0.62989686  1
  O  O394  1  0.11948190  0.24838021  0.25940050  1
  O  O395  1  0.12986778  0.24590700  0.76526626  1
  O  O396  1  0.11986490  0.75501347  0.25523550  1
  O  O397  1  0.11119068  0.75479228  0.75409085  1
  O  O398  1  0.61579174  0.25027428  0.25706422  1
  O  O399  1  0.62016099  0.25435813  0.75393095  1
  O  O400  1  0.61977984  0.75397881  0.25473509  1
  O  O401  1  0.62052178  0.75422617  0.75582265  1
  O  O402  1  0.38824258  0.24779059  0.24793833  1
  O  O403  1  0.38048674  0.24686338  0.73826747  1
  O  O404  1  0.38092697  0.74556877  0.24574287  1
  O  O405  1  0.38173806  0.74283105  0.74387315  1
  O  O406  1  0.88205477  0.24233037  0.24795292  1
  O  O407  1  0.87119255  0.23378840  0.74946387  1
  O  O408  1  0.87898577  0.74629798  0.24375907  1
  O  O409  1  0.88378028  0.73833527  0.75831391  1
  O  O410  1  0.37696733  0.50044307  0.48773376  1
  O  O411  1  0.37952355  0.49155325  0.99944632  1
  O  O412  1  0.38405636  0.99856992  0.49094159  1
  O  O413  1  0.37955210  0.99007771  0.99920436  1
  O  O414  1  0.89048830  0.50777460  0.49775524  1
  O  O415  1  0.87967716  0.49605979  0.99481480  1
  O  O416  1  0.87639325  0.98864181  0.49583786  1
  O  O417  1  0.87805610  0.99633037  0.99650342  1
  O  O418  1  0.11703182  0.00594651  0.00630499  1
  O  O419  1  0.12866731  0.01569491  0.49237415  1
  O  O420  1  0.11801720  0.50811796  0.00149103  1
  O  O421  1  0.11492830  0.51056136  0.50102552  1
  O  O422  1  0.62073681  0.00474852  0.00420264  1
  O  O423  1  0.62151993  0.00519889  0.50418599  1
  O  O424  1  0.61957753  0.50635440  0.00534157  1
  O  O425  1  0.62249646  0.50656712  0.50692976  1
  O  O426  1  0.37139666  0.37129775  0.11245153  1
  O  O427  1  0.36753052  0.36664496  0.62309224  1
  O  O428  1  0.37471004  0.86909068  0.11512920  1
  O  O429  1  0.36519797  0.86677369  0.62116057  1
  O  O430  1  0.86846535  0.37353039  0.11721823  1
  O  O431  1  0.86098164  0.37388181  0.63367512  1
  O  O432  1  0.88120950  0.86263354  0.12088639  1
  O  O433  1  0.86379486  0.88235861  0.61671564  1
  O  O434  1  0.13453078  0.13253455  0.37858315  1
  O  O435  1  0.13344874  0.13405219  0.88230556  1
  O  O436  1  0.12535362  0.63385401  0.38485036  1
  O  O437  1  0.13121618  0.62776646  0.88347971  1
  O  O438  1  0.63135494  0.13089268  0.38089711  1
  O  O439  1  0.63032130  0.12975259  0.87944924  1
  O  O440  1  0.62992739  0.62935951  0.38023556  1
  O  O441  1  0.62961951  0.63044886  0.88060579  1
