# generated using pymatgen
data_V93Zn93O256
_symmetry_space_group_name_H-M   'P 1'
_cell_length_a   17.05609400
_cell_length_b   17.06026630
_cell_length_c   17.06395352
_cell_angle_alpha   89.98069171
_cell_angle_beta   90.04875050
_cell_angle_gamma   89.95380185
_symmetry_Int_Tables_number   1
_chemical_formula_structural   V93Zn93O256
_chemical_formula_sum   'V93 Zn93 O256'
_cell_volume   4965.29119380
_cell_formula_units_Z   1
loop_
 _symmetry_equiv_pos_site_id
 _symmetry_equiv_pos_as_xyz
  1  'x, y, z'
loop_
 _atom_site_type_symbol
 _atom_site_label
 _atom_site_symmetry_multiplicity
 _atom_site_fract_x
 _atom_site_fract_y
 _atom_site_fract_z
 _atom_site_occupancy
  V  V0  1  0.00074452  0.12584430  0.12554769  1
  V  V1  1  0.62530757  0.50039495  0.12626532  1
  V  V2  1  0.25159988  0.49227572  0.74423473  1
  V  V3  1  -0.00063981  0.75089314  0.24926372  1
  V  V4  1  0.12507266  0.87709056  0.24870293  1
  V  V5  1  0.24959530  0.25557733  0.50657760  1
  V  V6  1  0.12570919  0.25016873  0.87600434  1
  V  V7  1  0.87631581  0.37503812  0.00056186  1
  V  V8  1  0.12652124  0.24712350  0.37877913  1
  V  V9  1  0.50002815  0.37490924  0.37560446  1
  V  V10  1  0.50023998  0.11958893  0.62692408  1
  V  V11  1  0.37455598  0.75037010  0.62260721  1
  V  V12  1  0.62555125  0.62605219  0.49815059  1
  V  V13  1  0.62128872  0.11968102  0.50219355  1
  V  V14  1  0.37577580  0.12418921  0.75161107  1
  V  V15  1  0.87519770  0.50004176  0.87490987  1
  V  V16  1  0.62380361  0.87383556  0.75019108  1
  V  V17  1  0.36695863  0.75416528  0.11546419  1
  V  V18  1  0.62781125  0.49726919  0.62542863  1
  V  V19  1  0.37472746  0.12685580  0.25154619  1
  V  V20  1  0.00143609  0.49977267  -0.00007978  1
  V  V21  1  0.49963590  0.25069636  0.25116900  1
  V  V22  1  0.00808056  0.11984983  0.62655903  1
  V  V23  1  0.49877413  0.49956408  -0.00020768  1
  V  V24  1  0.37436954  0.50133589  0.37636830  1
  V  V25  1  0.87582544  0.87441878  -0.00023109  1
  V  V26  1  0.62464320  0.75082068  0.37405302  1
  V  V27  1  0.87536886  0.12415624  0.74971280  1
  V  V28  1  0.74984886  0.87379040  0.62485414  1
  V  V29  1  0.12521625  0.49937132  0.12536750  1
  V  V30  1  0.37158996  -0.00489780  0.87892605  1
  V  V31  1  0.12639199  0.12584445  0.00092856  1
  V  V32  1  0.87374792  0.12227639  0.25388916  1
  V  V33  1  0.74968391  0.62449495  0.87483385  1
  V  V34  1  0.37412611  0.62325114  0.74909882  1
  V  V35  1  0.62626426  0.24896934  0.87665414  1
  V  V36  1  0.87531887  0.25060754  0.12630984  1
  V  V37  1  0.00083054  0.24866871  0.75161269  1
  V  V38  1  0.75169239  -0.00138152  0.74990921  1
  V  V39  1  0.00676595  0.86690846  0.87353544  1
  V  V40  1  0.49996517  0.62564299  0.62312284  1
  V  V41  1  0.49984304  0.87872543  0.37959242  1
  V  V42  1  0.37458912  0.25295534  0.62594006  1
  V  V43  1  0.87425987  0.75087745  0.12405751  1
  V  V44  1  0.62322224  0.88235090  0.24426858  1
  V  V45  1  0.87710210  0.62461630  0.74966140  1
  V  V46  1  -0.00006751  0.37524769  0.37633067  1
  V  V47  1  0.62346402  -0.00029956  0.62659427  1
  V  V48  1  0.00054550  0.24998488  0.25164805  1
  V  V49  1  0.62371828  0.24996428  0.37748636  1
  V  V50  1  0.24946976  0.75141558  0.49816520  1
  V  V51  1  0.24985287  0.62622981  0.37508413  1
  V  V52  1  0.37521881  0.37554763  0.00071169  1
  V  V53  1  0.24471410  0.88395349  0.62317082  1
  V  V54  1  0.49826889  0.75077105  0.24816773  1
  V  V55  1  0.25140447  0.25016320  0.00109325  1
  V  V56  1  0.12809560  0.49322682  0.62448343  1
  V  V57  1  0.49139406  0.87335625  0.87926401  1
  V  V58  1  0.12551925  0.87466553  0.74717048  1
  V  V59  1  0.12479666  0.74972478  0.37408553  1
  V  V60  1  0.37708316  0.25089129  0.12762978  1
  V  V61  1  0.24926699  0.00130379  0.25199268  1
  V  V62  1  -0.00462079  0.87664742  0.37542352  1
  V  V63  1  0.50014518  0.37446012  0.87610199  1
  V  V64  1  0.25144475  0.12438155  0.87570954  1
  V  V65  1  0.87426645  0.37423077  0.50105175  1
  V  V66  1  0.00079021  0.00017566  -0.00036927  1
  V  V67  1  0.37418318  0.62502698  0.25064759  1
  V  V68  1  0.75086536  0.24869942  0.50340394  1
  V  V69  1  0.49929203  0.62542611  0.12345302  1
  V  V70  1  0.87681906  -0.00190199  0.87400787  1
  V  V71  1  0.12572943  0.37493388  0.25039893  1
  V  V72  1  0.37370159  0.37520928  0.50432551  1
  V  V73  1  0.00519522  -0.00021163  0.50345877  1
  V  V74  1  0.12666951  0.00132249  0.12658051  1
  V  V75  1  0.50014826  0.50019000  0.49914851  1
  V  V76  1  0.37631379  0.87787423  0.50049456  1
  V  V77  1  0.87424905  0.50103400  0.37407127  1
  V  V78  1  0.74947468  0.75105875  0.49931536  1
  V  V79  1  0.00106096  0.62552571  0.62430024  1
  V  V80  1  0.87405313  0.62420358  0.24973737  1
  V  V81  1  0.00169019  0.37400801  0.87450735  1
  V  V82  1  0.37698995  0.00081609  0.37869882  1
  V  V83  1  0.74856374  0.24788948  0.00006113  1
  V  V84  1  0.00019812  0.62551274  0.12439314  1
  V  V85  1  0.74546514  0.88095060  0.12440837  1
  V  V86  1  0.50187619  0.24974219  0.75117317  1
  V  V87  1  0.62341845  0.74882199  0.87389518  1
  V  V88  1  0.13003710  0.63249686  -0.00700388  1
  V  V89  1  0.87589786  0.74960424  0.62466412  1
  V  V90  1  0.24955366  0.37596175  0.12558576  1
  V  V91  1  0.75016448  0.37652863  0.12709666  1
  V  V92  1  0.00025056  0.50067008  0.50070956  1
  Zn  Zn93  1  0.24975047  0.49970679  0.25186551  1
  Zn  Zn94  1  0.12533913  0.62537438  0.50049985  1
  Zn  Zn95  1  0.87380647  0.87763808  0.50129840  1
  Zn  Zn96  1  0.62421040  0.62529248  -0.00095985  1
  Zn  Zn97  1  0.62794837  0.37517826  0.75016141  1
  Zn  Zn98  1  0.62669031  0.37448643  0.25222573  1
  Zn  Zn99  1  0.87053603  0.00087708  0.37704479  1
  Zn  Zn100  1  0.24403558  0.00447305  0.74410182  1
  Zn  Zn101  1  0.25115211  0.12521494  0.37908503  1
  Zn  Zn102  1  0.25365267  0.88040906  0.11933887  1
  Zn  Zn103  1  0.24553952  0.62711613  0.86823131  1
  Zn  Zn104  1  0.50856155  0.11486969  0.12766693  1
  Zn  Zn105  1  0.74923108  0.75050498  -0.00008869  1
  Zn  Zn106  1  0.37282845  0.49971299  0.87442171  1
  Zn  Zn107  1  0.74936168  0.50068753  0.25181127  1
  Zn  Zn108  1  0.74834767  0.12171265  0.37638971  1
  Zn  Zn109  1  0.75117893  0.49649738  0.74978355  1
  Zn  Zn110  1  0.87623099  0.25161459  0.62701766  1
  Zn  Zn111  1  0.74351305  0.00529682  0.24828488  1
  Zn  Zn112  1  0.50465564  -0.00149107  0.00527834  1
  Zn  Zn113  1  0.00665555  0.74736752  0.75168288  1
  Zn  Zn114  1  0.75322745  0.37488436  0.62847083  1
  Zn  Zn115  1  0.12994026  0.37196506  0.74812264  1
  Zn  Zn116  1  0.62805687  0.11269034  0.01400938  1
  Zn  Zn117  1  0.49830524  0.74982000  0.74785246  1
  Zn  Zn118  1  0.25048506  0.77007437  -0.02383883  1
  Zn  Zn119  1  0.74940518  0.62520878  0.37252210  1
  Zn  Zn120  1  0.75099881  0.12200469  0.87788430  1
  Zn  Zn121  1  0.13002618  0.12082382  0.50714029  1
  Zn  Zn122  1  0.19074955  0.18723022  0.18988103  1
  Zn  Zn123  1  0.18881289  0.18917054  0.68927225  1
  Zn  Zn124  1  0.18646214  0.68552690  0.18766897  1
  Zn  Zn125  1  0.18762181  0.68889952  0.68619969  1
  Zn  Zn126  1  0.68561332  0.18783833  0.18830252  1
  Zn  Zn127  1  0.68768629  0.18749295  0.69000554  1
  Zn  Zn128  1  0.68793326  0.69034815  0.18782284  1
  Zn  Zn129  1  0.68873463  0.68552980  0.68797308  1
  Zn  Zn130  1  0.31193631  0.31426725  0.31566305  1
  Zn  Zn131  1  0.31495807  0.31175354  0.81375331  1
  Zn  Zn132  1  0.31197899  0.81334067  0.30838074  1
  Zn  Zn133  1  0.30869658  0.80969804  0.80651846  1
  Zn  Zn134  1  0.81022777  0.31165368  0.31476919  1
  Zn  Zn135  1  0.81243529  0.31382753  0.81211489  1
  Zn  Zn136  1  0.80945387  0.81158892  0.30947806  1
  Zn  Zn137  1  0.81475925  0.81066584  0.81112327  1
  Zn  Zn138  1  0.18808327  0.43712354  0.43908780  1
  Zn  Zn139  1  0.18927981  0.44185982  0.93407040  1
  Zn  Zn140  1  0.18682363  0.93707839  0.43659766  1
  Zn  Zn141  1  0.18703670  0.93943758  0.93493973  1
  Zn  Zn142  1  0.68940863  0.43692994  0.43812638  1
  Zn  Zn143  1  0.68725162  0.43650553  0.93983164  1
  Zn  Zn144  1  0.68866882  0.93915460  0.43491536  1
  Zn  Zn145  1  0.68872962  0.93392390  0.93707158  1
  Zn  Zn146  1  0.32341264  0.05904196  0.06756249  1
  Zn  Zn147  1  0.31454327  0.06655776  0.55980046  1
  Zn  Zn148  1  0.31179700  0.56264572  0.06421737  1
  Zn  Zn149  1  0.31019631  0.56303936  0.56239924  1
  Zn  Zn150  1  0.81413712  0.06207527  0.06460271  1
  Zn  Zn151  1  0.81520245  0.06090912  0.56289284  1
  Zn  Zn152  1  0.81159541  0.56341127  0.06145294  1
  Zn  Zn153  1  0.81228134  0.56414047  0.56010631  1
  Zn  Zn154  1  0.43785239  0.43739338  0.18946494  1
  Zn  Zn155  1  0.44100740  0.43627816  0.68728174  1
  Zn  Zn156  1  0.43724544  0.93684041  0.18975470  1
  Zn  Zn157  1  0.43472014  0.93757663  0.69370185  1
  Zn  Zn158  1  0.93808689  0.43825260  0.18837975  1
  Zn  Zn159  1  0.93923923  0.43716329  0.68790564  1
  Zn  Zn160  1  0.93673727  0.93830216  0.18593874  1
  Zn  Zn161  1  0.93957217  0.93609487  0.68676316  1
  Zn  Zn162  1  0.06024665  0.06206411  0.31504476  1
  Zn  Zn163  1  0.06514701  0.05715768  0.81188131  1
  Zn  Zn164  1  0.06220216  0.56295426  0.31240387  1
  Zn  Zn165  1  0.06279917  0.55986342  0.80964675  1
  Zn  Zn166  1  0.55974757  0.06497536  0.31325693  1
  Zn  Zn167  1  0.57627667  0.04750751  0.84075721  1
  Zn  Zn168  1  0.56121559  0.56365525  0.31101830  1
  Zn  Zn169  1  0.56047500  0.56103579  0.81049606  1
  Zn  Zn170  1  0.43823008  0.18732950  0.43968999  1
  Zn  Zn171  1  0.44019697  0.18358727  0.94106980  1
  Zn  Zn172  1  0.43761776  0.68988988  0.43686742  1
  Zn  Zn173  1  0.43695338  0.68640158  0.93523477  1
  Zn  Zn174  1  0.93874541  0.18636137  0.44035130  1
  Zn  Zn175  1  0.93740475  0.18700780  0.93728983  1
  Zn  Zn176  1  0.93600432  0.68763575  0.43843876  1
  Zn  Zn177  1  0.93816872  0.68705541  0.93907438  1
  Zn  Zn178  1  0.06316154  0.31230826  0.06283513  1
  Zn  Zn179  1  0.05926907  0.31062245  0.56444955  1
  Zn  Zn180  1  0.06479921  0.81452148  0.06207127  1
  Zn  Zn181  1  0.06373222  0.81240789  0.56240908  1
  Zn  Zn182  1  0.56246923  0.31132539  0.06441451  1
  Zn  Zn183  1  0.56117127  0.31125547  0.56307088  1
  Zn  Zn184  1  0.56006174  0.81156207  0.06025251  1
  Zn  Zn185  1  0.56249790  0.81230588  0.56210013  1
  O  O186  1  0.11999213  0.12173805  0.12135936  1
  O  O187  1  0.11210592  0.12756937  0.62725909  1
  O  O188  1  0.11864202  0.61881774  0.11782286  1
  O  O189  1  0.11848537  0.61522409  0.62319791  1
  O  O190  1  0.62367533  0.12142571  0.12684345  1
  O  O191  1  0.61844228  0.11993070  0.62170357  1
  O  O192  1  0.61940475  0.61814949  0.12311982  1
  O  O193  1  0.62027470  0.61805896  0.61858611  1
  O  O194  1  0.38064261  0.38171865  0.38301713  1
  O  O195  1  0.38262492  0.37576589  0.88314697  1
  O  O196  1  0.38146553  0.88115153  0.37812985  1
  O  O197  1  0.38147247  0.88123567  0.86347299  1
  O  O198  1  0.88120404  0.37968633  0.38062046  1
  O  O199  1  0.88130843  0.37991638  0.88195262  1
  O  O200  1  0.88713613  0.87329218  0.37399311  1
  O  O201  1  0.88244358  0.87998275  0.87949196  1
  O  O202  1  0.25857551  0.00118823  0.37023320  1
  O  O203  1  0.25488309  0.00772141  0.87000336  1
  O  O204  1  0.25680818  0.50670894  0.37576599  1
  O  O205  1  0.25298854  0.50714889  0.86179159  1
  O  O206  1  0.75389224  0.00366994  0.36776769  1
  O  O207  1  0.76015522  -0.00044843  0.86664035  1
  O  O208  1  0.75803162  0.50282071  0.37329548  1
  O  O209  1  0.75553271  0.50851349  0.87642075  1
  O  O210  1  0.24352642  0.49268979  0.12809729  1
  O  O211  1  0.23920556  0.50342230  0.63084449  1
  O  O212  1  0.24459384  1.00247328  0.13427040  1
  O  O213  1  0.25795357  0.98776858  0.62251056  1
  O  O214  1  0.74097996  0.49547649  0.12371433  1
  O  O215  1  0.73865152  0.50052299  0.62365488  1
  O  O216  1  0.75528000  0.98487372  0.12753569  1
  O  O217  1  0.74424237  0.99399650  0.63121270  1
  O  O218  1  0.00548295  0.36849605  0.25609264  1
  O  O219  1  0.00072683  0.36663380  0.75826887  1
  O  O220  1  0.00370543  0.87118470  0.25729305  1
  O  O221  1  0.00659483  0.87372399  0.75678695  1
  O  O222  1  0.50096433  0.36907519  0.25934447  1
  O  O223  1  0.50192756  0.36721997  0.75806342  1
  O  O224  1  0.50545293  0.86980515  0.25783765  1
  O  O225  1  0.50649491  0.87113331  0.75801180  1
  O  O226  1  0.49141907  0.13387602  0.25087088  1
  O  O227  1  0.49425553  0.13263309  0.74184152  1
  O  O228  1  0.49414622  0.63134135  0.24346850  1
  O  O229  1  0.49076299  0.62408483  0.74029719  1
  O  O230  1  0.99403918  0.13148267  0.24520816  1
  O  O231  1  0.99414848  0.12637314  0.74577533  1
  O  O232  1  0.99495712  0.63134831  0.24355794  1
  O  O233  1  0.99503605  0.62661871  0.74350217  1
  O  O234  1  0.36952219  0.25632892  0.00640785  1
  O  O235  1  0.36801559  0.25451752  0.50502310  1
  O  O236  1  0.37148460  0.74258948  0.01332251  1
  O  O237  1  0.36905006  0.75807811  0.50281557  1
  O  O238  1  0.86848680  0.25470023  0.00534637  1
  O  O239  1  0.86605719  0.25390195  0.50107144  1
  O  O240  1  0.87438798  0.75708976  0.00673544  1
  O  O241  1  0.86737244  0.75233757  0.50668914  1
  O  O242  1  0.13252646  0.25213221  0.49404136  1
  O  O243  1  0.13102247  0.24457429  0.99611369  1
  O  O244  1  0.13186977  0.74960323  0.49125204  1
  O  O245  1  0.12435380  0.73354879  1.00596505  1
  O  O246  1  0.63202996  0.24086071  0.49844730  1
  O  O247  1  0.63660814  0.25278052  0.99353567  1
  O  O248  1  0.62930085  0.74537266  0.49403361  1
  O  O249  1  0.62593567  0.74734479  0.98515178  1
  O  O250  1  0.49183668  0.25384973  0.13520021  1
  O  O251  1  0.49619520  0.24072588  0.63168570  1
  O  O252  1  0.48989734  0.74506767  0.12791582  1
  O  O253  1  0.49329124  0.74346552  0.62421465  1
  O  O254  1  0.99532691  0.24540501  0.13114391  1
  O  O255  1  0.99726679  0.23893464  0.63276800  1
  O  O256  1  0.99440606  0.74601215  0.13053802  1
  O  O257  1  0.99340832  0.74292812  0.62370491  1
  O  O258  1  0.00812942  0.25575839  0.37269373  1
  O  O259  1  0.00625134  0.25386980  0.87188619  1
  O  O260  1  0.00412681  0.75771333  0.36979473  1
  O  O261  1  -0.00692176  0.76331248  0.87259491  1
  O  O262  1  0.50428414  0.25591570  0.37233673  1
  O  O263  1  0.50823296  0.25481082  0.87166513  1
  O  O264  1  0.50339532  0.75969226  0.36847984  1
  O  O265  1  0.50664157  0.75476654  0.87095358  1
  O  O266  1  0.24745549  0.13764007  0.49742132  1
  O  O267  1  0.24560292  0.13148162  0.99600627  1
  O  O268  1  0.24940157  0.63375012  0.49256995  1
  O  O269  1  0.23400332  0.62114911  1.00034315  1
  O  O270  1  0.74147553  0.13296395  0.50215916  1
  O  O271  1  0.75260827  0.13694521  0.99909585  1
  O  O272  1  0.74286580  0.63364198  0.49676524  1
  O  O273  1  0.74858431  0.62793683  0.98638805  1
  O  O274  1  0.25471505  0.37036037  0.00510547  1
  O  O275  1  0.25787923  0.36387592  0.49566312  1
  O  O276  1  0.23443326  0.87321852  0.00966488  1
  O  O277  1  0.25527966  0.87086131  0.50486490  1
  O  O278  1  0.75726721  0.36708189  0.00615652  1
  O  O279  1  0.75577820  0.36416140  0.50177966  1
  O  O280  1  0.75600672  0.87330514  0.00728140  1
  O  O281  1  0.74927816  0.86920695  0.50708158  1
  O  O282  1  0.12494598  0.49262801  0.24395505  1
  O  O283  1  0.13412217  0.49833990  0.74177554  1
  O  O284  1  0.12914777  0.99781971  0.24656884  1
  O  O285  1  0.12745640  0.98414038  0.75045016  1
  O  O286  1  0.62503724  0.49897784  0.23745276  1
  O  O287  1  0.62573192  0.49921194  0.73707347  1
  O  O288  1  0.62165988  0.98534129  0.25422753  1
  O  O289  1  0.63233522  0.99396825  0.74805519  1
  O  O290  1  0.36812999  0.00512086  0.26152907  1
  O  O291  1  0.36915102  0.00900327  0.75756853  1
  O  O292  1  0.37426687  0.50717424  0.25803864  1
  O  O293  1  0.36835737  0.50700099  0.74439116  1
  O  O294  1  0.87703188  0.01367748  0.24994081  1
  O  O295  1  0.87190383  0.00659291  0.75377627  1
  O  O296  1  0.87554762  0.50667799  0.25606373  1
  O  O297  1  0.87538375  0.50709809  0.75769934  1
  O  O298  1  0.12002137  0.36630059  0.37097241  1
  O  O299  1  0.11905002  0.36808031  0.87513753  1
  O  O300  1  0.11473921  0.87005700  0.36845342  1
  O  O301  1  0.11330888  0.87906428  0.86643923  1
  O  O302  1  0.61751798  0.36875423  0.37684022  1
  O  O303  1  0.61955431  0.36489670  0.87644142  1
  O  O304  1  0.61641555  0.87092628  0.36812637  1
  O  O305  1  0.61831793  0.86390651  0.86775305  1
  O  O306  1  0.37009838  0.13834021  0.13660623  1
  O  O307  1  0.38364777  0.13094393  0.62958695  1
  O  O308  1  0.37969177  0.63250685  0.13094288  1
  O  O309  1  0.38038323  0.62936479  0.62878329  1
  O  O310  1  0.88130454  0.13128400  0.13305280  1
  O  O311  1  0.88396158  0.12489537  0.63751734  1
  O  O312  1  0.88072382  0.63031304  0.12824346  1
  O  O313  1  0.88085289  0.62882498  0.62977839  1
  O  O314  1  0.25464726  0.25729019  0.12027540  1
  O  O315  1  0.25733637  0.24507182  0.61493678  1
  O  O316  1  0.26337704  0.74728711  0.12699947  1
  O  O317  1  0.25641936  0.75882362  0.61649619  1
  O  O318  1  0.75579401  0.25668538  0.11737654  1
  O  O319  1  0.75153413  0.25040384  0.61438185  1
  O  O320  1  0.75603682  0.76040023  0.12239311  1
  O  O321  1  0.75411735  0.75447212  0.61963798  1
  O  O322  1  0.24090424  0.25003981  0.38511702  1
  O  O323  1  0.24575089  0.24466449  0.88172341  1
  O  O324  1  0.24490093  0.74707373  0.37836997  1
  O  O325  1  0.25541034  0.73810658  0.87159480  1
  O  O326  1  0.74318138  0.24718867  0.38727279  1
  O  O327  1  0.74511880  0.25160889  0.88584924  1
  O  O328  1  0.74193296  0.75051229  0.38069363  1
  O  O329  1  0.74170360  0.74183134  0.87413998  1
  O  O330  1  0.00526376  0.12099016  0.00604957  1
  O  O331  1  0.00137288  0.11850718  0.51043600  1
  O  O332  1  0.00819416  0.61941853  0.00542298  1
  O  O333  1  0.00151543  0.61784732  0.50586626  1
  O  O334  1  0.50641540  0.12285494  0.00618269  1
  O  O335  1  0.51067652  0.13216426  0.51408215  1
  O  O336  1  0.50102648  0.61750339  0.00552899  1
  O  O337  1  0.50510240  0.62005600  0.50367948  1
  O  O338  1  0.49423586  0.38023248  0.49410930  1
  O  O339  1  0.49407428  0.37943907  0.99622719  1
  O  O340  1  0.49452392  0.86994156  0.48651329  1
  O  O341  1  0.50368620  0.87537835  0.98243248  1
  O  O342  1  0.99422688  0.37980619  0.49452730  1
  O  O343  1  0.99512028  0.37913957  0.99534440  1
  O  O344  1  0.99959249  0.88167522  0.49128824  1
  O  O345  1  0.99666299  0.88032250  0.99285694  1
  O  O346  1  0.49445030  0.49610202  0.38081566  1
  O  O347  1  0.50007650  0.49251569  0.88211799  1
  O  O348  1  0.48912918  0.98832528  0.36834191  1
  O  O349  1  0.48468902  0.98738731  0.86864402  1
  O  O350  1  0.99556048  0.49399005  0.38056618  1
  O  O351  1  0.99478343  0.49375655  0.88053685  1
  O  O352  1  0.99662649  0.99051397  0.38124830  1
  O  O353  1  0.99490312  0.99147250  0.88144491  1
  O  O354  1  0.00560274  0.00690565  0.11927285  1
  O  O355  1  -0.00489845  0.00808770  0.61552452  1
  O  O356  1  0.00489367  0.50495665  0.11924362  1
  O  O357  1  0.00710525  0.50656333  0.62017128  1
  O  O358  1  0.46943525  0.00685605  0.11310991  1
  O  O359  1  0.50576062  0.01260989  0.63420866  1
  O  O360  1  0.50697816  0.50451314  0.12064477  1
  O  O361  1  0.50863654  0.50540279  0.61764836  1
  O  O362  1  0.24328340  0.37597424  0.24445656  1
  O  O363  1  0.25141591  0.38744345  0.75344852  1
  O  O364  1  0.24203960  0.88287612  0.24684195  1
  O  O365  1  0.24343309  0.87663671  0.73756551  1
  O  O366  1  0.74819437  0.37735501  0.24227206  1
  O  O367  1  0.74692384  0.37899510  0.74606129  1
  O  O368  1  0.73953603  0.87489590  0.24095644  1
  O  O369  1  0.74449994  0.87869838  0.74434387  1
  O  O370  1  0.25638315  0.12026888  0.25748276  1
  O  O371  1  0.25739823  0.12633631  0.75707581  1
  O  O372  1  0.25560681  0.62278399  0.25778800  1
  O  O373  1  0.26034679  0.61505757  0.74411748  1
  O  O374  1  0.76214561  0.12631832  0.25177844  1
  O  O375  1  0.76125523  0.11903294  0.75052158  1
  O  O376  1  0.75843994  0.62372218  0.25120345  1
  O  O377  1  0.75663544  0.62180915  0.76095950  1
  O  O378  1  0.37690558  0.11586031  0.37164154  1
  O  O379  1  0.37029054  0.11912223  0.86935527  1
  O  O380  1  0.37041729  0.62116748  0.37049353  1
  O  O381  1  0.37994872  0.62035983  0.85781793  1
  O  O382  1  0.87625163  0.12647715  0.36385665  1
  O  O383  1  0.87690798  0.11794146  0.86494446  1
  O  O384  1  0.87547153  0.61917395  0.36726693  1
  O  O385  1  0.86849704  0.62051346  0.87119347  1
  O  O386  1  0.12939452  0.37905694  0.13054558  1
  O  O387  1  0.11632296  0.38895000  0.62829758  1
  O  O388  1  0.12035832  0.88518256  0.13453510  1
  O  O389  1  0.13665054  0.87319392  0.62833449  1
  O  O390  1  0.63058178  0.38491229  0.12611364  1
  O  O391  1  0.62489116  0.38715989  0.62323550  1
  O  O392  1  0.63213314  0.86803274  0.13244360  1
  O  O393  1  0.62871686  0.88002491  0.63026968  1
  O  O394  1  0.12076520  0.25465050  0.25909324  1
  O  O395  1  0.11969488  0.25162331  0.75831952  1
  O  O396  1  0.11815715  0.75585566  0.25393989  1
  O  O397  1  0.12350707  0.76610142  0.74318587  1
  O  O398  1  0.61838420  0.25188803  0.26060977  1
  O  O399  1  0.62064727  0.25318423  0.75816635  1
  O  O400  1  0.61764527  0.75930155  0.25453677  1
  O  O401  1  0.62377172  0.75343293  0.75890662  1
  O  O402  1  0.37939359  0.24701303  0.24867335  1
  O  O403  1  0.38100352  0.24389661  0.74563929  1
  O  O404  1  0.38004108  0.74310745  0.24317378  1
  O  O405  1  0.37593686  0.73807525  0.73900992  1
  O  O406  1  0.88111998  0.24352159  0.24599876  1
  O  O407  1  0.88114808  0.23888769  0.75261920  1
  O  O408  1  0.88067043  0.74480405  0.24360755  1
  O  O409  1  0.87665736  0.74152787  0.74157483  1
  O  O410  1  0.38073051  0.49560198  0.49649055  1
  O  O411  1  0.38103536  0.49364970  0.99997097  1
  O  O412  1  0.37052774  0.99482085  0.48626539  1
  O  O413  1  0.37093927  1.00314773  0.98020486  1
  O  O414  1  0.88091130  0.49500356  0.49406917  1
  O  O415  1  0.88172306  0.49488539  0.99526048  1
  O  O416  1  0.88690707  0.99786677  0.49669117  1
  O  O417  1  0.88185666  0.99442637  0.99549774  1
  O  O418  1  0.11884513  0.00886140  0.00631651  1
  O  O419  1  0.11059455  0.00396717  0.49121886  1
  O  O420  1  0.11924904  0.50634476  0.00666396  1
  O  O421  1  0.11927264  0.50075163  0.50754841  1
  O  O422  1  0.61383875  0.01253867  -0.04187455  1
  O  O423  1  0.63124267  0.01293216  0.50869922  1
  O  O424  1  0.61858276  0.50080213  0.01128016  1
  O  O425  1  0.61961716  0.50605517  0.50563755  1
  O  O426  1  0.36909584  0.37078093  0.12064028  1
  O  O427  1  0.38558057  0.36493455  0.61621318  1
  O  O428  1  0.37361207  0.85580615  0.13153286  1
  O  O429  1  0.36968143  0.87021725  0.61984136  1
  O  O430  1  0.87157319  0.36983990  0.11992698  1
  O  O431  1  0.87512950  0.37253125  0.61651330  1
  O  O432  1  0.86837812  0.86991449  0.12017534  1
  O  O433  1  0.86739923  0.86796207  0.62493987  1
  O  O434  1  0.12308486  0.13960638  0.37746378  1
  O  O435  1  0.13010486  0.12994589  0.88136156  1
  O  O436  1  0.13100189  0.63232981  0.37529250  1
  O  O437  1  0.12085787  0.61904016  0.89105775  1
  O  O438  1  0.62212637  0.13015430  0.38710593  1
  O  O439  1  0.63163777  0.14403317  0.87043093  1
  O  O440  1  0.62377741  0.63280911  0.38007546  1
  O  O441  1  0.63209563  0.63164114  0.87283465  1
