# generated using pymatgen
data_V93Zn93O256
_symmetry_space_group_name_H-M   'P 1'
_cell_length_a   17.05604102
_cell_length_b   17.05419727
_cell_length_c   17.05356794
_cell_angle_alpha   89.94234339
_cell_angle_beta   89.93557767
_cell_angle_gamma   90.00560886
_symmetry_Int_Tables_number   1
_chemical_formula_structural   V93Zn93O256
_chemical_formula_sum   'V93 Zn93 O256'
_cell_volume   4960.48651537
_cell_formula_units_Z   1
loop_
 _symmetry_equiv_pos_site_id
 _symmetry_equiv_pos_as_xyz
  1  'x, y, z'
loop_
 _atom_site_type_symbol
 _atom_site_label
 _atom_site_symmetry_multiplicity
 _atom_site_fract_x
 _atom_site_fract_y
 _atom_site_fract_z
 _atom_site_occupancy
  V  V0  1  0.37478604  0.74838318  0.62419416  1
  V  V1  1  0.74962822  0.49959094  0.25107884  1
  V  V2  1  0.87367339  0.11902648  0.25948677  1
  V  V3  1  0.37459144  0.37409291  0.00127675  1
  V  V4  1  0.49968615  0.87610249  0.87540416  1
  V  V5  1  0.87680937  0.62640045  0.74908236  1
  V  V6  1  0.87431105  0.62440360  0.24943448  1
  V  V7  1  0.25450786  0.50306626  0.24668431  1
  V  V8  1  0.12367958  0.74957676  0.37396165  1
  V  V9  1  0.25503249  0.25522599  0.49956285  1
  V  V10  1  0.12651687  0.37514795  0.74972866  1
  V  V11  1  0.87564875  0.37529100  0.50051096  1
  V  V12  1  0.37526796  0.49244686  0.37909687  1
  V  V13  1  0.62403839  0.50016833  0.12610441  1
  V  V14  1  0.87632274  0.24802999  0.12647738  1
  V  V15  1  0.37391890  0.74313846  0.12824183  1
  V  V16  1  0.00092270  0.50189934  0.50006870  1
  V  V17  1  0.25137615  0.50094260  0.74973919  1
  V  V18  1  0.62628563  -0.00069418  0.12821172  1
  V  V19  1  0.37404604  0.88051072  0.49419215  1
  V  V20  1  0.74880445  0.62500238  0.37615492  1
  V  V21  1  0.12613325  0.25008837  0.87517023  1
  V  V22  1  -0.00085923  0.62544519  0.12432152  1
  V  V23  1  -0.00168201  0.00057167  0.49768803  1
  V  V24  1  0.24910369  0.87598801  0.62313961  1
  V  V25  1  0.37541411  0.87601760  -0.00071292  1
  V  V26  1  0.87197236  0.88143181  0.49596523  1
  V  V27  1  0.12542221  0.49915376  0.12510457  1
  V  V28  1  0.74739243  0.74879277  0.49899620  1
  V  V29  1  0.49914316  0.74940256  0.74896844  1
  V  V30  1  0.12422924  0.62598415  -0.00114382  1
  V  V31  1  0.62490479  0.50249128  0.62272849  1
  V  V32  1  -0.00421583  0.88051479  0.37362897  1
  V  V33  1  0.87405324  0.75038178  0.12425079  1
  V  V34  1  0.62724515  0.87658587  0.75022774  1
  V  V35  1  0.87670239  0.24478029  0.63003195  1
  V  V36  1  0.62560262  0.37495015  0.75196376  1
  V  V37  1  0.74881242  0.24674444  0.49769793  1
  V  V38  1  0.12522195  0.25143353  0.37264485  1
  V  V39  1  0.74972875  0.87415516  0.62417742  1
  V  V40  1  0.87481663  0.87761553  -0.00130718  1
  V  V41  1  0.25116014  0.00136022  0.74896907  1
  V  V42  1  0.38032492  0.12461559  0.74619772  1
  V  V43  1  0.49873290  0.00372727  0.50347016  1
  V  V44  1  0.00059295  0.37497214  0.87412181  1
  V  V45  1  0.00172849  0.37477237  0.37463595  1
  V  V46  1  0.25540367  -0.00014699  0.25249040  1
  V  V47  1  0.62738258  0.12707116  0.00104392  1
  V  V48  1  -0.00074714  0.75085459  0.25022237  1
  V  V49  1  0.37569502  0.24806247  0.12827092  1
  V  V50  1  0.74869313  0.87537508  0.12529389  1
  V  V51  1  0.24961079  0.75112366  -0.00007073  1
  V  V52  1  0.49727821  0.87952750  0.37382729  1
  V  V53  1  0.12538710  0.12508799  0.50017407  1
  V  V54  1  0.62343390  0.87410087  0.24966708  1
  V  V55  1  0.24849169  0.75101823  0.49700894  1
  V  V56  1  0.74841911  0.75032464  -0.00052779  1
  V  V57  1  0.25601066  0.62721043  0.36905369  1
  V  V58  1  0.49994871  -0.00043234  0.00029847  1
  V  V59  1  -0.00018396  0.74998735  0.74819496  1
  V  V60  1  0.37812642  0.25298278  0.62329008  1
  V  V61  1  -0.00093304  0.12450675  0.62831964  1
  V  V62  1  0.50268012  0.24657950  0.74596823  1
  V  V63  1  0.12479817  0.00078628  0.62401220  1
  V  V64  1  0.24876397  0.87546253  0.12527309  1
  V  V65  1  0.62124890  0.37211397  0.25567426  1
  V  V66  1  0.87602165  0.49973497  0.37490705  1
  V  V67  1  0.12450874  0.50056442  0.62297805  1
  V  V68  1  0.50053308  0.49997354  0.00058673  1
  V  V69  1  0.87540096  0.49962676  0.87473632  1
  V  V70  1  0.12592479  0.00106916  0.12388229  1
  V  V71  1  -0.00036056  0.87642053  0.87456603  1
  V  V72  1  0.12543538  0.75138421  0.87405090  1
  V  V73  1  0.49457175  0.74314270  0.25038733  1
  V  V74  1  0.25255243  0.37528633  0.62338043  1
  V  V75  1  -0.00010574  0.24725217  0.74900714  1
  V  V76  1  0.12534095  0.12530174  -0.00041644  1
  V  V77  1  0.62038962  0.00565601  0.62428966  1
  V  V78  1  0.50128442  0.37405565  0.87591357  1
  V  V79  1  0.50034807  0.12459477  0.12737550  1
  V  V80  1  0.75031987  0.37496422  0.12554712  1
  V  V81  1  0.62395934  0.62476736  0.00099995  1
  V  V82  1  0.74971126  0.62572333  0.87595127  1
  V  V83  1  0.75615275  0.12276307  0.86984736  1
  V  V84  1  0.00013936  0.50069886  -0.00073600  1
  V  V85  1  0.25047684  0.12630209  0.87416927  1
  V  V86  1  0.00009346  0.00043206  -0.00023024  1
  V  V87  1  0.25594337  0.12036750  0.37467900  1
  V  V88  1  0.25063433  0.62489427  0.87311421  1
  V  V89  1  0.12526875  0.87540684  0.74882776  1
  V  V90  1  0.75185714  0.37465937  0.62721001  1
  V  V91  1  0.87471084  0.37493116  0.00113496  1
  V  V92  1  0.75118695  0.50003004  0.75120738  1
  Zn  Zn93  1  0.87661447  0.74929149  0.62339308  1
  Zn  Zn94  1  0.50018201  0.62379173  0.62309835  1
  Zn  Zn95  1  0.88041383  0.00481643  0.86514769  1
  Zn  Zn96  1  0.75829395  0.00538567  0.74406743  1
  Zn  Zn97  1  0.37568657  0.00164569  0.87461030  1
  Zn  Zn98  1  0.00052489  0.62707345  0.62250370  1
  Zn  Zn99  1  0.37600747  0.62249648  0.75097551  1
  Zn  Zn100  1  0.49588113  0.62208751  0.12796812  1
  Zn  Zn101  1  0.12334384  0.87721390  0.24984009  1
  Zn  Zn102  1  0.62666876  0.24900820  0.87547076  1
  Zn  Zn103  1  0.24765965  0.37275056  0.12567475  1
  Zn  Zn104  1  0.62411222  0.74967977  0.87583491  1
  Zn  Zn105  1  0.74880082  0.10931693  0.38238674  1
  Zn  Zn106  1  0.12351685  0.62561918  0.49925555  1
  Zn  Zn107  1  0.50076711  0.24645839  0.25509287  1
  Zn  Zn108  1  0.00012010  0.12470269  0.12684390  1
  Zn  Zn109  1  0.75474703  -0.00645622  0.25937584  1
  Zn  Zn110  1  0.62069308  0.74625671  0.37401393  1
  Zn  Zn111  1  0.48942461  0.49631708  0.50722051  1
  Zn  Zn112  1  0.12388662  0.37517994  0.24653206  1
  Zn  Zn113  1  0.62061957  0.12662202  0.50024224  1
  Zn  Zn114  1  0.49266032  0.36622181  0.38549112  1
  Zn  Zn115  1  0.00031526  0.24927372  0.25039873  1
  Zn  Zn116  1  0.75067946  0.25022454  -0.00088601  1
  Zn  Zn117  1  0.24962207  0.25000256  0.00111758  1
  Zn  Zn118  1  0.37977227  0.12049185  0.25497500  1
  Zn  Zn119  1  0.37552787  0.50105478  0.87382208  1
  Zn  Zn120  1  0.62268369  0.24533576  0.37693610  1
  Zn  Zn121  1  0.61877845  0.62442108  0.49879616  1
  Zn  Zn122  1  0.19063944  0.18489970  0.18685475  1
  Zn  Zn123  1  0.18841230  0.18768510  0.68766896  1
  Zn  Zn124  1  0.18540205  0.68718016  0.18824018  1
  Zn  Zn125  1  0.18659680  0.68600666  0.68586738  1
  Zn  Zn126  1  0.69176659  0.18734468  0.18970186  1
  Zn  Zn127  1  0.68773949  0.18805560  0.68551147  1
  Zn  Zn128  1  0.68441049  0.68823155  0.18795240  1
  Zn  Zn129  1  0.68869791  0.68756399  0.68737593  1
  Zn  Zn130  1  0.30863983  0.31423259  0.30809495  1
  Zn  Zn131  1  0.31397076  0.31276489  0.81262244  1
  Zn  Zn132  1  0.31234515  0.81422852  0.31039174  1
  Zn  Zn133  1  0.31296283  0.81390705  0.81272493  1
  Zn  Zn134  1  0.81233929  0.31100742  0.31230390  1
  Zn  Zn135  1  0.81220503  0.30947436  0.81436316  1
  Zn  Zn136  1  0.81143934  0.81202498  0.31340244  1
  Zn  Zn137  1  0.81414367  0.81293545  0.81349516  1
  Zn  Zn138  1  0.18870001  0.43885506  0.43609043  1
  Zn  Zn139  1  0.18921526  0.43794833  0.93745617  1
  Zn  Zn140  1  0.18352891  0.93693951  0.43494811  1
  Zn  Zn141  1  0.18829821  0.93968111  0.93627046  1
  Zn  Zn142  1  0.68795030  0.43455889  0.43936904  1
  Zn  Zn143  1  0.68716924  0.43728928  0.93837232  1
  Zn  Zn144  1  0.68261332  0.93676250  0.43470328  1
  Zn  Zn145  1  0.68750724  0.94003634  0.93745476  1
  Zn  Zn146  1  0.31229120  0.06314427  0.06261244  1
  Zn  Zn147  1  0.31353302  0.06602213  0.56300036  1
  Zn  Zn148  1  0.31124880  0.56157856  0.05964301  1
  Zn  Zn149  1  0.30734122  0.56545617  0.55909420  1
  Zn  Zn150  1  0.81261092  0.06127562  0.06418504  1
  Zn  Zn151  1  0.81124522  0.06125131  0.56532383  1
  Zn  Zn152  1  0.81112230  0.56191886  0.06255590  1
  Zn  Zn153  1  0.81325679  0.56413823  0.56367241  1
  Zn  Zn154  1  0.43742012  0.43714818  0.19045615  1
  Zn  Zn155  1  0.43837695  0.43505919  0.68900953  1
  Zn  Zn156  1  0.43712432  0.93472680  0.18552760  1
  Zn  Zn157  1  0.43714949  0.93597899  0.68558995  1
  Zn  Zn158  1  0.93974699  0.43569259  0.18896839  1
  Zn  Zn159  1  0.93883024  0.43683287  0.68680811  1
  Zn  Zn160  1  0.93806042  0.93848912  0.18504574  1
  Zn  Zn161  1  0.93538559  0.93691801  0.68547932  1
  Zn  Zn162  1  0.06403589  0.06426428  0.30957634  1
  Zn  Zn163  1  0.06303504  0.06324162  0.81200221  1
  Zn  Zn164  1  0.06573440  0.56358572  0.31215493  1
  Zn  Zn165  1  0.06381428  0.56322152  0.81044876  1
  Zn  Zn166  1  0.56597556  0.06301300  0.31607792  1
  Zn  Zn167  1  0.56557021  0.06213218  0.81457499  1
  Zn  Zn168  1  0.56206177  0.56192402  0.31357423  1
  Zn  Zn169  1  0.56231750  0.56247628  0.81322504  1
  Zn  Zn170  1  0.43813530  0.18787189  0.43751286  1
  Zn  Zn171  1  0.43914129  0.18809467  0.93588249  1
  Zn  Zn172  1  0.43757772  0.68385553  0.43807715  1
  Zn  Zn173  1  0.43684915  0.68729223  0.93778040  1
  Zn  Zn174  1  0.93773249  0.18829712  0.44071993  1
  Zn  Zn175  1  0.93906557  0.18842273  0.93952200  1
  Zn  Zn176  1  0.93576692  0.68938139  0.43768752  1
  Zn  Zn177  1  0.93658481  0.68939369  0.93579331  1
  Zn  Zn178  1  0.06153562  0.31201329  0.06196979  1
  Zn  Zn179  1  0.06451429  0.31386616  0.56087242  1
  Zn  Zn180  1  0.06235408  0.81436948  0.06243673  1
  Zn  Zn181  1  0.06098661  0.81240003  0.56082510  1
  Zn  Zn182  1  0.56150488  0.31187440  0.06663773  1
  Zn  Zn183  1  0.56266229  0.31810122  0.56126522  1
  Zn  Zn184  1  0.56113854  0.81104267  0.06407011  1
  Zn  Zn185  1  0.56264888  0.81535644  0.56256662  1
  O  O186  1  0.12409186  0.11945477  0.11777563  1
  O  O187  1  0.12102171  0.12026567  0.61900381  1
  O  O188  1  0.11796765  0.62071892  0.11771318  1
  O  O189  1  0.12302554  0.61608583  0.62089487  1
  O  O190  1  0.62193276  0.12015166  0.11919443  1
  O  O191  1  0.62942650  0.10924431  0.62393192  1
  O  O192  1  0.62364499  0.61732241  0.11884670  1
  O  O193  1  0.62496331  0.61407661  0.62596003  1
  O  O194  1  0.37123594  0.38906265  0.37095155  1
  O  O195  1  0.38182435  0.37396863  0.88584874  1
  O  O196  1  0.38183317  0.86993837  0.38645148  1
  O  O197  1  0.38103874  0.87756804  0.88121426  1
  O  O198  1  0.88074330  0.38031487  0.38046238  1
  O  O199  1  0.88081654  0.37988299  0.88019842  1
  O  O200  1  0.88566792  0.86956958  0.38349593  1
  O  O201  1  0.88257707  0.87566548  0.88292387  1
  O  O202  1  0.24057656  0.00977383  0.36595619  1
  O  O203  1  0.25222290  0.00697602  0.86608863  1
  O  O204  1  0.25592321  0.50684458  0.36737519  1
  O  O205  1  0.25033997  0.50683780  0.86797754  1
  O  O206  1  0.75227849  -0.00418495  0.37257524  1
  O  O207  1  0.75048717  0.01382314  0.87424260  1
  O  O208  1  0.75707574  0.50427139  0.37064483  1
  O  O209  1  0.75623588  0.50498899  0.87054980  1
  O  O210  1  0.24408927  0.50191557  0.13164058  1
  O  O211  1  0.24525880  0.49456843  0.62862885  1
  O  O212  1  0.24484134  0.99534082  0.13128924  1
  O  O213  1  0.24443693  0.99569131  0.62896108  1
  O  O214  1  0.74496558  0.49476788  0.13156671  1
  O  O215  1  0.74595464  0.49462912  0.63279043  1
  O  O216  1  0.74336501  0.99180837  0.12861094  1
  O  O217  1  0.73924799  0.99152491  0.62507684  1
  O  O218  1  0.00334583  0.37106961  0.25940765  1
  O  O219  1  0.00707342  0.36933370  0.75538870  1
  O  O220  1  -0.00209709  0.87033411  0.25838253  1
  O  O221  1  0.00737282  0.87011522  0.75450368  1
  O  O222  1  0.51179952  0.37457249  0.25452951  1
  O  O223  1  0.50570627  0.36590682  0.75652745  1
  O  O224  1  0.50180592  0.86831833  0.25731582  1
  O  O225  1  0.50704529  0.86775286  0.75357369  1
  O  O226  1  0.49731393  0.12324456  0.24291013  1
  O  O227  1  0.49231222  0.13446445  0.75636856  1
  O  O228  1  0.50369936  0.63966507  0.24865979  1
  O  O229  1  0.49834587  0.63854144  0.74846854  1
  O  O230  1  0.98842978  0.12856017  0.24797810  1
  O  O231  1  1.00871348  0.13458073  0.74088443  1
  O  O232  1  0.99371562  0.62998465  0.24417974  1
  O  O233  1  0.99431837  0.63228026  0.75044525  1
  O  O234  1  0.37701241  0.25817655  0.00836270  1
  O  O235  1  0.36485575  0.24055093  0.51183650  1
  O  O236  1  0.36910306  0.75662452  0.00709396  1
  O  O237  1  0.36984375  0.75958104  0.50694723  1
  O  O238  1  0.87528145  0.25700717  0.01003608  1
  O  O239  1  0.86992880  0.25625540  0.51017749  1
  O  O240  1  0.86930387  0.75576541  0.00554172  1
  O  O241  1  0.86427634  0.76033659  0.49961480  1
  O  O242  1  0.13457284  0.24458146  0.49285241  1
  O  O243  1  0.12578033  0.24417535  0.99256469  1
  O  O244  1  0.13161682  0.75173731  0.49192156  1
  O  O245  1  0.12985309  0.74559645  0.99441487  1
  O  O246  1  0.63776006  0.24764767  0.50686012  1
  O  O247  1  0.62573316  0.23804048  1.00148717  1
  O  O248  1  0.63642629  0.74978955  0.49950402  1
  O  O249  1  0.63058569  0.74383040  0.99941622  1
  O  O250  1  0.49161193  0.24279738  0.12848072  1
  O  O251  1  0.49179447  0.25637276  0.63657693  1
  O  O252  1  0.48974303  0.75011878  0.13275676  1
  O  O253  1  0.49109754  0.75263350  0.63231770  1
  O  O254  1  0.98854317  0.24927045  0.12730600  1
  O  O255  1  0.99461158  0.24614304  0.62782264  1
  O  O256  1  0.99392878  0.74520408  0.12920788  1
  O  O257  1  0.99856418  0.74894315  0.63266563  1
  O  O258  1  0.01175623  0.25521999  0.37880444  1
  O  O259  1  0.00527688  0.25568918  0.86931238  1
  O  O260  1  0.00338114  0.75837189  0.36959161  1
  O  O261  1  0.00690652  0.75650013  0.86962133  1
  O  O262  1  0.50321542  0.25135533  0.37209969  1
  O  O263  1  0.50295118  0.25529880  0.86366876  1
  O  O264  1  0.49679591  0.75798898  0.36715653  1
  O  O265  1  0.50017190  0.75674542  0.86468848  1
  O  O266  1  0.24505067  0.13232490  0.49349392  1
  O  O267  1  0.24386357  0.12567354  0.99178242  1
  O  O268  1  0.24641670  0.63449397  0.48831633  1
  O  O269  1  0.24298982  0.63147156  0.99366675  1
  O  O270  1  0.75200115  0.13602568  0.50124864  1
  O  O271  1  0.74019917  0.12464478  0.99384122  1
  O  O272  1  0.75206319  0.63511418  0.49444122  1
  O  O273  1  0.74474041  0.62971451  0.99528716  1
  O  O274  1  0.26252001  0.37383618  0.00180769  1
  O  O275  1  0.24548126  0.36099817  0.50474519  1
  O  O276  1  0.25446833  0.87000530  0.00441464  1
  O  O277  1  0.25641347  0.87229630  0.50233712  1
  O  O278  1  0.75692673  0.37458200  0.00693562  1
  O  O279  1  0.75650507  0.36718395  0.50829852  1
  O  O280  1  0.75395393  0.87019747  0.00503584  1
  O  O281  1  0.75525106  0.86768122  0.50280463  1
  O  O282  1  0.13324611  0.49993690  0.24263858  1
  O  O283  1  0.13067556  0.49363301  0.74403981  1
  O  O284  1  0.13505581  0.99999011  0.24187210  1
  O  O285  1  0.13099011  0.99477792  0.74305920  1
  O  O286  1  0.63033347  0.49276204  0.24612329  1
  O  O287  1  0.63193009  0.49510111  0.74417624  1
  O  O288  1  0.62421859  0.99063935  0.24321344  1
  O  O289  1  0.62420852  0.98957162  0.74256862  1
  O  O290  1  0.35970605  -0.00031765  0.24382486  1
  O  O291  1  0.37122171  0.00893567  0.74763239  1
  O  O292  1  0.36150132  0.49806988  0.25686692  1
  O  O293  1  0.36722558  0.50170428  0.75147951  1
  O  O294  1  0.87595434  0.01625193  0.24284901  1
  O  O295  1  0.87039940  -0.00424510  0.75241032  1
  O  O296  1  0.86982448  0.50510196  0.25468441  1
  O  O297  1  0.87081041  0.50418185  0.75603441  1
  O  O298  1  0.12131966  0.36469708  0.37580521  1
  O  O299  1  0.11982470  0.37045925  0.87022440  1
  O  O300  1  0.11287665  0.86784607  0.37339441  1
  O  O301  1  0.12072987  0.87025360  0.86881296  1
  O  O302  1  0.62761862  0.37348204  0.36357995  1
  O  O303  1  0.62022021  0.37234966  0.86954535  1
  O  O304  1  0.61195192  0.86832866  0.36876438  1
  O  O305  1  0.61977114  0.87474414  0.86550117  1
  O  O306  1  0.38158931  0.13385096  0.12382536  1
  O  O307  1  0.36899005  0.13718978  0.63806204  1
  O  O308  1  0.37460880  0.63982182  0.11762356  1
  O  O309  1  0.37295021  0.63955088  0.62541369  1
  O  O310  1  0.87521496  0.13507807  0.13170385  1
  O  O311  1  0.88258826  0.13755000  0.61950760  1
  O  O312  1  0.87971844  0.63003689  0.12941288  1
  O  O313  1  0.87795362  0.62772305  0.63419882  1
  O  O314  1  0.26128424  0.25097094  0.12190933  1
  O  O315  1  0.25611593  0.25439224  0.61785293  1
  O  O316  1  0.25470539  0.75462481  0.12035625  1
  O  O317  1  0.25587478  0.75663146  0.61909260  1
  O  O318  1  0.76091436  0.25661365  0.12306870  1
  O  O319  1  0.75945867  0.25412246  0.62086792  1
  O  O320  1  0.75511422  0.75473379  0.11914100  1
  O  O321  1  0.75058094  0.75599306  0.61528825  1
  O  O322  1  0.24398687  0.24414401  0.38173796  1
  O  O323  1  0.24355325  0.24444260  0.87547442  1
  O  O324  1  0.24543266  0.74504941  0.37603397  1
  O  O325  1  0.24425212  0.74681743  0.87998954  1
  O  O326  1  0.75111681  0.25234834  0.39124320  1
  O  O327  1  0.74723361  0.23820355  0.87899528  1
  O  O328  1  0.74793348  0.74412919  0.38339141  1
  O  O329  1  0.74827431  0.74357451  0.88223511  1
  O  O330  1  0.00777626  0.11812413  0.00063967  1
  O  O331  1  0.00584735  0.11977916  0.50614209  1
  O  O332  1  0.00427561  0.62065174  0.00408830  1
  O  O333  1  0.00118520  0.61754721  0.49994673  1
  O  O334  1  0.50890797  0.12013606  0.00485230  1
  O  O335  1  0.49675055  0.10639812  0.49500701  1
  O  O336  1  0.50627572  0.61850646  0.00119513  1
  O  O337  1  0.50121545  0.61594415  0.50468118  1
  O  O338  1  0.50563230  0.38586572  0.49532156  1
  O  O339  1  0.49403300  0.37930203  0.99640579  1
  O  O340  1  0.49187793  0.87917138  0.49273901  1
  O  O341  1  0.49584863  0.87948181  0.99511107  1
  O  O342  1  0.99483347  0.38094788  0.49427108  1
  O  O343  1  0.99451104  0.38171615  0.99318587  1
  O  O344  1  0.99129575  0.87939632  0.49259834  1
  O  O345  1  0.99543571  0.87998886  0.99390488  1
  O  O346  1  0.47874951  0.50425512  0.36888554  1
  O  O347  1  0.49861233  0.49225525  0.88152232  1
  O  O348  1  0.50353378  0.98521184  0.38428834  1
  O  O349  1  0.49898752  0.99390495  0.88202172  1
  O  O350  1  0.99522953  0.49527816  0.37937311  1
  O  O351  1  0.99546651  0.49478697  0.87948583  1
  O  O352  1  1.00857639  0.98835460  0.38124190  1
  O  O353  1  1.00168083  0.99383380  0.88141786  1
  O  O354  1  0.00848501  0.00049939  0.11710169  1
  O  O355  1  0.00670074  0.00445475  0.61803755  1
  O  O356  1  0.00387146  0.50622031  0.11890379  1
  O  O357  1  0.00686356  0.49945608  0.61785049  1
  O  O358  1  0.50565731  0.00425768  0.11942107  1
  O  O359  1  0.50939228  -0.01039531  0.61532844  1
  O  O360  1  0.50545924  0.50183100  0.12011298  1
  O  O361  1  0.51190868  0.50093105  0.62963617  1
  O  O362  1  0.24376026  0.38737598  0.24589627  1
  O  O363  1  0.24487241  0.38013406  0.74469135  1
  O  O364  1  0.24654520  0.88340624  0.24482554  1
  O  O365  1  0.24507228  0.88069432  0.74331209  1
  O  O366  1  0.74388297  0.38096731  0.24526637  1
  O  O367  1  0.74607511  0.37999238  0.74711934  1
  O  O368  1  0.74272501  0.87127099  0.24233712  1
  O  O369  1  0.73801041  0.87102593  0.74514550  1
  O  O370  1  0.25219458  0.11671527  0.25849995  1
  O  O371  1  0.25830942  0.12093274  0.75426750  1
  O  O372  1  0.24331568  0.61618764  0.25837158  1
  O  O373  1  0.25049942  0.61945940  0.75587306  1
  O  O374  1  0.76472292  0.12385367  0.25274817  1
  O  O375  1  0.74210667  0.12549018  0.76678729  1
  O  O376  1  0.75488909  0.61988432  0.25487097  1
  O  O377  1  0.75604432  0.62026944  0.75667293  1
  O  O378  1  0.35880140  0.12935992  0.37469252  1
  O  O379  1  0.37000829  0.12532728  0.86312149  1
  O  O380  1  0.36068513  0.61876533  0.37556953  1
  O  O381  1  0.36582939  0.62355263  0.87323375  1
  O  O382  1  0.87532756  0.13148648  0.36174765  1
  O  O383  1  0.85931919  0.12560046  0.88341186  1
  O  O384  1  0.86963692  0.61949877  0.36809225  1
  O  O385  1  0.86981675  0.61865027  0.87044018  1
  O  O386  1  0.12626941  0.38350229  0.12410119  1
  O  O387  1  0.13227567  0.37965355  0.63037797  1
  O  O388  1  0.13183204  0.88166265  0.12564466  1
  O  O389  1  0.13042062  0.88093333  0.62846187  1
  O  O390  1  0.63026641  0.38071575  0.13331109  1
  O  O391  1  0.63317683  0.38335415  0.63365018  1
  O  O392  1  0.62905775  0.87959727  0.12948951  1
  O  O393  1  0.62945461  0.88147654  0.63322624  1
  O  O394  1  0.12616258  0.24905779  0.26265849  1
  O  O395  1  0.12097352  0.25661333  0.75490798  1
  O  O396  1  0.11603920  0.75278820  0.25499723  1
  O  O397  1  0.12134262  0.75655313  0.75469709  1
  O  O398  1  0.62622065  0.26124606  0.24991029  1
  O  O399  1  0.61644866  0.25545031  0.74792030  1
  O  O400  1  0.61268296  0.75722183  0.24871051  1
  O  O401  1  0.61528155  0.75943046  0.74885854  1
  O  O402  1  0.37555703  0.24877248  0.23847849  1
  O  O403  1  0.38282876  0.24354551  0.74384740  1
  O  O404  1  0.38236328  0.75731042  0.23866848  1
  O  O405  1  0.38273314  0.75344148  0.74005125  1
  O  O406  1  0.87550179  0.24167300  0.24170670  1
  O  O407  1  0.88288789  0.25814829  0.73703934  1
  O  O408  1  0.87935372  0.74388929  0.24364642  1
  O  O409  1  0.88212354  0.74451748  0.74956434  1
  O  O410  1  0.36772908  0.50263519  0.48299797  1
  O  O411  1  0.38130315  0.48936371  1.00040680  1
  O  O412  1  0.38194593  0.98680048  0.51131966  1
  O  O413  1  0.38214771  0.99374434  0.99943557  1
  O  O414  1  0.87930775  0.49445854  0.49446146  1
  O  O415  1  0.88072000  0.49547818  0.99467714  1
  O  O416  1  0.88126415  0.98830174  0.50581586  1
  O  O417  1  0.88243116  0.99357093  0.99903479  1
  O  O418  1  0.12068504  0.00533845  0.00450315  1
  O  O419  1  0.11959432  0.00528203  0.50557755  1
  O  O420  1  0.11928655  0.50654570  0.00381402  1
  O  O421  1  0.11921336  0.49963391  0.50536105  1
  O  O422  1  0.61987119  0.00820031  0.00737963  1
  O  O423  1  0.61459908  -0.00381691  0.50959725  1
  O  O424  1  0.62010749  0.50416991  0.00664557  1
  O  O425  1  0.63300677  0.50126116  0.51605997  1
  O  O426  1  0.37689718  0.36601118  0.11634628  1
  O  O427  1  0.36758321  0.36072241  0.63264794  1
  O  O428  1  0.36819954  0.86584915  0.11786305  1
  O  O429  1  0.36892585  0.86590503  0.61697108  1
  O  O430  1  0.87073734  0.36886930  0.12148868  1
  O  O431  1  0.87118108  0.36721206  0.61979232  1
  O  O432  1  0.86951603  0.86905272  0.11907194  1
  O  O433  1  0.86820525  0.87159795  0.61248779  1
  O  O434  1  0.13255777  0.13389762  0.38044296  1
  O  O435  1  0.13096788  0.13112251  0.87915591  1
  O  O436  1  0.13452949  0.63228898  0.37645091  1
  O  O437  1  0.12982233  0.63189794  0.87996567  1
  O  O438  1  0.63124428  0.12850100  0.38186309  1
  O  O439  1  0.63343745  0.12535583  0.88629724  1
  O  O440  1  0.63339852  0.62581749  0.37831156  1
  O  O441  1  0.63227697  0.62600092  0.88191736  1
