# generated using pymatgen
data_V93Zn93O256
_symmetry_space_group_name_H-M   'P 1'
_cell_length_a   17.05254057
_cell_length_b   17.04940581
_cell_length_c   17.05167837
_cell_angle_alpha   89.95313701
_cell_angle_beta   90.04360640
_cell_angle_gamma   89.99050232
_symmetry_Int_Tables_number   1
_chemical_formula_structural   V93Zn93O256
_chemical_formula_sum   'V93 Zn93 O256'
_cell_volume   4957.52821600
_cell_formula_units_Z   1
loop_
 _symmetry_equiv_pos_site_id
 _symmetry_equiv_pos_as_xyz
  1  'x, y, z'
loop_
 _atom_site_type_symbol
 _atom_site_label
 _atom_site_symmetry_multiplicity
 _atom_site_fract_x
 _atom_site_fract_y
 _atom_site_fract_z
 _atom_site_occupancy
  V  V0  1  0.87527952  0.87380920  -0.00031965  1
  V  V1  1  0.25272747  0.75178653  -0.00004041  1
  V  V2  1  0.62193309  0.00052993  0.12455271  1
  V  V3  1  0.00305629  0.62157915  0.12429278  1
  V  V4  1  0.37787836  0.00052405  0.38175910  1
  V  V5  1  -0.00048266  0.87414008  0.87364204  1
  V  V6  1  0.87377444  0.12426982  0.75084241  1
  V  V7  1  0.37601926  0.62626910  0.25058920  1
  V  V8  1  0.37237506  0.50143276  0.37395925  1
  V  V9  1  0.74905775  0.24989847  0.50280739  1
  V  V10  1  0.62527367  0.37119408  0.74904809  1
  V  V11  1  -0.00007655  0.37393131  0.87520901  1
  V  V12  1  0.87508804  -0.00081783  0.37469515  1
  V  V13  1  0.12510278  -0.00845702  0.12978383  1
  V  V14  1  0.50179993  0.62710434  0.12514056  1
  V  V15  1  0.12379585  0.12352544  -0.00001712  1
  V  V16  1  0.87574257  0.37387882  0.49979964  1
  V  V17  1  0.50032450  0.49992499  -0.00115900  1
  V  V18  1  0.24668814  -0.00691214  0.25079445  1
  V  V19  1  0.75039695  0.49949505  0.74968480  1
  V  V20  1  0.24881040  0.24899800  0.49822008  1
  V  V21  1  0.49163816  0.00088935  -0.00427083  1
  V  V22  1  0.49905436  0.37448989  0.87429806  1
  V  V23  1  0.75083530  0.62542118  0.37437880  1
  V  V24  1  0.37183023  0.12628187  0.25060929  1
  V  V25  1  0.50175130  0.75178605  0.25039124  1
  V  V26  1  0.00133769  0.62479694  0.62567830  1
  V  V27  1  0.87480922  0.24852883  0.12595487  1
  V  V28  1  0.25166346  0.87542984  0.62695523  1
  V  V29  1  0.75215124  0.74966891  0.49948194  1
  V  V30  1  0.00257502  0.49935513  0.00280639  1
  V  V31  1  0.62429167  0.12457846  -0.00167323  1
  V  V32  1  0.12716106  0.38129101  0.24330807  1
  V  V33  1  0.74992090  0.74852913  -0.00094557  1
  V  V34  1  0.12426471  0.87448500  0.75057748  1
  V  V35  1  0.62389683  0.37454329  0.25023281  1
  V  V36  1  0.48549423  0.24479099  0.74527559  1
  V  V37  1  0.87374890  0.00005496  0.87513818  1
  V  V38  1  0.25414003  0.36870144  0.62572436  1
  V  V39  1  0.25077115  0.49916547  0.75022858  1
  V  V40  1  0.00093122  0.74903543  0.74948279  1
  V  V41  1  0.00394874  0.87561640  0.37104045  1
  V  V42  1  0.62592209  0.75084514  0.37388360  1
  V  V43  1  0.75046314  0.37471326  0.12469221  1
  V  V44  1  -0.00180880  0.12353124  0.12585276  1
  V  V45  1  0.00030279  -0.00182615  0.00061325  1
  V  V46  1  -0.00057172  0.12390963  0.62388930  1
  V  V47  1  0.50120295  0.87958535  0.38168712  1
  V  V48  1  0.75028971  0.87556052  0.12480918  1
  V  V49  1  0.62380172  0.25037151  0.37517183  1
  V  V50  1  0.74873163  0.87757034  0.62586482  1
  V  V51  1  0.75035463  0.49986523  0.24972012  1
  V  V52  1  0.87490150  0.49899518  0.87390851  1
  V  V53  1  0.12743316  0.75393979  0.37054190  1
  V  V54  1  0.48649921  0.12330128  0.62369047  1
  V  V55  1  0.37532008  0.37103547  0.50296212  1
  V  V56  1  0.12651216  0.62513120  0.49914255  1
  V  V57  1  0.74856817  0.00057459  0.24931924  1
  V  V58  1  0.49765694  0.25008018  0.24924574  1
  V  V59  1  0.12460490  0.00072571  0.62444328  1
  V  V60  1  0.12441290  0.24793728  0.87585785  1
  V  V61  1  0.87471797  0.12608982  0.25017957  1
  V  V62  1  0.25996640  0.00428327  0.75477281  1
  V  V63  1  0.25114231  0.24989399  0.00402226  1
  V  V64  1  0.74783835  0.24938988  -0.00088723  1
  V  V65  1  0.87572402  0.87435561  0.49882450  1
  V  V66  1  0.37624695  0.74956051  0.62479427  1
  V  V67  1  0.50062281  0.62579410  0.62522247  1
  V  V68  1  0.00340564  0.75066104  0.24968951  1
  V  V69  1  0.74922702  0.12399672  0.87459610  1
  V  V70  1  -0.00029698  0.24883369  0.74993444  1
  V  V71  1  0.00083722  0.49882510  0.49958059  1
  V  V72  1  0.12708342  0.61936748  0.00460952  1
  V  V73  1  0.26114818  0.12141443  0.87226456  1
  V  V74  1  0.50019264  0.49913622  0.49997906  1
  V  V75  1  0.74865603  0.12407957  0.37586352  1
  V  V76  1  0.62002955  0.11859734  0.50391351  1
  V  V77  1  0.37629236  0.62481286  0.74858714  1
  V  V78  1  0.62570232  0.49936409  0.62495246  1
  V  V79  1  0.62515053  0.50005612  0.12443146  1
  V  V80  1  0.25039462  0.62528845  0.87460859  1
  V  V81  1  0.87654961  0.62296262  0.74945827  1
  V  V82  1  0.25147770  0.75132019  0.50108868  1
  V  V83  1  0.87639623  0.62458146  0.24923021  1
  V  V84  1  0.62683570  0.62616759  -0.00156652  1
  V  V85  1  0.12516514  0.37441677  0.75027287  1
  V  V86  1  0.87589509  0.49981125  0.37566569  1
  V  V87  1  0.12649042  0.49942692  0.62404978  1
  V  V88  1  0.37636400  0.49987002  0.87557853  1
  V  V89  1  0.87655602  0.74987913  0.12480583  1
  V  V90  1  0.87521354  0.37448792  0.00017765  1
  V  V91  1  0.49352706  0.87694863  0.87289190  1
  V  V92  1  0.62661641  0.62338035  0.49960576  1
  Zn  Zn93  1  0.87583263  0.75005151  0.62503312  1
  Zn  Zn94  1  0.75047884  0.37390234  0.62565676  1
  Zn  Zn95  1  0.12198163  0.24818521  0.37268161  1
  Zn  Zn96  1  0.62259071  0.24664462  0.87328282  1
  Zn  Zn97  1  0.12554623  0.74989722  0.87509012  1
  Zn  Zn98  1  0.62718437  0.87527323  0.75277631  1
  Zn  Zn99  1  0.74970526  0.62633738  0.87350217  1
  Zn  Zn100  1  0.37993905  0.87983346  0.50469845  1
  Zn  Zn101  1  0.37508701  0.37482083  0.00346534  1
  Zn  Zn102  1  0.25106630  0.87311006  0.12652937  1
  Zn  Zn103  1  0.00459309  0.37244831  0.37329816  1
  Zn  Zn104  1  0.24569632  0.12428933  0.37619631  1
  Zn  Zn105  1  0.50336123  0.74991330  0.75108795  1
  Zn  Zn106  1  0.24984875  0.62730635  0.37411115  1
  Zn  Zn107  1  0.00144372  -0.00006079  0.49810941  1
  Zn  Zn108  1  0.24860377  0.39011371  0.11926756  1
  Zn  Zn109  1  0.00283392  0.25055830  0.25225185  1
  Zn  Zn110  1  0.62667140  0.75107164  0.87200548  1
  Zn  Zn111  1  0.61853939  -0.00121203  0.62699036  1
  Zn  Zn112  1  0.37094184  0.88092251  0.00095185  1
  Zn  Zn113  1  0.87470700  0.24881907  0.62535567  1
  Zn  Zn114  1  0.37236062  0.25416803  0.12637053  1
  Zn  Zn115  1  0.24276737  0.50721320  0.24016212  1
  Zn  Zn116  1  0.49884108  0.37517677  0.37541236  1
  Zn  Zn117  1  0.12324748  0.12793190  0.49766988  1
  Zn  Zn118  1  0.62420989  0.87656673  0.25073426  1
  Zn  Zn119  1  0.74660998  0.00014593  0.74962955  1
  Zn  Zn120  1  0.37644743  0.75483850  0.12524568  1
  Zn  Zn121  1  0.49652285  0.12584515  0.12213237  1
  Zn  Zn122  1  0.18285329  0.18666293  0.18950591  1
  Zn  Zn123  1  0.18844154  0.18645408  0.68884462  1
  Zn  Zn124  1  0.18952309  0.68757350  0.18567275  1
  Zn  Zn125  1  0.18806856  0.68809097  0.68754763  1
  Zn  Zn126  1  0.68623891  0.18679919  0.18643859  1
  Zn  Zn127  1  0.68356173  0.18512015  0.68700190  1
  Zn  Zn128  1  0.68759410  0.68844742  0.18653994  1
  Zn  Zn129  1  0.68803057  0.69026569  0.68878469  1
  Zn  Zn130  1  0.30766765  0.31553983  0.31417566  1
  Zn  Zn131  1  0.31097693  0.31178502  0.81810359  1
  Zn  Zn132  1  0.31591246  0.81444571  0.31487218  1
  Zn  Zn133  1  0.31391894  0.81311269  0.81225563  1
  Zn  Zn134  1  0.81272450  0.31154879  0.31386551  1
  Zn  Zn135  1  0.81180772  0.30998089  0.81292477  1
  Zn  Zn136  1  0.81403179  0.81338408  0.31087178  1
  Zn  Zn137  1  0.81354223  0.80989246  0.81130001  1
  Zn  Zn138  1  0.18742848  0.43519467  0.43159099  1
  Zn  Zn139  1  0.18787212  0.43702065  0.93783568  1
  Zn  Zn140  1  0.19116777  0.93735424  0.43843231  1
  Zn  Zn141  1  0.18648977  0.93814127  0.93655559  1
  Zn  Zn142  1  0.68815050  0.43633799  0.43612151  1
  Zn  Zn143  1  0.68689854  0.43762345  0.93522283  1
  Zn  Zn144  1  0.68727853  0.93700370  0.43896848  1
  Zn  Zn145  1  0.68343296  0.93628105  0.93637621  1
  Zn  Zn146  1  0.30882083  0.06740009  0.06617334  1
  Zn  Zn147  1  0.30942654  0.06293091  0.56509944  1
  Zn  Zn148  1  0.31523971  0.56430464  0.06369548  1
  Zn  Zn149  1  0.31196455  0.56181491  0.56181963  1
  Zn  Zn150  1  0.81131624  0.06176449  0.06124545  1
  Zn  Zn151  1  0.81281678  0.06050210  0.56123665  1
  Zn  Zn152  1  0.81446271  0.56219885  0.06166470  1
  Zn  Zn153  1  0.81310265  0.56152437  0.56457933  1
  Zn  Zn154  1  0.43432337  0.43691910  0.18456692  1
  Zn  Zn155  1  0.43850455  0.43743682  0.68752082  1
  Zn  Zn156  1  0.43484130  0.93593850  0.18884955  1
  Zn  Zn157  1  0.43781627  0.93967932  0.68831556  1
  Zn  Zn158  1  0.94099764  0.43686042  0.18725526  1
  Zn  Zn159  1  0.93771665  0.43646717  0.68535636  1
  Zn  Zn160  1  0.93717108  0.93748484  0.18927403  1
  Zn  Zn161  1  0.93443847  0.93758549  0.68790390  1
  Zn  Zn162  1  0.06370696  0.06475543  0.31305773  1
  Zn  Zn163  1  0.06530004  0.06154413  0.81221480  1
  Zn  Zn164  1  0.06201964  0.56282409  0.31432406  1
  Zn  Zn165  1  0.06416434  0.56224727  0.81553712  1
  Zn  Zn166  1  0.56073651  0.06435048  0.31319377  1
  Zn  Zn167  1  0.56277197  0.05922242  0.80948510  1
  Zn  Zn168  1  0.56108613  0.56197992  0.31318866  1
  Zn  Zn169  1  0.56412619  0.56283915  0.81286044  1
  Zn  Zn170  1  0.43609780  0.18763010  0.43718219  1
  Zn  Zn171  1  0.43822968  0.18909448  0.93615509  1
  Zn  Zn172  1  0.43931916  0.68991111  0.43840276  1
  Zn  Zn173  1  0.43823346  0.68919749  0.93619961  1
  Zn  Zn174  1  0.93856284  0.18796608  0.43591954  1
  Zn  Zn175  1  0.93641601  0.18671422  0.93864488  1
  Zn  Zn176  1  0.93932194  0.68783155  0.43795079  1
  Zn  Zn177  1  0.93821378  0.68632700  0.93562914  1
  Zn  Zn178  1  0.06311867  0.31086982  0.06534465  1
  Zn  Zn179  1  0.06408643  0.31191882  0.56264688  1
  Zn  Zn180  1  0.06481212  0.80839645  0.06039614  1
  Zn  Zn181  1  0.06351522  0.81239195  0.56084069  1
  Zn  Zn182  1  0.56195839  0.31261535  0.06290924  1
  Zn  Zn183  1  0.56002815  0.30917306  0.56481720  1
  Zn  Zn184  1  0.56227047  0.81411583  0.05952324  1
  Zn  Zn185  1  0.56524380  0.81039917  0.56236427  1
  O  O186  1  0.11748987  0.11490113  0.11910656  1
  O  O187  1  0.11548333  0.11677588  0.62629980  1
  O  O188  1  0.11795207  0.63127194  0.11276326  1
  O  O189  1  0.12140920  0.61847643  0.61957283  1
  O  O190  1  0.62451928  0.11467963  0.11862768  1
  O  O191  1  0.61737512  0.12413940  0.61619698  1
  O  O192  1  0.62127564  0.61842660  0.11991169  1
  O  O193  1  0.62117518  0.61892416  0.61852842  1
  O  O194  1  0.37542476  0.38567013  0.38417838  1
  O  O195  1  0.38166555  0.38268190  0.87712864  1
  O  O196  1  0.38436894  0.88378170  0.37767248  1
  O  O197  1  0.38896482  0.87240403  0.87955185  1
  O  O198  1  0.87357773  0.38123461  0.38599532  1
  O  O199  1  0.88090791  0.37841989  0.88051493  1
  O  O200  1  0.88291545  0.87924066  0.37927285  1
  O  O201  1  0.88013532  0.88019673  0.88067334  1
  O  O202  1  0.25765475  0.00089769  0.36705386  1
  O  O203  1  0.24033012  0.01009326  0.86605593  1
  O  O204  1  0.26374196  0.50439431  0.37248523  1
  O  O205  1  0.25583960  0.50453919  0.86919434  1
  O  O206  1  0.75427723  0.00502460  0.36946191  1
  O  O207  1  0.75729458  0.00607105  0.87712939  1
  O  O208  1  0.75535131  0.50614096  0.36923764  1
  O  O209  1  0.75762822  0.49996488  0.86749426  1
  O  O210  1  0.25000996  0.50337092  0.12746364  1
  O  O211  1  0.24507122  0.49091883  0.63023997  1
  O  O212  1  0.24052207  1.00008568  0.13241497  1
  O  O213  1  0.24202840  0.99686631  0.63357846  1
  O  O214  1  0.74583028  0.49436077  0.13035918  1
  O  O215  1  0.74303746  0.49706888  0.63118507  1
  O  O216  1  0.74171320  0.99563282  0.12833485  1
  O  O217  1  0.74971296  0.98784646  0.62382208  1
  O  O218  1  0.01137212  0.37367798  0.25052961  1
  O  O219  1  0.00533034  0.36942050  0.75465804  1
  O  O220  1  -0.00640298  0.86751208  0.26336565  1
  O  O221  1  0.00370398  0.86956028  0.75395387  1
  O  O222  1  0.50527437  0.36639286  0.25103912  1
  O  O223  1  0.50649786  0.36582500  0.75219309  1
  O  O224  1  0.50187352  0.86922989  0.26090367  1
  O  O225  1  0.49907075  0.87715705  0.76432139  1
  O  O226  1  0.49076936  0.13430264  0.25001977  1
  O  O227  1  0.50300087  0.13842486  0.74127152  1
  O  O228  1  0.49501746  0.63129701  0.24602640  1
  O  O229  1  0.49375678  0.62333629  0.74238746  1
  O  O230  1  0.99094195  0.12396350  0.24272262  1
  O  O231  1  0.99512773  0.12904464  0.74299116  1
  O  O232  1  0.99507705  0.63019768  0.24465937  1
  O  O233  1  0.99738418  0.62794708  0.74494654  1
  O  O234  1  0.36402159  0.25031114  0.00089784  1
  O  O235  1  0.36749654  0.26476053  0.49438882  1
  O  O236  1  0.36172775  0.74640855  0.00191678  1
  O  O237  1  0.36871569  0.75112463  0.50695379  1
  O  O238  1  0.86842370  0.25525830  0.00558699  1
  O  O239  1  0.86499590  0.25672050  0.49958686  1
  O  O240  1  0.87137620  0.75430079  0.00601275  1
  O  O241  1  0.86935819  0.75566905  0.49996796  1
  O  O242  1  0.13701534  0.25120974  0.49934095  1
  O  O243  1  0.13043602  0.24353476  0.99495435  1
  O  O244  1  0.13087041  0.74474793  0.49202203  1
  O  O245  1  0.13403434  0.73981391  0.99631174  1
  O  O246  1  0.63252582  0.24468470  0.49559868  1
  O  O247  1  0.62995679  0.24336042  0.99870753  1
  O  O248  1  0.63240974  0.74202715  0.49290801  1
  O  O249  1  0.63353161  0.74249551  1.00229558  1
  O  O250  1  0.49969824  0.24790137  0.13828294  1
  O  O251  1  0.50112965  0.24295394  0.63888188  1
  O  O252  1  0.50168355  0.74449164  0.13199122  1
  O  O253  1  0.49411009  0.74272426  0.62465780  1
  O  O254  1  0.99110237  0.24059253  0.12479201  1
  O  O255  1  1.00054875  0.23944011  0.63089308  1
  O  O256  1  0.99567590  0.74409568  0.12992302  1
  O  O257  1  1.00064247  0.74265129  0.63079393  1
  O  O258  1  0.00083298  0.25419411  0.37090716  1
  O  O259  1  0.00429605  0.25467752  0.87050847  1
  O  O260  1  0.00805986  0.75619528  0.37065697  1
  O  O261  1  0.00113731  0.75665946  0.86790345  1
  O  O262  1  0.50506140  0.25154399  0.36489053  1
  O  O263  1  0.50220714  0.25398988  0.86133984  1
  O  O264  1  0.50686861  0.75764793  0.37029648  1
  O  O265  1  0.50240015  0.76370845  0.87569521  1
  O  O266  1  0.24970103  0.13923065  0.50368258  1
  O  O267  1  0.24286581  0.12997159  0.99192330  1
  O  O268  1  0.24414134  0.63241952  0.49875970  1
  O  O269  1  0.24367015  0.63138537  0.99453476  1
  O  O270  1  0.74290634  0.13285363  0.49584691  1
  O  O271  1  0.74464273  0.13009734  0.99483818  1
  O  O272  1  0.74641241  0.62849776  0.49391285  1
  O  O273  1  0.74501343  0.63050144  1.00014322  1
  O  O274  1  0.24929645  0.36224988  -0.00136913  1
  O  O275  1  0.25622833  0.37026424  0.50775927  1
  O  O276  1  0.25028388  0.86445917  -0.00229399  1
  O  O277  1  0.25255380  0.86870176  0.50976408  1
  O  O278  1  0.75475479  0.37038954  0.00507820  1
  O  O279  1  0.75694200  0.36634369  0.50020349  1
  O  O280  1  0.75650902  0.86987610  0.00606115  1
  O  O281  1  0.75602310  0.86926263  0.50485591  1
  O  O282  1  0.12517685  0.48709165  0.25684850  1
  O  O283  1  0.13106563  0.49375675  0.74532417  1
  O  O284  1  0.13517010  1.00695671  0.24058582  1
  O  O285  1  0.12893241  0.99394921  0.73928726  1
  O  O286  1  0.63032070  0.49532733  0.24471946  1
  O  O287  1  0.62913502  0.49038131  0.74489764  1
  O  O288  1  0.62989012  1.00213048  0.24039888  1
  O  O289  1  0.63020195  0.99403327  0.74496384  1
  O  O290  1  0.36757754  0.00916942  0.25730504  1
  O  O291  1  0.35819588  -0.00208901  0.74735022  1
  O  O292  1  0.38098468  0.51107364  0.25979257  1
  O  O293  1  0.36976769  0.50461907  0.75477137  1
  O  O294  1  0.86782445  0.00587978  0.25493106  1
  O  O295  1  0.87273547  0.00689315  0.75818220  1
  O  O296  1  0.86966892  0.50495449  0.25498268  1
  O  O297  1  0.87111226  0.50240194  0.75414197  1
  O  O298  1  0.12385435  0.37085993  0.36316500  1
  O  O299  1  0.11921563  0.36892712  0.86924891  1
  O  O300  1  0.11560159  0.86520685  0.38237785  1
  O  O301  1  0.11621196  0.87457259  0.86795474  1
  O  O302  1  0.62326620  0.36886916  0.36800536  1
  O  O303  1  0.61810720  0.37449586  0.86347982  1
  O  O304  1  0.61856978  0.87047785  0.37357212  1
  O  O305  1  0.61226155  0.87172900  0.87538189  1
  O  O306  1  0.37639512  0.12976967  0.13924859  1
  O  O307  1  0.38796207  0.12710068  0.61885489  1
  O  O308  1  0.38457743  0.62848577  0.13647560  1
  O  O309  1  0.38060342  0.62836393  0.62930184  1
  O  O310  1  0.87778925  0.12838993  0.12984849  1
  O  O311  1  0.88460960  0.12372104  0.63054199  1
  O  O312  1  0.88120518  0.63107277  0.13007704  1
  O  O313  1  0.88397137  0.62432601  0.63109955  1
  O  O314  1  0.24729531  0.24429307  0.10973914  1
  O  O315  1  0.24526178  0.26316739  0.61960422  1
  O  O316  1  0.25030768  0.75285126  0.11371719  1
  O  O317  1  0.25587861  0.75581374  0.62134242  1
  O  O318  1  0.75409465  0.25535284  0.11925186  1
  O  O319  1  0.75079094  0.24978177  0.61257453  1
  O  O320  1  0.75715602  0.75569616  0.12049346  1
  O  O321  1  0.75254333  0.75874886  0.61659644  1
  O  O322  1  0.24954590  0.24830744  0.38835308  1
  O  O323  1  0.24287810  0.24201390  0.88215464  1
  O  O324  1  0.24180034  0.75279517  0.38079875  1
  O  O325  1  0.24950096  0.74310880  0.88189649  1
  O  O326  1  0.74463228  0.24404065  0.38393354  1
  O  O327  1  0.74750100  0.24294857  0.88244656  1
  O  O328  1  0.74619710  0.74458775  0.37857216  1
  O  O329  1  0.75026475  0.74748946  0.88484312  1
  O  O330  1  0.00316982  0.11735271  0.00555213  1
  O  O331  1  -0.00038006  0.12223178  0.51281687  1
  O  O332  1  0.00838398  0.62064737  0.00334158  1
  O  O333  1  0.00612717  0.61899001  0.50552255  1
  O  O334  1  0.50582732  0.11848157  -0.00008598  1
  O  O335  1  0.50767756  0.13856089  0.51476295  1
  O  O336  1  0.50658227  0.62019609  0.00526773  1
  O  O337  1  0.50728866  0.61944019  0.50504532  1
  O  O338  1  0.49100072  0.37926291  0.50104665  1
  O  O339  1  0.50093029  0.38131659  0.99237889  1
  O  O340  1  0.50006417  0.87059833  0.48608731  1
  O  O341  1  0.49832919  0.88378398  0.99078148  1
  O  O342  1  0.99057358  0.38012775  0.50100338  1
  O  O343  1  0.99517532  0.37833665  0.99504910  1
  O  O344  1  0.99454005  0.87507654  0.48863093  1
  O  O345  1  0.99446762  0.87825582  0.99456549  1
  O  O346  1  0.49108905  0.49864830  0.38206854  1
  O  O347  1  0.49567174  0.49458109  0.87898188  1
  O  O348  1  0.49014001  0.99141861  0.36773403  1
  O  O349  1  0.50448553  0.98909374  0.88470717  1
  O  O350  1  0.99189016  0.49906795  0.38338697  1
  O  O351  1  0.99482613  0.49229888  0.88084370  1
  O  O352  1  0.99547592  0.99066311  0.37474455  1
  O  O353  1  0.99440949  0.99459740  0.88086428  1
  O  O354  1  0.00543806  0.00307033  0.12106404  1
  O  O355  1  0.00813089  0.00716918  0.62579006  1
  O  O356  1  -0.00824618  0.50975822  0.11478824  1
  O  O357  1  0.00759415  0.50423778  0.61949544  1
  O  O358  1  0.50970436  0.00060424  0.11929668  1
  O  O359  1  0.49959038  0.01902933  0.63220636  1
  O  O360  1  0.50651911  0.50588553  0.11944148  1
  O  O361  1  0.50598089  0.50544492  0.61921317  1
  O  O362  1  0.23745826  0.37774994  0.24759800  1
  O  O363  1  0.24586476  0.37848793  0.74420434  1
  O  O364  1  0.25626837  0.88967772  0.24895091  1
  O  O365  1  0.24391883  0.88269173  0.74657654  1
  O  O366  1  0.74485942  0.38011221  0.24481713  1
  O  O367  1  0.74116049  0.37850568  0.74840521  1
  O  O368  1  0.74908304  0.88228323  0.24290308  1
  O  O369  1  0.75327754  0.87475409  0.73662239  1
  O  O370  1  0.25896192  0.11795414  0.25168631  1
  O  O371  1  0.24132867  0.11658431  0.76033271  1
  O  O372  1  0.26374259  0.62714658  0.25318385  1
  O  O373  1  0.25529542  0.61828764  0.75386966  1
  O  O374  1  0.75396133  0.12038267  0.25626801  1
  O  O375  1  0.75637549  0.12571616  0.75624322  1
  O  O376  1  0.75626864  0.61962770  0.25427040  1
  O  O377  1  0.75786964  0.61736515  0.74988250  1
  O  O378  1  0.37451314  0.11736180  0.36698508  1
  O  O379  1  0.35958606  0.12799336  0.87804251  1
  O  O380  1  0.37741343  0.61859717  0.36784686  1
  O  O381  1  0.37064703  0.61900691  0.86810665  1
  O  O382  1  0.86815336  0.11853301  0.37066613  1
  O  O383  1  0.86986536  0.11958064  0.87103188  1
  O  O384  1  0.87057123  0.62015492  0.36926192  1
  O  O385  1  0.87567875  0.61579676  0.86764325  1
  O  O386  1  0.12609072  0.37254586  0.13827282  1
  O  O387  1  0.13360246  0.38066258  0.63077907  1
  O  O388  1  0.12464453  0.88830331  0.12088152  1
  O  O389  1  0.13007322  0.88240236  0.63018649  1
  O  O390  1  0.63125244  0.38070375  0.13053135  1
  O  O391  1  0.62471630  0.38019512  0.63416493  1
  O  O392  1  0.63077695  0.88636022  0.12530953  1
  O  O393  1  0.63629820  0.87799176  0.62127463  1
  O  O394  1  0.12333569  0.26129394  0.25162181  1
  O  O395  1  0.11921853  0.25562573  0.75560727  1
  O  O396  1  0.12021970  0.74348187  0.26265909  1
  O  O397  1  0.11955529  0.75657959  0.75141137  1
  O  O398  1  0.61776956  0.25363577  0.25465191  1
  O  O399  1  0.61931989  0.26091111  0.75044763  1
  O  O400  1  0.62041031  0.75159444  0.25671209  1
  O  O401  1  0.62051770  0.75556790  0.75235371  1
  O  O402  1  0.38118101  0.24341658  0.25435910  1
  O  O403  1  0.38735130  0.25578724  0.75165820  1
  O  O404  1  0.38285288  0.74046871  0.25311068  1
  O  O405  1  0.37725471  0.74211994  0.74244485  1
  O  O406  1  0.87287553  0.24306608  0.24280794  1
  O  O407  1  0.88190371  0.24361137  0.74768680  1
  O  O408  1  0.88163795  0.74357258  0.24454519  1
  O  O409  1  0.88327927  0.74092753  0.74768641  1
  O  O410  1  0.37952003  0.49367623  0.49283148  1
  O  O411  1  0.38393623  0.50163067  0.99191475  1
  O  O412  1  0.36709274  1.00058478  0.48537830  1
  O  O413  1  0.38894136  1.00400156  1.00946270  1
  O  O414  1  0.87904308  0.49227870  0.49591795  1
  O  O415  1  0.88054925  0.49295704  0.99383579  1
  O  O416  1  0.87704700  0.99313270  0.49087577  1
  O  O417  1  0.88097603  0.99342268  0.99613338  1
  O  O418  1  0.11875093  0.00441729  0.00850613  1
  O  O419  1  0.12575710  0.00070853  0.51494371  1
  O  O420  1  0.11891769  0.51155519  -0.00691339  1
  O  O421  1  0.12146499  0.50421949  0.50397846  1
  O  O422  1  0.61661627  0.00512581  0.00848776  1
  O  O423  1  0.62757753  0.01578532  0.49961909  1
  O  O424  1  0.62070522  0.50484423  0.00548808  1
  O  O425  1  0.62094390  0.50391571  0.50401739  1
  O  O426  1  0.36819272  0.37035176  0.12132572  1
  O  O427  1  0.36447073  0.38424695  0.61465338  1
  O  O428  1  0.37098509  0.87158395  0.11991981  1
  O  O429  1  0.37052594  0.86929508  0.62433681  1
  O  O430  1  0.86919815  0.36946930  0.11962263  1
  O  O431  1  0.87270484  0.37223611  0.61226255  1
  O  O432  1  0.87104777  0.86965061  0.11953508  1
  O  O433  1  0.86804566  0.87335968  0.61672965  1
  O  O434  1  0.12850853  0.12752347  0.38123383  1
  O  O435  1  0.12725328  0.13084355  0.88226477  1
  O  O436  1  0.12596216  0.63583970  0.38146740  1
  O  O437  1  0.13212965  0.62674728  0.88431952  1
  O  O438  1  0.62822835  0.13093559  0.38307898  1
  O  O439  1  0.63107897  0.12457645  0.88130344  1
  O  O440  1  0.63147031  0.62919734  0.37984841  1
  O  O441  1  0.62814021  0.62665527  0.88386817  1
