# generated using pymatgen
data_V93Zn93O256
_symmetry_space_group_name_H-M   'P 1'
_cell_length_a   17.04813134
_cell_length_b   17.05110347
_cell_length_c   17.04950954
_cell_angle_alpha   90.01073669
_cell_angle_beta   90.02375386
_cell_angle_gamma   89.99025944
_symmetry_Int_Tables_number   1
_chemical_formula_structural   V93Zn93O256
_chemical_formula_sum   'V93 Zn93 O256'
_cell_volume   4956.11198909
_cell_formula_units_Z   1
loop_
 _symmetry_equiv_pos_site_id
 _symmetry_equiv_pos_as_xyz
  1  'x, y, z'
loop_
 _atom_site_type_symbol
 _atom_site_label
 _atom_site_symmetry_multiplicity
 _atom_site_fract_x
 _atom_site_fract_y
 _atom_site_fract_z
 _atom_site_occupancy
  V  V0  1  0.87735566  0.37478993  0.00059865  1
  V  V1  1  0.37525203  -0.00058936  0.37420723  1
  V  V2  1  0.00115306  0.87347172  0.87362222  1
  V  V3  1  0.24822274  0.62602527  0.37468436  1
  V  V4  1  0.87383820  0.87351953  0.00097075  1
  V  V5  1  0.24965539  0.37157037  0.61975178  1
  V  V6  1  0.75030530  0.00053717  0.75185826  1
  V  V7  1  0.00153194  0.37491266  0.87624765  1
  V  V8  1  -0.00045185  0.75162997  0.24978127  1
  V  V9  1  0.75042180  0.12526553  0.37702834  1
  V  V10  1  0.88198440  0.37957516  0.50098035  1
  V  V11  1  0.37650901  0.25007872  0.12439956  1
  V  V12  1  0.25000944  0.12841978  0.38106269  1
  V  V13  1  0.50104224  0.50174107  -0.00046540  1
  V  V14  1  0.37501590  0.62591744  0.24848901  1
  V  V15  1  0.12889224  0.24972669  0.38254840  1
  V  V16  1  0.25209885  0.24954287  -0.00042424  1
  V  V17  1  0.74932489  0.62589013  0.37705444  1
  V  V18  1  0.62567573  0.37520851  0.25146493  1
  V  V19  1  0.62473539  0.00021674  0.12477621  1
  V  V20  1  0.37471090  0.50279621  0.86816020  1
  V  V21  1  0.75054319  0.50024649  0.25146379  1
  V  V22  1  0.37545421  0.37523998  -0.00148603  1
  V  V23  1  0.74699802  0.87528792  0.62566209  1
  V  V24  1  -0.00082644  0.87621954  0.37437485  1
  V  V25  1  0.62092977  0.75543033  0.87588126  1
  V  V26  1  0.37563235  0.12452515  0.24949849  1
  V  V27  1  0.24482762  0.00143261  0.24527159  1
  V  V28  1  -0.00009484  0.62496898  0.12455487  1
  V  V29  1  0.87478630  0.62520284  0.25128621  1
  V  V30  1  0.87706674  0.24781023  0.62758628  1
  V  V31  1  0.62454287  -0.00039560  0.62605033  1
  V  V32  1  0.37348121  0.87460964  0.49956113  1
  V  V33  1  0.37416644  0.37320280  0.49947995  1
  V  V34  1  0.49378055  0.62416584  0.63064803  1
  V  V35  1  0.62617230  0.24953843  0.87674229  1
  V  V36  1  0.74776910  0.75016804  0.50153442  1
  V  V37  1  0.62624201  0.12499739  0.50075116  1
  V  V38  1  0.12458015  0.75017954  0.87283281  1
  V  V39  1  0.62565341  0.37452043  0.74950962  1
  V  V40  1  0.37744694  0.87578042  -0.00830275  1
  V  V41  1  0.12596588  0.37706162  0.75037423  1
  V  V42  1  0.37106533  0.74514670  0.62779023  1
  V  V43  1  0.37222169  0.24933838  0.62081325  1
  V  V44  1  0.49954088  0.75154690  0.25066419  1
  V  V45  1  0.74905437  0.50092219  0.75196145  1
  V  V46  1  0.75073316  0.24953331  0.00113900  1
  V  V47  1  0.62523375  0.50064684  0.12388457  1
  V  V48  1  0.49666682  0.75593776  0.75145821  1
  V  V49  1  0.49919309  0.12513235  0.62505010  1
  V  V50  1  0.62292654  0.62572613  0.50087916  1
  V  V51  1  0.12502975  0.62453637  -0.00141458  1
  V  V52  1  0.37445737  0.49980232  0.37370708  1
  V  V53  1  0.12565891  0.75008612  0.37419915  1
  V  V54  1  0.12638563  0.49895777  0.12475158  1
  V  V55  1  0.49990943  -0.00276966  -0.00682741  1
  V  V56  1  0.87436487  0.62548585  0.75110402  1
  V  V57  1  0.87485124  0.75105243  0.62631813  1
  V  V58  1  0.24179857  0.87859129  0.62309207  1
  V  V59  1  0.11864955  0.50191196  0.61689076  1
  V  V60  1  0.49938257  -0.00069028  0.50004629  1
  V  V61  1  0.75006128  0.00035191  0.25101189  1
  V  V62  1  0.87764687  0.24891861  0.12708466  1
  V  V63  1  0.25348145  0.62405125  0.86757616  1
  V  V64  1  0.49974334  0.50111851  0.50012798  1
  V  V65  1  0.87544985  0.12627298  0.25140605  1
  V  V66  1  0.24444424  0.87928216  0.12269650  1
  V  V67  1  0.87557923  0.00014639  0.37651951  1
  V  V68  1  0.25072754  0.37536742  0.12466467  1
  V  V69  1  0.75185380  0.37527444  0.12661487  1
  V  V70  1  0.50128622  0.12430560  0.12493791  1
  V  V71  1  0.12500926  0.11855713  0.00726167  1
  V  V72  1  0.00195235  0.25204027  0.25318466  1
  V  V73  1  0.50115731  0.25062997  0.25048265  1
  V  V74  1  0.87610095  0.00052535  0.87807089  1
  V  V75  1  0.00696648  0.00010409  0.50331630  1
  V  V76  1  0.87340778  0.74993811  0.12473645  1
  V  V77  1  0.37433902  0.75026098  0.12410580  1
  V  V78  1  0.75057054  0.87404359  0.12537060  1
  V  V79  1  0.00024677  0.49883649  0.00025844  1
  V  V80  1  0.62356938  0.87476216  0.25019180  1
  V  V81  1  0.25356107  0.12279782  0.87325694  1
  V  V82  1  0.00673354  0.12069670  0.62612268  1
  V  V83  1  0.25076581  0.49982526  0.24771881  1
  V  V84  1  0.75048498  0.24959729  0.50077489  1
  V  V85  1  0.50088548  0.37530911  0.37508015  1
  V  V86  1  0.12352079  0.87838555  0.24637217  1
  V  V87  1  0.25034000  0.74999573  -0.00150694  1
  V  V88  1  0.50018954  0.24985360  0.74970795  1
  V  V89  1  0.74993570  0.37501748  0.62563784  1
  V  V90  1  0.12664410  0.25085893  0.87510563  1
  V  V91  1  0.24299626  -0.00044723  0.74603834  1
  V  V92  1  0.88254762  0.50071917  0.38065644  1
  Zn  Zn93  1  0.50170681  0.62581421  0.12426595  1
  Zn  Zn94  1  0.62392248  0.75134474  0.37569711  1
  Zn  Zn95  1  0.12662552  0.37469424  0.25186850  1
  Zn  Zn96  1  0.62704349  0.12361495  0.00072449  1
  Zn  Zn97  1  0.24695915  0.74778166  0.50051424  1
  Zn  Zn98  1  0.38042784  -0.00506320  0.86792861  1
  Zn  Zn99  1  0.74791777  0.62586162  0.87756886  1
  Zn  Zn100  1  0.25476386  0.50398888  0.74477550  1
  Zn  Zn101  1  0.87554337  0.50108078  0.87628650  1
  Zn  Zn102  1  0.00686258  0.37918732  0.38003049  1
  Zn  Zn103  1  0.49975635  0.87545191  0.37550600  1
  Zn  Zn104  1  -0.00590951  0.61908965  0.61839184  1
  Zn  Zn105  1  0.00071126  0.24698587  0.75149692  1
  Zn  Zn106  1  0.00678505  0.11790431  0.13186155  1
  Zn  Zn107  1  0.87409404  0.87567360  0.50032330  1
  Zn  Zn108  1  0.62275272  0.50070579  0.62621045  1
  Zn  Zn109  1  0.75318495  0.12507152  0.87830367  1
  Zn  Zn110  1  0.87820736  0.12502980  0.75308055  1
  Zn  Zn111  1  0.13123784  0.12478884  0.50639476  1
  Zn  Zn112  1  0.61667247  0.88006249  0.75543753  1
  Zn  Zn113  1  0.62605022  0.25084512  0.37637810  1
  Zn  Zn114  1  0.37446622  0.12329645  0.74845257  1
  Zn  Zn115  1  0.74782358  0.74729962  -0.00123173  1
  Zn  Zn116  1  0.11732958  0.62228255  0.49356445  1
  Zn  Zn117  1  0.12057657  0.87613384  0.74318892  1
  Zn  Zn118  1  0.49845883  0.37550894  0.87317819  1
  Zn  Zn119  1  0.62748947  0.62549223  -0.00093896  1
  Zn  Zn120  1  0.00178886  0.74694504  0.74804895  1
  Zn  Zn121  1  0.00717263  -0.00528635  0.00841807  1
  Zn  Zn122  1  0.18915457  0.19008364  0.19079427  1
  Zn  Zn123  1  0.18836638  0.18938845  0.68928766  1
  Zn  Zn124  1  0.18734534  0.68918418  0.18708587  1
  Zn  Zn125  1  0.18592192  0.68930920  0.68772182  1
  Zn  Zn126  1  0.68787146  0.18781178  0.18809500  1
  Zn  Zn127  1  0.68900710  0.18559520  0.68895455  1
  Zn  Zn128  1  0.68605586  0.68629189  0.18688879  1
  Zn  Zn129  1  0.68280248  0.68743888  0.68919376  1
  Zn  Zn130  1  0.31270589  0.31210800  0.31186592  1
  Zn  Zn131  1  0.31289498  0.31400389  0.80945083  1
  Zn  Zn132  1  0.31182246  0.81353624  0.31195598  1
  Zn  Zn133  1  0.30987895  0.81140221  0.80757977  1
  Zn  Zn134  1  0.81406546  0.31374707  0.31580697  1
  Zn  Zn135  1  0.81294437  0.31402962  0.81417028  1
  Zn  Zn136  1  0.81183411  0.81289731  0.31350747  1
  Zn  Zn137  1  0.80814407  0.81346992  0.81311634  1
  Zn  Zn138  1  0.18970697  0.43583398  0.43649614  1
  Zn  Zn139  1  0.18943715  0.43897552  0.93785901  1
  Zn  Zn140  1  0.18795843  0.93759146  0.43474824  1
  Zn  Zn141  1  0.19002097  0.93803605  0.93304567  1
  Zn  Zn142  1  0.68948728  0.43900764  0.43927120  1
  Zn  Zn143  1  0.68831010  0.43544242  0.93729314  1
  Zn  Zn144  1  0.68616211  0.93582629  0.43732958  1
  Zn  Zn145  1  0.68689655  0.93404856  0.93859816  1
  Zn  Zn146  1  0.31504494  0.06158289  0.06093160  1
  Zn  Zn147  1  0.31360187  0.06001593  0.56356058  1
  Zn  Zn148  1  0.31390845  0.56368663  0.05926910  1
  Zn  Zn149  1  0.30731521  0.56042202  0.55882837  1
  Zn  Zn150  1  0.81404830  0.06374182  0.06402699  1
  Zn  Zn151  1  0.81635683  0.06164524  0.56319806  1
  Zn  Zn152  1  0.81148530  0.56347274  0.06138330  1
  Zn  Zn153  1  0.81038668  0.56281148  0.56399623  1
  Zn  Zn154  1  0.43836490  0.43747251  0.18626660  1
  Zn  Zn155  1  0.43894666  0.43514153  0.68717646  1
  Zn  Zn156  1  0.43510555  0.93697948  0.18307964  1
  Zn  Zn157  1  0.43060137  0.93647055  0.68542061  1
  Zn  Zn158  1  0.93830142  0.43732118  0.18986823  1
  Zn  Zn159  1  0.93750084  0.43620447  0.68996597  1
  Zn  Zn160  1  0.93763264  0.94076872  0.18568678  1
  Zn  Zn161  1  0.93597508  0.93766776  0.68803479  1
  Zn  Zn162  1  0.06330273  0.06435759  0.31611436  1
  Zn  Zn163  1  0.06291036  0.06246071  0.81455540  1
  Zn  Zn164  1  0.06332635  0.56341554  0.30953585  1
  Zn  Zn165  1  0.06207585  0.56165409  0.80943849  1
  Zn  Zn166  1  0.56352410  0.06265238  0.31381459  1
  Zn  Zn167  1  0.56394610  0.06672280  0.81205955  1
  Zn  Zn168  1  0.56265494  0.56422470  0.31256705  1
  Zn  Zn169  1  0.56287188  0.56693857  0.81396983  1
  Zn  Zn170  1  0.43822445  0.18723406  0.43734208  1
  Zn  Zn171  1  0.44057667  0.18550211  0.93773664  1
  Zn  Zn172  1  0.43496774  0.68778934  0.43876712  1
  Zn  Zn173  1  0.43781570  0.68681083  0.93547290  1
  Zn  Zn174  1  0.94010277  0.18762232  0.43987644  1
  Zn  Zn175  1  0.94041709  0.18838807  0.93866042  1
  Zn  Zn176  1  0.93952325  0.68685342  0.44128869  1
  Zn  Zn177  1  0.93634963  0.68784773  0.93676946  1
  Zn  Zn178  1  0.06461074  0.30872560  0.06395070  1
  Zn  Zn179  1  0.06242908  0.31016006  0.56430107  1
  Zn  Zn180  1  0.06161502  0.81122688  0.05997189  1
  Zn  Zn181  1  0.05937248  0.80883758  0.55734171  1
  Zn  Zn182  1  0.56290101  0.31526212  0.06219552  1
  Zn  Zn183  1  0.56233870  0.31247159  0.56299999  1
  Zn  Zn184  1  0.56146772  0.81424173  0.06237565  1
  Zn  Zn185  1  0.56083485  0.81264172  0.56437683  1
  O  O186  1  0.13065587  0.13075913  0.10971306  1
  O  O187  1  0.11176727  0.13535546  0.62284330  1
  O  O188  1  0.11996445  0.62040443  0.11890120  1
  O  O189  1  0.12789612  0.60706495  0.62869614  1
  O  O190  1  0.61931935  0.11804142  0.12509333  1
  O  O191  1  0.61963277  0.11955566  0.62022191  1
  O  O192  1  0.62213775  0.61559714  0.12204521  1
  O  O193  1  0.61235393  0.62400063  0.61879857  1
  O  O194  1  0.38009793  0.37979774  0.37927819  1
  O  O195  1  0.37453630  0.38334146  0.88145147  1
  O  O196  1  0.37449811  0.88207290  0.38101749  1
  O  O197  1  0.36690247  0.87427978  0.88867742  1
  O  O198  1  0.87543099  0.38414108  0.38483244  1
  O  O199  1  0.88320725  0.37594350  0.88264839  1
  O  O200  1  0.88165344  0.88190375  0.37530784  1
  O  O201  1  0.88162007  0.88049677  0.87968529  1
  O  O202  1  0.25560206  0.00743667  0.36414039  1
  O  O203  1  0.25419043  0.00850593  0.86657055  1
  O  O204  1  0.25561010  0.50458469  0.36750315  1
  O  O205  1  0.25785085  0.50779825  0.87539131  1
  O  O206  1  0.75494998  0.00539848  0.37068365  1
  O  O207  1  0.75760885  -0.00132673  0.86871706  1
  O  O208  1  0.75944613  0.50605169  0.37050189  1
  O  O209  1  0.75272121  0.49880515  0.86248781  1
  O  O210  1  0.24633574  0.49561341  0.12749237  1
  O  O211  1  0.24218625  0.48952134  0.62766237  1
  O  O212  1  0.25687683  0.99126633  0.13444736  1
  O  O213  1  0.25462952  0.99023383  0.63308539  1
  O  O214  1  0.74639217  0.49385894  0.13182266  1
  O  O215  1  0.74801828  0.49407386  0.63633098  1
  O  O216  1  0.74560090  0.99453890  0.13173486  1
  O  O217  1  0.74609861  0.99650585  0.63276014  1
  O  O218  1  0.00179836  0.36294480  0.25336645  1
  O  O219  1  0.01054459  0.37317250  0.75648775  1
  O  O220  1  0.00442793  0.87108424  0.25394087  1
  O  O221  1  0.00060823  0.87499936  0.76246671  1
  O  O222  1  0.50523270  0.37059738  0.25523026  1
  O  O223  1  0.50776574  0.36770594  0.75112666  1
  O  O224  1  0.50324577  0.86706729  0.24833053  1
  O  O225  1  0.49914720  0.86118652  0.74129821  1
  O  O226  1  0.49491587  0.12990619  0.24526582  1
  O  O227  1  0.49722464  0.13153978  0.74251790  1
  O  O228  1  0.49340165  0.63426853  0.24850378  1
  O  O229  1  0.50271917  0.63349773  0.73597725  1
  O  O230  1  0.99479186  0.13534654  0.25293425  1
  O  O231  1  0.99859888  0.12559731  0.74162335  1
  O  O232  1  0.99411993  0.63141037  0.24352318  1
  O  O233  1  0.98727233  0.62474226  0.74381935  1
  O  O234  1  0.37168883  0.25438197  0.00494466  1
  O  O235  1  0.38292225  0.25686506  0.51314394  1
  O  O236  1  0.37103333  0.75715776  0.00358240  1
  O  O237  1  0.37210879  0.75611395  0.50974687  1
  O  O238  1  0.87180089  0.25517107  0.00681144  1
  O  O239  1  0.87029523  0.25724331  0.50928682  1
  O  O240  1  0.87428546  0.75586627  0.00763368  1
  O  O241  1  0.86654790  0.75082457  0.51159720  1
  O  O242  1  0.12009923  0.24739186  0.48628259  1
  O  O243  1  0.13365796  0.24176329  0.99406398  1
  O  O244  1  0.12781415  0.74874057  0.48759206  1
  O  O245  1  0.13079826  0.74356219  0.99335988  1
  O  O246  1  0.63221697  0.24329872  0.50054531  1
  O  O247  1  0.63079255  0.25190433  0.99217901  1
  O  O248  1  0.62927307  0.74395448  0.49926864  1
  O  O249  1  0.62004234  0.74940003  0.98770220  1
  O  O250  1  0.49566742  0.24571836  0.13010975  1
  O  O251  1  0.49306370  0.24512376  0.63013942  1
  O  O252  1  0.49343996  0.74987762  0.13497538  1
  O  O253  1  0.49070815  0.74258171  0.62994985  1
  O  O254  1  0.99680007  0.24548586  0.13627632  1
  O  O255  1  0.99073510  0.24212222  0.62626635  1
  O  O256  1  0.99462291  0.74464921  0.13015496  1
  O  O257  1  0.98493102  0.75293140  0.62840666  1
  O  O258  1  0.00834052  0.25092736  0.36788474  1
  O  O259  1  0.00835730  0.25692333  0.87343978  1
  O  O260  1  0.00382492  0.75647975  0.36789135  1
  O  O261  1  0.00436476  0.75853365  0.87319129  1
  O  O262  1  0.50118358  0.25689243  0.36846460  1
  O  O263  1  0.50898625  0.25106338  0.86978044  1
  O  O264  1  0.49838320  0.75179622  0.36190793  1
  O  O265  1  0.50699894  0.74221092  0.86229542  1
  O  O266  1  0.24942390  0.11588274  0.48509101  1
  O  O267  1  0.24443985  0.12896013  0.99286695  1
  O  O268  1  0.24270263  0.62557112  0.48895020  1
  O  O269  1  0.24415522  0.63079677  0.99162464  1
  O  O270  1  0.74595120  0.12917324  0.49697660  1
  O  O271  1  0.74759638  0.13386900  0.99942238  1
  O  O272  1  0.74280779  0.63004986  0.49702938  1
  O  O273  1  0.74698689  0.62895037  0.99608452  1
  O  O274  1  0.25570474  0.36906889  0.00494632  1
  O  O275  1  0.25796715  0.37882950  0.51177394  1
  O  O276  1  0.25541117  0.87134695  0.00589146  1
  O  O277  1  0.25581925  0.87623882  0.50688835  1
  O  O278  1  0.75736439  0.37029455  0.00718421  1
  O  O279  1  0.75869988  0.36974555  0.50636915  1
  O  O280  1  0.75623445  0.87148896  0.00829872  1
  O  O281  1  0.75093315  0.86907236  0.50752451  1
  O  O282  1  0.13232519  0.49830921  0.24200631  1
  O  O283  1  0.12873346  0.48864867  0.74235647  1
  O  O284  1  0.13779762  0.99576090  0.25555855  1
  O  O285  1  0.13843962  0.99629336  0.75598561  1
  O  O286  1  0.63063766  0.49480082  0.24540209  1
  O  O287  1  0.63289898  0.49436627  0.75006277  1
  O  O288  1  0.63029788  0.99537766  0.24460918  1
  O  O289  1  0.63265220  1.00023806  0.74578284  1
  O  O290  1  0.36647960  0.00498310  0.25349679  1
  O  O291  1  0.36356079  0.00281594  0.75180202  1
  O  O292  1  0.37085137  0.50542585  0.25405262  1
  O  O293  1  0.37453587  0.49316318  0.76426513  1
  O  O294  1  0.86873783  0.00629270  0.25706757  1
  O  O295  1  0.86701375  -0.00081272  0.76142870  1
  O  O296  1  0.86959221  0.50528304  0.25811068  1
  O  O297  1  0.86650407  0.50775550  0.74932665  1
  O  O298  1  0.12553214  0.36597707  0.37249836  1
  O  O299  1  0.12329704  0.37166103  0.86835109  1
  O  O300  1  0.11937041  0.87019642  0.36605560  1
  O  O301  1  0.11546108  0.86886157  0.87728913  1
  O  O302  1  0.61932713  0.37508903  0.36964623  1
  O  O303  1  0.62424108  0.36365009  0.86893161  1
  O  O304  1  0.62089838  0.87258077  0.36619429  1
  O  O305  1  0.62427473  0.86153486  0.87343134  1
  O  O306  1  0.38045288  0.13060612  0.12990758  1
  O  O307  1  0.37932153  0.13454268  0.62401176  1
  O  O308  1  0.37539302  0.63256106  0.13025156  1
  O  O309  1  0.38123486  0.63397451  0.61641278  1
  O  O310  1  0.87517055  0.13345740  0.13450120  1
  O  O311  1  0.88386377  0.13439256  0.62624225  1
  O  O312  1  0.88075435  0.62937116  0.13175565  1
  O  O313  1  0.87162129  0.63397367  0.63387663  1
  O  O314  1  0.25782481  0.25500043  0.12035341  1
  O  O315  1  0.25999215  0.25972711  0.62927330  1
  O  O316  1  0.25450678  0.75852955  0.11852038  1
  O  O317  1  0.25704032  0.75600154  0.62415888  1
  O  O318  1  0.75647432  0.25669600  0.12197710  1
  O  O319  1  0.75900285  0.25363412  0.62134024  1
  O  O320  1  0.75618113  0.75666607  0.12623045  1
  O  O321  1  0.75478847  0.75477206  0.62232405  1
  O  O322  1  0.24248148  0.23865905  0.36635176  1
  O  O323  1  0.24691042  0.24272045  0.87892920  1
  O  O324  1  0.24354823  0.74392661  0.37251555  1
  O  O325  1  0.24605820  0.74257954  0.87928155  1
  O  O326  1  0.75017132  0.24336452  0.38267374  1
  O  O327  1  0.74273364  0.25013757  0.88124557  1
  O  O328  1  0.74974976  0.74310766  0.38245125  1
  O  O329  1  0.73509388  0.74934471  0.87479757  1
  O  O330  1  0.01888763  0.12683252  -0.00084163  1
  O  O331  1  0.00104806  0.11658123  0.50845619  1
  O  O332  1  0.00478799  0.61946225  0.00508669  1
  O  O333  1  0.00500185  0.62641831  0.50667619  1
  O  O334  1  0.50183203  0.11563961  0.00795153  1
  O  O335  1  0.50572810  0.11925436  0.50550171  1
  O  O336  1  0.49979907  0.61145655  0.00208357  1
  O  O337  1  0.50288831  0.62032997  0.50744543  1
  O  O338  1  0.49483646  0.38114831  0.49516573  1
  O  O339  1  0.49413126  0.38536725  0.99784426  1
  O  O340  1  0.49208458  0.88167138  0.49990699  1
  O  O341  1  0.48777222  0.88570028  1.00811132  1
  O  O342  1  0.98523155  0.37012423  0.50000043  1
  O  O343  1  0.99736426  0.37884151  0.99660540  1
  O  O344  1  0.99680960  0.88349688  0.49333392  1
  O  O345  1  0.99410032  0.87486554  0.98970839  1
  O  O346  1  0.49352282  0.49507314  0.37926108  1
  O  O347  1  0.49238144  0.49988980  0.88210052  1
  O  O348  1  0.49256713  1.00017136  0.38128768  1
  O  O349  1  0.49912184  1.00774328  0.88840024  1
  O  O350  1  0.98633563  0.49855864  0.36772554  1
  O  O351  1  1.00019576  0.49323359  0.88255497  1
  O  O352  1  0.99461543  0.99602855  0.38159525  1
  O  O353  1  0.99200426  0.99144800  0.87896921  1
  O  O354  1  -0.00260394  0.00616565  0.11988361  1
  O  O355  1  -0.00752265  0.00887455  0.61646127  1
  O  O356  1  0.00589557  0.50534206  0.12094373  1
  O  O357  1  0.01603362  0.49583855  0.62958926  1
  O  O358  1  0.50460399  0.00531765  0.11749753  1
  O  O359  1  0.50343956  0.00555267  0.62023322  1
  O  O360  1  0.50561993  0.49945606  0.11554142  1
  O  O361  1  0.49743377  0.50857915  0.61945967  1
  O  O362  1  0.25153273  0.38219175  0.24201720  1
  O  O363  1  0.24105112  0.37643738  0.73978319  1
  O  O364  1  0.24560925  0.88268072  0.24117389  1
  O  O365  1  0.24782249  0.88262664  0.74077111  1
  O  O366  1  0.74632189  0.38032388  0.24633054  1
  O  O367  1  0.74654029  0.38235986  0.74515553  1
  O  O368  1  0.74462110  0.88120275  0.24541859  1
  O  O369  1  0.74710185  0.88781523  0.74506235  1
  O  O370  1  0.25570996  0.11778965  0.25570317  1
  O  O371  1  0.24959596  0.11829971  0.75698755  1
  O  O372  1  0.25588914  0.61971517  0.25333120  1
  O  O373  1  0.24543911  0.62344611  0.76433049  1
  O  O374  1  0.75501843  0.11994446  0.25683705  1
  O  O375  1  0.75401809  0.11164577  0.75241796  1
  O  O376  1  0.75565280  0.61985994  0.25609537  1
  O  O377  1  0.75642954  0.61583014  0.74924260  1
  O  O378  1  0.36827157  0.12122479  0.36921332  1
  O  O379  1  0.36198528  0.12630583  0.87396831  1
  O  O380  1  0.36895749  0.61924472  0.36880061  1
  O  O381  1  0.36395427  0.61501343  0.88214845  1
  O  O382  1  0.86964315  0.12060103  0.37119575  1
  O  O383  1  0.87604790  0.11381064  0.87533695  1
  O  O384  1  0.86989623  0.61853350  0.37130269  1
  O  O385  1  0.87229200  0.62384561  0.86296201  1
  O  O386  1  0.13330334  0.38058460  0.12557255  1
  O  O387  1  0.13111618  0.37980135  0.62987126  1
  O  O388  1  0.13778809  0.86908462  0.12801743  1
  O  O389  1  0.13827093  0.86594952  0.62312651  1
  O  O390  1  0.63206753  0.38047058  0.13175935  1
  O  O391  1  0.63195139  0.37615458  0.63142174  1
  O  O392  1  0.63062528  0.88073010  0.13086506  1
  O  O393  1  0.62998909  0.88285227  0.62781585  1
  O  O394  1  0.11727652  0.25045270  0.25912562  1
  O  O395  1  0.12505521  0.26239966  0.75551758  1
  O  O396  1  0.11844396  0.75747495  0.25332441  1
  O  O397  1  0.12121741  0.75399418  0.75758619  1
  O  O398  1  0.61901399  0.25724680  0.25199267  1
  O  O399  1  0.62201549  0.25399195  0.75737000  1
  O  O400  1  0.61470618  0.75528946  0.24969133  1
  O  O401  1  0.61550580  0.75301546  0.75808710  1
  O  O402  1  0.38142169  0.24453919  0.24387266  1
  O  O403  1  0.38096084  0.25020293  0.73800910  1
  O  O404  1  0.38104479  0.74682525  0.24418709  1
  O  O405  1  0.38088095  0.75330794  0.73669183  1
  O  O406  1  0.88311031  0.24659799  0.24818108  1
  O  O407  1  0.87553803  0.24997795  0.73855565  1
  O  O408  1  0.88031731  0.74467785  0.24520314  1
  O  O409  1  0.87111442  0.74174026  0.74252363  1
  O  O410  1  0.38000736  0.49368491  0.49271213  1
  O  O411  1  0.38239527  0.49471554  0.99235011  1
  O  O412  1  0.38080242  0.99471578  0.49454825  1
  O  O413  1  0.38255877  0.99219909  0.99786541  1
  O  O414  1  0.86780602  0.49151809  0.49219771  1
  O  O415  1  0.88277917  0.49272432  1.00038144  1
  O  O416  1  0.88474723  0.99829151  0.49353922  1
  O  O417  1  0.87302994  0.99312319  0.98970327  1
  O  O418  1  0.12891092  0.01571823  -0.00574677  1
  O  O419  1  0.11068341  0.00257081  0.49292961  1
  O  O420  1  0.12029517  0.50518638  0.00563200  1
  O  O421  1  0.12836209  0.49661601  0.51451736  1
  O  O422  1  0.61671567  -0.00097759  0.00623866  1
  O  O423  1  0.61985780  0.00554088  0.50643676  1
  O  O424  1  0.61579009  0.49712216  0.00418387  1
  O  O425  1  0.61770283  0.50640380  0.50246481  1
  O  O426  1  0.37058672  0.36938775  0.11873509  1
  O  O427  1  0.36829989  0.36893871  0.62059142  1
  O  O428  1  0.36298012  0.87011635  0.11571101  1
  O  O429  1  0.36392758  0.86554716  0.61818284  1
  O  O430  1  0.87130315  0.36914607  0.12101578  1
  O  O431  1  0.87106994  0.36819579  0.61967527  1
  O  O432  1  0.86978456  0.86902179  0.12124548  1
  O  O433  1  0.86611234  0.86582848  0.62652305  1
  O  O434  1  0.13494467  0.13283328  0.37592661  1
  O  O435  1  0.13625761  0.13063923  0.88212384  1
  O  O436  1  0.13110000  0.63212261  0.37011901  1
  O  O437  1  0.13148802  0.62895360  0.87988101  1
  O  O438  1  0.63231734  0.12632531  0.38272947  1
  O  O439  1  0.62883293  0.13881219  0.87747066  1
  O  O440  1  0.63149400  0.62680683  0.38183564  1
  O  O441  1  0.62687860  0.63779226  0.87675690  1
