# generated using pymatgen
data_V93Zn93O256
_symmetry_space_group_name_H-M   'P 1'
_cell_length_a   17.04695118
_cell_length_b   17.04651097
_cell_length_c   17.04669683
_cell_angle_alpha   89.96439807
_cell_angle_beta   89.96535415
_cell_angle_gamma   89.94937056
_symmetry_Int_Tables_number   1
_chemical_formula_structural   V93Zn93O256
_chemical_formula_sum   'V93 Zn93 O256'
_cell_volume   4953.61357051
_cell_formula_units_Z   1
loop_
 _symmetry_equiv_pos_site_id
 _symmetry_equiv_pos_as_xyz
  1  'x, y, z'
loop_
 _atom_site_type_symbol
 _atom_site_label
 _atom_site_symmetry_multiplicity
 _atom_site_fract_x
 _atom_site_fract_y
 _atom_site_fract_z
 _atom_site_occupancy
  V  V0  1  0.12511752  0.62586004  0.50077444  1
  V  V1  1  0.75149644  0.62267264  0.37405602  1
  V  V2  1  0.25931152  0.62597287  0.87073848  1
  V  V3  1  0.74836174  0.37907246  0.11877750  1
  V  V4  1  0.00054340  0.12507603  0.12392973  1
  V  V5  1  0.49783472  0.37641701  0.87456399  1
  V  V6  1  0.12548675  0.87649676  0.25222579  1
  V  V7  1  0.87714769  0.87455630  0.00017586  1
  V  V8  1  0.37669897  0.62157369  0.25381097  1
  V  V9  1  0.12254506  0.00138999  0.62678596  1
  V  V10  1  0.24917074  0.37617021  0.62602278  1
  V  V11  1  -0.00038853  0.87498294  0.37636588  1
  V  V12  1  -0.00205675  0.25924984  0.75412869  1
  V  V13  1  0.50055684  0.87401119  0.87667279  1
  V  V14  1  0.12329749  0.12696925  0.50039936  1
  V  V15  1  0.86933041  0.25546223  0.62499062  1
  V  V16  1  0.00048333  0.74990564  0.25043464  1
  V  V17  1  0.87406393  0.25031939  0.12360716  1
  V  V18  1  0.25109123  0.87426736  0.12654679  1
  V  V19  1  0.74830298  0.49991095  0.74815333  1
  V  V20  1  0.24887489  0.12652034  0.87545887  1
  V  V21  1  0.25411715  0.62099100  0.37698408  1
  V  V22  1  0.24898330  0.87510926  0.62526059  1
  V  V23  1  0.49401232  0.37827213  0.37263867  1
  V  V24  1  0.37517524  -0.00063386  0.87588043  1
  V  V25  1  -0.00175645  0.00072722  0.50126352  1
  V  V26  1  0.74929984  0.24931895  -0.00164421  1
  V  V27  1  0.50022340  0.12441664  0.12472024  1
  V  V28  1  0.25847698  0.50375772  0.75040941  1
  V  V29  1  0.12674225  0.50025726  0.12628278  1
  V  V30  1  0.25222855  0.37537499  0.12499651  1
  V  V31  1  0.49479448  0.49979680  0.49414965  1
  V  V32  1  0.12108930  0.25681728  0.87476331  1
  V  V33  1  0.37264256  0.25074638  0.62433186  1
  V  V34  1  0.62639799  0.74978601  0.37402773  1
  V  V35  1  0.49929399  -0.00000175  0.50226224  1
  V  V36  1  0.62522206  0.12391353  -0.00114340  1
  V  V37  1  0.62489887  0.24806558  0.87344330  1
  V  V38  1  0.25000618  0.25087206  -0.00032224  1
  V  V39  1  0.12550156  0.50080514  0.62626281  1
  V  V40  1  0.12342662  0.25156826  0.37558291  1
  V  V41  1  0.74770747  0.87487385  0.62562912  1
  V  V42  1  0.62712039  0.61693178  0.00326675  1
  V  V43  1  -0.00184859  0.50009827  0.50018757  1
  V  V44  1  0.50525299  0.61742243  0.12611653  1
  V  V45  1  0.37439064  0.12524796  0.74911817  1
  V  V46  1  0.75006895  0.74839149  0.49984321  1
  V  V47  1  0.12849356  0.62598222  0.00071231  1
  V  V48  1  0.25384756  0.75088183  0.00195944  1
  V  V49  1  0.62814596  0.74232302  0.87508002  1
  V  V50  1  -0.00258669  0.12706808  0.62521075  1
  V  V51  1  0.50017561  -0.00164420  -0.00010761  1
  V  V52  1  0.62565241  0.37666375  0.24501706  1
  V  V53  1  0.12444780  0.00193753  0.12571021  1
  V  V54  1  0.75186415  0.74283934  -0.00285420  1
  V  V55  1  0.00082139  0.62614073  0.12734198  1
  V  V56  1  0.62482955  -0.00161748  0.12546419  1
  V  V57  1  0.25232662  0.50061033  0.25225940  1
  V  V58  1  0.87387091  0.87494298  0.50118465  1
  V  V59  1  0.12326900  0.87588667  0.75121979  1
  V  V60  1  0.63015603  0.37354249  0.74055217  1
  V  V61  1  0.12504007  0.37518119  0.25042691  1
  V  V62  1  0.87404891  0.74959293  0.62692218  1
  V  V63  1  0.37487718  0.25068853  0.12413012  1
  V  V64  1  0.24807978  0.25089960  0.50108296  1
  V  V65  1  0.62468923  0.12472837  0.49943455  1
  V  V66  1  0.12567753  0.75033770  0.37718182  1
  V  V67  1  0.87336259  0.00124705  0.37457630  1
  V  V68  1  0.62523441  0.62312162  0.49985746  1
  V  V69  1  0.86792081  0.62452066  0.75847775  1
  V  V70  1  0.49636508  0.62435629  0.63186816  1
  V  V71  1  -0.00002159  0.75003954  0.75195915  1
  V  V72  1  0.12661119  0.75174730  0.87476201  1
  V  V73  1  0.62387616  0.87314345  0.74997157  1
  V  V74  1  -0.00007466  0.49649590  -0.00884307  1
  V  V75  1  0.25080304  0.00038969  0.25119999  1
  V  V76  1  0.74959403  0.87475482  0.12507672  1
  V  V77  1  0.87087934  0.37761094  0.49957345  1
  V  V78  1  0.37505323  0.12402667  0.25037065  1
  V  V79  1  0.87203727  0.12602476  0.75000409  1
  V  V80  1  0.37358493  0.00036686  0.37582247  1
  V  V81  1  0.24812056  0.00073439  0.75139717  1
  V  V82  1  0.87418309  0.00025918  0.87415388  1
  V  V83  1  0.62518438  0.87389387  0.24999881  1
  V  V84  1  -0.00068532  0.62545928  0.62640238  1
  V  V85  1  0.50091971  0.24988719  0.24962353  1
  V  V86  1  0.87340600  0.12509162  0.25055323  1
  V  V87  1  0.74913118  0.50051830  0.24597903  1
  V  V88  1  0.50180230  0.74841547  0.25097364  1
  V  V89  1  0.37361979  0.87224952  0.50284909  1
  V  V90  1  0.74809968  0.25390385  0.49980097  1
  V  V91  1  0.49845285  0.24949230  0.74813287  1
  V  V92  1  -0.00042911  0.25264048  0.24896128  1
  Zn  Zn93  1  0.36974276  0.74329516  0.63385214  1
  Zn  Zn94  1  0.88543983  0.36698159  -0.00963032  1
  Zn  Zn95  1  0.87527610  0.62530357  0.25107711  1
  Zn  Zn96  1  0.25106116  0.74897195  0.50171882  1
  Zn  Zn97  1  0.00128947  0.87579669  0.87639364  1
  Zn  Zn98  1  0.49843502  0.12539023  0.62461457  1
  Zn  Zn99  1  -0.00084571  0.37828954  0.37333714  1
  Zn  Zn100  1  0.62990182  0.49427884  0.61920194  1
  Zn  Zn101  1  0.86758680  0.49593684  0.87434448  1
  Zn  Zn102  1  0.37250838  0.37644981  0.49457813  1
  Zn  Zn103  1  0.37899118  0.50387588  0.87586095  1
  Zn  Zn104  1  0.62554383  0.24959461  0.37348612  1
  Zn  Zn105  1  0.37660678  0.37832142  -0.00001992  1
  Zn  Zn106  1  0.37803461  0.75052954  0.12717038  1
  Zn  Zn107  1  0.74853010  0.12440219  0.37265077  1
  Zn  Zn108  1  0.50205130  0.49744915  0.00217280  1
  Zn  Zn109  1  0.62433564  0.00008777  0.62652291  1
  Zn  Zn110  1  0.12342393  0.12436608  -0.00098080  1
  Zn  Zn111  1  0.87551869  0.75039457  0.12635221  1
  Zn  Zn112  1  0.74859043  0.00094864  0.25122372  1
  Zn  Zn113  1  0.87681599  0.50009887  0.37206826  1
  Zn  Zn114  1  0.49975331  0.87276036  0.37596262  1
  Zn  Zn115  1  0.74791017  0.00180887  0.74834725  1
  Zn  Zn116  1  0.74836049  0.12393441  0.87311540  1
  Zn  Zn117  1  0.00194389  0.00047696  0.00012014  1
  Zn  Zn118  1  0.12108868  0.38047996  0.75391612  1
  Zn  Zn119  1  0.49266290  0.74290016  0.75581931  1
  Zn  Zn120  1  0.24883427  0.12664942  0.37544648  1
  Zn  Zn121  1  0.37670698  0.87549908  0.00302519  1
  Zn  Zn122  1  0.18761816  0.18739116  0.18782986  1
  Zn  Zn123  1  0.18493196  0.18919109  0.68930140  1
  Zn  Zn124  1  0.18772357  0.68854188  0.18959028  1
  Zn  Zn125  1  0.18887806  0.68855561  0.68788842  1
  Zn  Zn126  1  0.68814244  0.18830029  0.18575268  1
  Zn  Zn127  1  0.68674506  0.18696793  0.68528716  1
  Zn  Zn128  1  0.68819079  0.68739537  0.18417182  1
  Zn  Zn129  1  0.68469920  0.68553437  0.68594616  1
  Zn  Zn130  1  0.31124028  0.31045198  0.31201857  1
  Zn  Zn131  1  0.31027777  0.31469707  0.81076102  1
  Zn  Zn132  1  0.31382891  0.81003349  0.31514354  1
  Zn  Zn133  1  0.31506406  0.81319046  0.81219470  1
  Zn  Zn134  1  0.81224744  0.31236557  0.31406497  1
  Zn  Zn135  1  0.81137308  0.31699304  0.81566608  1
  Zn  Zn136  1  0.81350525  0.81185603  0.31134364  1
  Zn  Zn137  1  0.81088421  0.81256038  0.81384694  1
  Zn  Zn138  1  0.18621224  0.43795281  0.43841200  1
  Zn  Zn139  1  0.18875030  0.43890729  0.93801278  1
  Zn  Zn140  1  0.18768029  0.93985191  0.43864781  1
  Zn  Zn141  1  0.18751057  0.93782697  0.93940496  1
  Zn  Zn142  1  0.68443833  0.43716465  0.43242088  1
  Zn  Zn143  1  0.68876001  0.43581996  0.92828985  1
  Zn  Zn144  1  0.68727550  0.93733000  0.43637540  1
  Zn  Zn145  1  0.68921071  0.93453806  0.93712829  1
  Zn  Zn146  1  0.31157365  0.06321799  0.06211633  1
  Zn  Zn147  1  0.31009970  0.06320788  0.56330067  1
  Zn  Zn148  1  0.31957745  0.56190090  0.06312278  1
  Zn  Zn149  1  0.31464098  0.56016527  0.56198787  1
  Zn  Zn150  1  0.81189556  0.06222666  0.06278331  1
  Zn  Zn151  1  0.80912478  0.06377787  0.56332002  1
  Zn  Zn152  1  0.81655049  0.56229786  0.06378521  1
  Zn  Zn153  1  0.81112714  0.56189889  0.56765693  1
  Zn  Zn154  1  0.43649090  0.43887066  0.18844420  1
  Zn  Zn155  1  0.43962284  0.43756334  0.68377105  1
  Zn  Zn156  1  0.43777151  0.93514783  0.18792158  1
  Zn  Zn157  1  0.43713273  0.93457054  0.68876050  1
  Zn  Zn158  1  0.93509256  0.43728585  0.18222313  1
  Zn  Zn159  1  0.93301874  0.43997788  0.68566802  1
  Zn  Zn160  1  0.93745155  0.93877627  0.18764511  1
  Zn  Zn161  1  0.93619472  0.93720200  0.68935239  1
  Zn  Zn162  1  0.06036402  0.06483234  0.31286238  1
  Zn  Zn163  1  0.05879226  0.06782031  0.81378132  1
  Zn  Zn164  1  0.06484862  0.56195088  0.31487326  1
  Zn  Zn165  1  0.06860458  0.56805650  0.81074917  1
  Zn  Zn166  1  0.56133088  0.06053459  0.31460333  1
  Zn  Zn167  1  0.56146141  0.06116520  0.81186898  1
  Zn  Zn168  1  0.56617539  0.56038402  0.31244769  1
  Zn  Zn169  1  0.56811510  0.55763298  0.81354903  1
  Zn  Zn170  1  0.43671627  0.18933357  0.43607176  1
  Zn  Zn171  1  0.43676016  0.18867484  0.93710963  1
  Zn  Zn172  1  0.43896613  0.68721826  0.43930680  1
  Zn  Zn173  1  0.44147183  0.68772627  0.94023134  1
  Zn  Zn174  1  0.93715400  0.18925844  0.43534868  1
  Zn  Zn175  1  0.93758672  0.18525241  0.93712028  1
  Zn  Zn176  1  0.93635103  0.68613092  0.43706471  1
  Zn  Zn177  1  0.94018026  0.68563973  0.93768424  1
  Zn  Zn178  1  0.06593914  0.31219623  0.06301205  1
  Zn  Zn179  1  0.05975692  0.31576804  0.56438736  1
  Zn  Zn180  1  0.06544191  0.81380567  0.06348918  1
  Zn  Zn181  1  0.06220333  0.81198946  0.56414060  1
  Zn  Zn182  1  0.56408696  0.31167214  0.06121986  1
  Zn  Zn183  1  0.55828286  0.31090016  0.55988817  1
  Zn  Zn184  1  0.56347342  0.80795415  0.06338475  1
  Zn  Zn185  1  0.56148373  0.80905427  0.56259148  1
  O  O186  1  0.11825229  0.11950123  0.12553729  1
  O  O187  1  0.11743484  0.12061119  0.62085745  1
  O  O188  1  0.11955776  0.62065500  0.12159404  1
  O  O189  1  0.11921332  0.62090612  0.62024841  1
  O  O190  1  0.61881702  0.11909804  0.11940538  1
  O  O191  1  0.62158437  0.12248571  0.61176421  1
  O  O192  1  0.61678976  0.62913117  0.11506966  1
  O  O193  1  0.61509242  0.62346641  0.61541028  1
  O  O194  1  0.38955100  0.37166154  0.37164781  1
  O  O195  1  0.38799593  0.37284438  0.87488266  1
  O  O196  1  0.37522792  0.88094727  0.38600017  1
  O  O197  1  0.38210811  0.88280432  0.87875389  1
  O  O198  1  0.87750549  0.37664949  0.38687277  1
  O  O199  1  0.87351164  0.38244609  0.88040190  1
  O  O200  1  0.88047034  0.87957097  0.38195303  1
  O  O201  1  0.87596034  0.88164810  0.88342163  1
  O  O202  1  0.25519648  0.00323977  0.36887719  1
  O  O203  1  0.25443107  0.00559658  0.87023564  1
  O  O204  1  0.24295421  0.51362214  0.36902788  1
  O  O205  1  0.24993039  0.50934171  0.86767995  1
  O  O206  1  0.75825200  0.00220886  0.37333603  1
  O  O207  1  0.76230818  -0.00006088  0.87319155  1
  O  O208  1  0.75152353  0.50497787  0.36412921  1
  O  O209  1  0.74787997  0.50098112  0.85574941  1
  O  O210  1  0.24577471  0.49637106  0.13131299  1
  O  O211  1  0.24584939  0.49782246  0.63198761  1
  O  O212  1  0.24528669  0.99468231  0.13182928  1
  O  O213  1  0.24153849  0.99587617  0.63194386  1
  O  O214  1  0.75622841  0.48851529  0.13114756  1
  O  O215  1  0.74650581  0.50200289  0.63935030  1
  O  O216  1  0.74205781  0.99223126  0.12514422  1
  O  O217  1  0.74624079  0.99007317  0.62649591  1
  O  O218  1  0.00669279  0.37057862  0.24751201  1
  O  O219  1  -0.00037413  0.36231766  0.74237630  1
  O  O220  1  0.00615396  0.87076645  0.25680979  1
  O  O221  1  0.00554423  0.86776496  0.75161692  1
  O  O222  1  0.50757415  0.37213296  0.25265120  1
  O  O223  1  0.50644011  0.36919462  0.75647895  1
  O  O224  1  0.50659981  0.86675844  0.25203059  1
  O  O225  1  0.51145102  0.87413745  0.75647214  1
  O  O226  1  0.49537827  0.12918795  0.24434790  1
  O  O227  1  0.49286946  0.13065495  0.74815065  1
  O  O228  1  0.49597443  0.62716134  0.24621886  1
  O  O229  1  0.50794569  0.62079633  0.73423435  1
  O  O230  1  0.99373683  0.13274633  0.24362991  1
  O  O231  1  0.99151167  0.13596177  0.74354154  1
  O  O232  1  1.00333339  0.62999674  0.24155249  1
  O  O233  1  0.99328889  0.63083965  0.74454326  1
  O  O234  1  0.36894228  0.25251477  0.00724356  1
  O  O235  1  0.36662190  0.25126090  0.50585534  1
  O  O236  1  0.36316828  0.75114022  0.00239089  1
  O  O237  1  0.37495162  0.76310814  0.50284599  1
  O  O238  1  0.86803537  0.24888019  0.00572703  1
  O  O239  1  0.86865215  0.25640057  0.50596113  1
  O  O240  1  0.86857147  0.75670642  -0.00145708  1
  O  O241  1  0.87010273  0.75543650  0.50650325  1
  O  O242  1  0.12738874  0.24627115  0.49652774  1
  O  O243  1  0.13033004  0.24808867  0.99161858  1
  O  O244  1  0.12509540  0.74352054  0.49469118  1
  O  O245  1  0.13571257  0.74662991  0.99587487  1
  O  O246  1  0.63208256  0.24314402  0.50029458  1
  O  O247  1  0.62928750  0.24229123  0.99402230  1
  O  O248  1  0.63144466  0.74431084  0.49361445  1
  O  O249  1  0.63379490  0.74221906  0.99351257  1
  O  O250  1  0.49529773  0.24419339  0.12981918  1
  O  O251  1  0.49038930  0.24815341  0.63036504  1
  O  O252  1  0.50026657  0.73856057  0.13304148  1
  O  O253  1  0.50086461  0.73277638  0.62399046  1
  O  O254  1  0.99470455  0.24598944  0.12940259  1
  O  O255  1  0.98980314  0.24547880  0.63156608  1
  O  O256  1  1.00389621  0.74074884  0.13061294  1
  O  O257  1  0.99376983  0.74547231  0.63197667  1
  O  O258  1  0.00571592  0.25356415  0.36683422  1
  O  O259  1  0.00820090  0.24332261  0.86494921  1
  O  O260  1  0.00584965  0.75554934  0.37125959  1
  O  O261  1  0.00912526  0.75032995  0.86972292  1
  O  O262  1  0.50240139  0.25893990  0.36727561  1
  O  O263  1  0.50508479  0.25591463  0.86820393  1
  O  O264  1  0.50874308  0.74947858  0.36933424  1
  O  O265  1  0.51105529  0.75564319  0.87687800  1
  O  O266  1  0.24035850  0.13195710  0.49991191  1
  O  O267  1  0.24870571  0.13290634  0.99345205  1
  O  O268  1  0.24546900  0.62454491  0.49260034  1
  O  O269  1  0.24676573  0.63264503  0.99484447  1
  O  O270  1  0.74115267  0.13339835  0.49822774  1
  O  O271  1  0.74237527  0.13134883  0.99943778  1
  O  O272  1  0.74543019  0.62917926  0.49575954  1
  O  O273  1  0.74414444  0.63541340  1.00957138  1
  O  O274  1  0.25113362  0.36887970  0.00781700  1
  O  O275  1  0.25140807  0.37031384  0.50639632  1
  O  O276  1  0.25052574  0.86539425  0.00652066  1
  O  O277  1  0.25800490  0.87652338  0.50602529  1
  O  O278  1  0.74325623  0.36926334  0.00839916  1
  O  O279  1  0.75712324  0.36517632  0.49388143  1
  O  O280  1  0.75833926  0.86531543  0.00475001  1
  O  O281  1  0.75458119  0.86791088  0.50503309  1
  O  O282  1  0.13190272  0.49536395  0.24487394  1
  O  O283  1  0.13351473  0.49989792  0.74360987  1
  O  O284  1  0.13027678  0.99528583  0.24701967  1
  O  O285  1  0.12724855  0.99691238  0.74611659  1
  O  O286  1  0.63782726  0.48883345  0.25208002  1
  O  O287  1  0.63119840  0.49009708  0.74604782  1
  O  O288  1  0.62438628  0.99298682  0.24353565  1
  O  O289  1  0.62625800  0.98725778  0.74920675  1
  O  O290  1  0.37093961  0.00410151  0.25560717  1
  O  O291  1  0.36851879  0.00434007  0.75578329  1
  O  O292  1  0.36903066  0.51394511  0.24729630  1
  O  O293  1  0.36162189  0.49625401  0.75150191  1
  O  O294  1  0.87412372  0.00624554  0.25688655  1
  O  O295  1  0.87373722  0.00558984  0.75811402  1
  O  O296  1  0.86260412  0.49985306  0.25000131  1
  O  O297  1  0.86765844  0.50851131  0.74877984  1
  O  O298  1  0.12319204  0.36961015  0.36781274  1
  O  O299  1  0.13006148  0.36099411  0.87365404  1
  O  O300  1  0.11911755  0.87143750  0.37217540  1
  O  O301  1  0.12429475  0.86989504  0.86884712  1
  O  O302  1  0.61666931  0.37110742  0.36125097  1
  O  O303  1  0.61560248  0.36720012  0.86430537  1
  O  O304  1  0.62414763  0.86728662  0.36877838  1
  O  O305  1  0.62118305  0.86578755  0.86875394  1
  O  O306  1  0.38132426  0.12988579  0.13058646  1
  O  O307  1  0.37333011  0.13186433  0.63226002  1
  O  O308  1  0.38443909  0.62900735  0.13602685  1
  O  O309  1  0.39226992  0.62456295  0.61743286  1
  O  O310  1  0.87999051  0.13026475  0.13053584  1
  O  O311  1  0.87865352  0.13478018  0.62871776  1
  O  O312  1  0.88993963  0.62782583  0.12732649  1
  O  O313  1  0.88090220  0.63224601  0.63338963  1
  O  O314  1  0.25504194  0.25549191  0.12053287  1
  O  O315  1  0.25209463  0.25624714  0.62098166  1
  O  O316  1  0.24921416  0.75474035  0.11676650  1
  O  O317  1  0.25071562  0.75844875  0.62108554  1
  O  O318  1  0.75468226  0.25889251  0.11859578  1
  O  O319  1  0.76062644  0.24501702  0.61349365  1
  O  O320  1  0.75246058  0.75672418  0.11435406  1
  O  O321  1  0.75462911  0.75489781  0.61882852  1
  O  O322  1  0.24189752  0.24903930  0.38209790  1
  O  O323  1  0.24263549  0.24543177  0.87870881  1
  O  O324  1  0.24334191  0.73936105  0.37775646  1
  O  O325  1  0.24656640  0.74505321  0.88266740  1
  O  O326  1  0.74819030  0.24631143  0.38668844  1
  O  O327  1  0.74146695  0.24807218  0.88125157  1
  O  O328  1  0.74616985  0.74337043  0.38023368  1
  O  O329  1  0.74043060  0.75453136  0.88681355  1
  O  O330  1  0.00178836  0.12235584  0.00977827  1
  O  O331  1  0.00306373  0.12069902  0.50585959  1
  O  O332  1  0.00848888  0.61967765  0.00915038  1
  O  O333  1  0.00430516  0.62059505  0.50674695  1
  O  O334  1  0.50533128  0.11929655  0.00522617  1
  O  O335  1  0.50616736  0.11729926  0.50019356  1
  O  O336  1  0.50948820  0.62456689  0.00967902  1
  O  O337  1  0.50642602  0.61653599  0.50230035  1
  O  O338  1  0.50029082  0.38151772  0.48881956  1
  O  O339  1  0.50342580  0.37589372  0.98820062  1
  O  O340  1  0.49160134  0.88279020  0.50073792  1
  O  O341  1  0.50075236  0.87990812  0.99519055  1
  O  O342  1  0.98931129  0.38167773  0.49912609  1
  O  O343  1  1.00329113  0.39380609  1.00874044  1
  O  O344  1  0.99367402  0.88051328  0.49653874  1
  O  O345  1  0.98899249  0.87482759  0.99926757  1
  O  O346  1  0.50711731  0.49001691  0.38187956  1
  O  O347  1  0.49932357  0.48820328  0.87355974  1
  O  O348  1  0.49304552  0.99700242  0.38684698  1
  O  O349  1  0.49510325  0.99402218  0.88119975  1
  O  O350  1  0.99757930  0.49944628  0.38381791  1
  O  O351  1  1.00941188  0.50770471  0.89107634  1
  O  O352  1  0.99441595  0.99416358  0.38179429  1
  O  O353  1  0.98744639  0.99891521  0.87714931  1
  O  O354  1  0.00707793  0.00713940  0.12591731  1
  O  O355  1  0.00282298  0.00620285  0.62078035  1
  O  O356  1  0.00675477  0.51033217  0.11926467  1
  O  O357  1  0.00497896  0.50654389  0.62031913  1
  O  O358  1  0.50499255  0.00485160  0.11972695  1
  O  O359  1  0.49995824  0.00160988  0.61276429  1
  O  O360  1  0.49912578  0.51325522  0.12553915  1
  O  O361  1  0.50413675  0.50939009  0.61520419  1
  O  O362  1  0.24563145  0.38071356  0.24531943  1
  O  O363  1  0.24544325  0.38550104  0.74402970  1
  O  O364  1  0.24499794  0.87973086  0.24728020  1
  O  O365  1  0.24222260  0.88250269  0.74572385  1
  O  O366  1  0.74448390  0.37933241  0.24143202  1
  O  O367  1  0.73718100  0.38039029  0.75160123  1
  O  O368  1  0.74356739  0.87493922  0.24246481  1
  O  O369  1  0.73902339  0.87322469  0.74477708  1
  O  O370  1  0.25728000  0.11841019  0.25097948  1
  O  O371  1  0.25400672  0.11967618  0.75530619  1
  O  O372  1  0.25729478  0.62187475  0.25718383  1
  O  O373  1  0.24395046  0.61682156  0.76005140  1
  O  O374  1  0.75738179  0.12339679  0.25105107  1
  O  O375  1  0.75674652  0.12306806  0.75117706  1
  O  O376  1  0.74937346  0.61558837  0.25216243  1
  O  O377  1  0.76043661  0.62001330  0.74452810  1
  O  O378  1  0.37325513  0.11876162  0.36802939  1
  O  O379  1  0.36932502  0.11976459  0.86864802  1
  O  O380  1  0.36476454  0.63123305  0.36718809  1
  O  O381  1  0.36242173  0.62643394  0.88018282  1
  O  O382  1  0.87545859  0.11862241  0.36844001  1
  O  O383  1  0.87264221  0.11616009  0.86914352  1
  O  O384  1  0.86683964  0.62224226  0.37196416  1
  O  O385  1  0.88154618  0.62075985  0.86179403  1
  O  O386  1  0.13311593  0.38038148  0.13169344  1
  O  O387  1  0.13155610  0.38364061  0.62582404  1
  O  O388  1  0.13071809  0.88119121  0.13332525  1
  O  O389  1  0.12805278  0.88220349  0.63088841  1
  O  O390  1  0.63470072  0.36931007  0.13497883  1
  O  O391  1  0.61543574  0.37415649  0.63699281  1
  O  O392  1  0.62972225  0.87880030  0.12973471  1
  O  O393  1  0.62857779  0.87196992  0.63456450  1
  O  O394  1  0.11995890  0.25603635  0.25463795  1
  O  O395  1  0.11462748  0.25219880  0.75689135  1
  O  O396  1  0.12053636  0.75700187  0.25733437  1
  O  O397  1  0.12005643  0.75591695  0.75513864  1
  O  O398  1  0.61923476  0.25844288  0.24965100  1
  O  O399  1  0.61935244  0.25487566  0.75264929  1
  O  O400  1  0.62141007  0.75388220  0.25509572  1
  O  O401  1  0.62352234  0.75582760  0.75952744  1
  O  O402  1  0.38055497  0.24365215  0.24364619  1
  O  O403  1  0.37825232  0.24430723  0.74455221  1
  O  O404  1  0.38194743  0.73871341  0.25106953  1
  O  O405  1  0.38184025  0.75683571  0.74495403  1
  O  O406  1  0.87964647  0.24647789  0.24326144  1
  O  O407  1  0.87840699  0.24759438  0.74262714  1
  O  O408  1  0.88488706  0.74808569  0.24686100  1
  O  O409  1  0.87844936  0.74376680  0.74698170  1
  O  O410  1  0.39024029  0.49611464  0.50171945  1
  O  O411  1  0.38177863  0.49578542  0.99500618  1
  O  O412  1  0.38041414  0.99406399  0.49654216  1
  O  O413  1  0.38200455  0.99985109  0.99391175  1
  O  O414  1  0.87799080  0.49100268  0.50291458  1
  O  O415  1  0.89294100  0.50593382  0.99706028  1
  O  O416  1  0.87976507  0.99485016  0.49623598  1
  O  O417  1  0.87456213  0.99013645  0.99264035  1
  O  O418  1  0.12306080  0.00227596  0.00921354  1
  O  O419  1  0.11744536  0.00579609  0.50681576  1
  O  O420  1  0.11872836  0.50612039  0.00674728  1
  O  O421  1  0.11894531  0.50702888  0.50649509  1
  O  O422  1  0.61986423  0.00350223  0.00463518  1
  O  O423  1  0.61555268  0.00615549  0.49978011  1
  O  O424  1  0.62657050  0.51492431  -0.01032497  1
  O  O425  1  0.61677893  0.50421947  0.49987926  1
  O  O426  1  0.36939964  0.36803719  0.12622439  1
  O  O427  1  0.36718570  0.36785042  0.62308975  1
  O  O428  1  0.36719419  0.87071619  0.12385612  1
  O  O429  1  0.36727337  0.87851276  0.61489015  1
  O  O430  1  0.86478961  0.36874108  0.11702311  1
  O  O431  1  0.87795088  0.36387111  0.61378804  1
  O  O432  1  0.87053768  0.87453109  0.11473780  1
  O  O433  1  0.86915842  0.86906584  0.62086062  1
  O  O434  1  0.12403345  0.13275433  0.38258590  1
  O  O435  1  0.13124673  0.13586597  0.87513791  1
  O  O436  1  0.13345682  0.63116513  0.38080832  1
  O  O437  1  0.13718275  0.63312579  0.88160614  1
  O  O438  1  0.62471305  0.12702187  0.38712795  1
  O  O439  1  0.62494759  0.12991357  0.88072419  1
  O  O440  1  0.63245064  0.63019372  0.37988576  1
  O  O441  1  0.61821129  0.63681712  0.88370915  1
