# generated using pymatgen
data_V93Zn93O256
_symmetry_space_group_name_H-M   'P 1'
_cell_length_a   17.05379388
_cell_length_b   17.05264777
_cell_length_c   17.05086786
_cell_angle_alpha   89.97772234
_cell_angle_beta   89.93601525
_cell_angle_gamma   90.01362731
_symmetry_Int_Tables_number   1
_chemical_formula_structural   V93Zn93O256
_chemical_formula_sum   'V93 Zn93 O256'
_cell_volume   4958.59917563
_cell_formula_units_Z   1
loop_
 _symmetry_equiv_pos_site_id
 _symmetry_equiv_pos_as_xyz
  1  'x, y, z'
loop_
 _atom_site_type_symbol
 _atom_site_label
 _atom_site_symmetry_multiplicity
 _atom_site_fract_x
 _atom_site_fract_y
 _atom_site_fract_z
 _atom_site_occupancy
  V  V0  1  0.00307289  0.87307290  0.35517388  1
  V  V1  1  0.75008665  0.25144463  0.00105816  1
  V  V2  1  0.12536478  0.25017865  0.87478935  1
  V  V3  1  0.25038452  0.25156362  0.00099551  1
  V  V4  1  0.50065483  0.49939062  0.00101758  1
  V  V5  1  0.25119332  0.75071520  -0.00224205  1
  V  V6  1  0.62407557  0.12484652  0.50128004  1
  V  V7  1  0.63085570  0.74692579  0.37563833  1
  V  V8  1  0.24862043  0.87342997  0.62266509  1
  V  V9  1  0.25007661  0.74633820  0.49130474  1
  V  V10  1  -0.00026902  0.24865266  0.74864771  1
  V  V11  1  -0.00133947  0.63135848  0.13281416  1
  V  V12  1  0.75276985  0.87386208  0.61638653  1
  V  V13  1  0.87486106  0.37504644  0.49994383  1
  V  V14  1  0.63251288  0.62539013  0.49679922  1
  V  V15  1  0.12567857  0.37513184  0.25016575  1
  V  V16  1  0.87583670  0.62542369  0.74986267  1
  V  V17  1  0.36988499  0.62554811  0.25488529  1
  V  V18  1  0.49979681  0.12558107  0.12606261  1
  V  V19  1  0.12462631  0.87360937  0.74794669  1
  V  V20  1  0.62514715  0.50047841  0.62587668  1
  V  V21  1  0.49823604  0.24736376  0.75293660  1
  V  V22  1  0.25505221  0.00363863  0.74955726  1
  V  V23  1  0.50037795  0.75284933  0.25210804  1
  V  V24  1  0.37551227  0.74804621  0.62363347  1
  V  V25  1  0.62481184  0.12575204  0.00151456  1
  V  V26  1  0.62572080  0.75010548  0.87453756  1
  V  V27  1  0.37229226  0.12418894  0.25304278  1
  V  V28  1  0.75140612  0.62610605  0.87641052  1
  V  V29  1  0.62394079  0.25124488  0.87563461  1
  V  V30  1  0.24909055  0.24824733  0.50080517  1
  V  V31  1  0.74767926  0.00098056  0.24995631  1
  V  V32  1  0.49660410  0.12310503  0.62927313  1
  V  V33  1  0.12353977  -0.00260360  0.62319251  1
  V  V34  1  0.74945558  0.50004951  0.75085725  1
  V  V35  1  0.87494755  -0.00776285  0.37883790  1
  V  V36  1  0.62512214  0.37589168  0.25161089  1
  V  V37  1  0.37548448  0.62494038  0.74856352  1
  V  V38  1  0.00271908  0.50217058  0.00198190  1
  V  V39  1  0.12545068  0.50037725  0.62289474  1
  V  V40  1  0.12517743  -0.00457788  0.12644499  1
  V  V41  1  0.37558272  0.87406546  0.49850276  1
  V  V42  1  0.12636933  0.74892518  0.87379449  1
  V  V43  1  0.87560263  0.12688170  0.24965915  1
  V  V44  1  -0.00118883  0.37508429  0.37567395  1
  V  V45  1  0.50010980  0.37512196  0.37608533  1
  V  V46  1  0.74945811  0.37493238  0.62703072  1
  V  V47  1  0.37488645  0.87644381  -0.00109562  1
  V  V48  1  0.50041157  0.49997013  0.50163244  1
  V  V49  1  0.49878432  0.00009409  -0.00034098  1
  V  V50  1  0.87509363  0.50067727  0.87536656  1
  V  V51  1  0.12380613  0.12320523  0.49825693  1
  V  V52  1  0.50190682  0.62436357  0.12503938  1
  V  V53  1  0.74957315  0.12528888  0.37772610  1
  V  V54  1  0.00092377  0.00099998  -0.00199530  1
  V  V55  1  -0.00039713  0.24998235  0.25066802  1
  V  V56  1  0.75224790  0.75070258  0.00325690  1
  V  V57  1  0.75062969  0.37611216  0.12702731  1
  V  V58  1  0.75012189  0.12470659  0.87441943  1
  V  V59  1  0.12533359  0.24898301  0.37562456  1
  V  V60  1  -0.00125751  0.12361616  0.62388512  1
  V  V61  1  0.00068659  0.87503842  0.87451659  1
  V  V62  1  0.25101726  0.49932191  0.74992643  1
  V  V63  1  0.87422015  0.87608871  -0.00088197  1
  V  V64  1  0.87497639  0.24894738  0.62579768  1
  V  V65  1  0.12816719  0.62511064  0.49261579  1
  V  V66  1  0.62484350  -0.00006229  0.12708846  1
  V  V67  1  0.25014196  0.37336025  0.62478754  1
  V  V68  1  0.24595231  -0.00554411  0.24843438  1
  V  V69  1  0.37370718  0.24595380  0.63036371  1
  V  V70  1  0.37281812  0.50232310  0.37691604  1
  V  V71  1  0.24989768  0.62522021  0.87488216  1
  V  V72  1  0.75051455  0.50806201  0.25467405  1
  V  V73  1  0.12548664  0.12537977  -0.00175743  1
  V  V74  1  0.50035024  0.87509371  0.87478265  1
  V  V75  1  0.74891229  0.24885330  0.50216231  1
  V  V76  1  0.49959606  0.25100172  0.25220651  1
  V  V77  1  -0.00042912  0.37516438  0.87498647  1
  V  V78  1  0.49985284  0.75007577  0.74991360  1
  V  V79  1  0.12467185  0.37482459  0.74869902  1
  V  V80  1  0.74950289  -0.00139690  0.74986342  1
  V  V81  1  0.37615606  0.49953542  0.87611119  1
  V  V82  1  0.00148052  0.62458315  0.62465233  1
  V  V83  1  0.87455707  0.37496101  0.00177059  1
  V  V84  1  0.37376554  0.75139865  0.12410558  1
  V  V85  1  0.12193443  0.75384859  0.36312543  1
  V  V86  1  -0.00275221  -0.01147679  0.49897704  1
  V  V87  1  0.00015912  0.74970210  0.74926252  1
  V  V88  1  0.49807326  -0.00074313  0.49828312  1
  V  V89  1  0.87176802  0.50690062  0.37593352  1
  V  V90  1  0.24980319  0.49975094  0.25206642  1
  V  V91  1  0.87482452  0.75335280  0.61719958  1
  V  V92  1  0.37318478  0.25173046  0.12561228  1
  Zn  Zn93  1  0.49996745  0.37499463  0.87607753  1
  Zn  Zn94  1  0.12615053  0.62574585  0.00076490  1
  Zn  Zn95  1  0.62758353  0.50125835  0.12633216  1
  Zn  Zn96  1  0.75615125  0.75026621  0.49323158  1
  Zn  Zn97  1  0.37794621  0.00611705  0.86823958  1
  Zn  Zn98  1  0.25854265  0.12850958  0.86528629  1
  Zn  Zn99  1  0.62396098  0.37618768  0.75250903  1
  Zn  Zn100  1  0.50002659  0.87604908  0.37499556  1
  Zn  Zn101  1  0.37042153  -0.00316026  0.37435029  1
  Zn  Zn102  1  0.62516115  -0.00383100  0.62445553  1
  Zn  Zn103  1  0.37509577  0.37369315  0.50078554  1
  Zn  Zn104  1  0.87551510  0.12396502  0.75101681  1
  Zn  Zn105  1  0.88291826  0.75779863  0.13610529  1
  Zn  Zn106  1  0.74876271  0.87595784  0.12658473  1
  Zn  Zn107  1  0.62581867  0.87572843  0.25117138  1
  Zn  Zn108  1  0.24927888  0.37679176  0.12499375  1
  Zn  Zn109  1  0.37511708  0.37533636  0.00119078  1
  Zn  Zn110  1  0.24839888  0.12248346  0.37595854  1
  Zn  Zn111  1  0.87408091  0.63440395  0.25853528  1
  Zn  Zn112  1  0.62425049  0.25073399  0.37739235  1
  Zn  Zn113  1  0.24563288  0.87211159  0.12612377  1
  Zn  Zn114  1  0.50142688  0.62491398  0.62529786  1
  Zn  Zn115  1  0.12663088  0.50037628  0.12529537  1
  Zn  Zn116  1  -0.00067835  0.12736803  0.12352407  1
  Zn  Zn117  1  -0.00024765  0.50056346  0.49895101  1
  Zn  Zn118  1  0.87615534  0.25112312  0.12560045  1
  Zn  Zn119  1  0.87621802  0.00248716  0.87361530  1
  Zn  Zn120  1  0.62551857  0.87345565  0.74798724  1
  Zn  Zn121  1  0.62828702  0.62507779  0.00176263  1
  Zn  Zn122  1  0.18641462  0.18490464  0.18629587  1
  Zn  Zn123  1  0.18424460  0.18527843  0.68512890  1
  Zn  Zn124  1  0.18722341  0.68330082  0.18198966  1
  Zn  Zn125  1  0.18899865  0.68663677  0.68445249  1
  Zn  Zn126  1  0.68743027  0.18958714  0.18856652  1
  Zn  Zn127  1  0.68404875  0.18542094  0.68855714  1
  Zn  Zn128  1  0.68819739  0.69010556  0.18806112  1
  Zn  Zn129  1  0.68778172  0.68722442  0.68595379  1
  Zn  Zn130  1  0.31160516  0.31363971  0.31468017  1
  Zn  Zn131  1  0.31475858  0.31376409  0.81482650  1
  Zn  Zn132  1  0.31285471  0.81458978  0.31321347  1
  Zn  Zn133  1  0.31393118  0.81587024  0.81164033  1
  Zn  Zn134  1  0.81095440  0.31497475  0.31496137  1
  Zn  Zn135  1  0.81245843  0.31209326  0.81285740  1
  Zn  Zn136  1  0.81179691  0.81474347  0.30990550  1
  Zn  Zn137  1  0.81312238  0.81354090  0.81057946  1
  Zn  Zn138  1  0.18898005  0.43575253  0.43674519  1
  Zn  Zn139  1  0.18720231  0.43669522  0.93612205  1
  Zn  Zn140  1  0.18556966  0.93449575  0.43310014  1
  Zn  Zn141  1  0.18973047  0.93737908  0.93490076  1
  Zn  Zn142  1  0.68785114  0.43746428  0.43791560  1
  Zn  Zn143  1  0.68464480  0.43758241  0.93901850  1
  Zn  Zn144  1  0.68344574  0.93526669  0.43531513  1
  Zn  Zn145  1  0.68553917  0.93765410  0.93629201  1
  Zn  Zn146  1  0.31193343  0.06356531  0.06186364  1
  Zn  Zn147  1  0.31207936  0.06187706  0.56375198  1
  Zn  Zn148  1  0.31413504  0.56399612  0.06386881  1
  Zn  Zn149  1  0.31127260  0.56358586  0.56200346  1
  Zn  Zn150  1  0.81137872  0.06255903  0.06240434  1
  Zn  Zn151  1  0.81358149  0.06122453  0.56352834  1
  Zn  Zn152  1  0.81623639  0.56296146  0.06689549  1
  Zn  Zn153  1  0.81291627  0.56289034  0.56295227  1
  Zn  Zn154  1  0.43654437  0.43599274  0.18723220  1
  Zn  Zn155  1  0.43817631  0.43407813  0.68751002  1
  Zn  Zn156  1  0.43426646  0.93815222  0.18442979  1
  Zn  Zn157  1  0.43687338  0.93353988  0.68526683  1
  Zn  Zn158  1  0.93625467  0.44033426  0.18916251  1
  Zn  Zn159  1  0.93754518  0.43757024  0.68650561  1
  Zn  Zn160  1  0.93545344  0.94374308  0.18297932  1
  Zn  Zn161  1  0.93447275  0.93634510  0.68732269  1
  Zn  Zn162  1  0.06193494  0.06172912  0.31246914  1
  Zn  Zn163  1  0.06630111  0.06189624  0.81134277  1
  Zn  Zn164  1  0.06206559  0.56144437  0.31474608  1
  Zn  Zn165  1  0.06371329  0.56255288  0.81224172  1
  Zn  Zn166  1  0.56217714  0.06478949  0.31466743  1
  Zn  Zn167  1  0.56467778  0.06215162  0.81299568  1
  Zn  Zn168  1  0.56296550  0.56264363  0.31464603  1
  Zn  Zn169  1  0.56369841  0.56551262  0.81375363  1
  Zn  Zn170  1  0.43560391  0.18763228  0.43951041  1
  Zn  Zn171  1  0.43477071  0.18431998  0.93687429  1
  Zn  Zn172  1  0.44265834  0.68533236  0.43844746  1
  Zn  Zn173  1  0.43713783  0.68710711  0.93652794  1
  Zn  Zn174  1  0.93746730  0.18488939  0.43798591  1
  Zn  Zn175  1  0.93613331  0.18782157  0.93605927  1
  Zn  Zn176  1  0.94542464  0.68956583  0.43626101  1
  Zn  Zn177  1  0.93781452  0.68838848  0.94025255  1
  Zn  Zn178  1  0.06241655  0.31403119  0.06645855  1
  Zn  Zn179  1  0.06152168  0.31223876  0.56116186  1
  Zn  Zn180  1  0.06422920  0.81278631  0.05988568  1
  Zn  Zn181  1  0.06317660  0.80934659  0.55876947  1
  Zn  Zn182  1  0.56341609  0.31407738  0.06586289  1
  Zn  Zn183  1  0.56261820  0.31370583  0.56394261  1
  Zn  Zn184  1  0.56425973  0.81410831  0.06237511  1
  Zn  Zn185  1  0.56508007  0.81222723  0.56375373  1
  O  O186  1  0.12305622  0.11747878  0.11273117  1
  O  O187  1  0.11709616  0.11731547  0.61733494  1
  O  O188  1  0.11339232  0.61954958  0.11984580  1
  O  O189  1  0.12141848  0.62009282  0.61637367  1
  O  O190  1  0.61917815  0.12099415  0.12109908  1
  O  O191  1  0.61283892  0.12267186  0.61868665  1
  O  O192  1  0.61148300  0.62493416  0.12521073  1
  O  O193  1  0.62312457  0.61856073  0.61680246  1
  O  O194  1  0.38124565  0.38575656  0.37677421  1
  O  O195  1  0.37943815  0.38367327  0.87982927  1
  O  O196  1  0.38041083  0.87682089  0.38359025  1
  O  O197  1  0.38307573  0.87782388  0.88179201  1
  O  O198  1  0.87985173  0.38253622  0.38132644  1
  O  O199  1  0.88058253  0.38099935  0.88094171  1
  O  O200  1  0.88348821  0.88795734  0.36979160  1
  O  O201  1  0.88178833  0.87581810  0.88439574  1
  O  O202  1  0.24935290  0.00263724  0.36426391  1
  O  O203  1  0.25013766  0.00009648  0.86148349  1
  O  O204  1  0.26201421  0.49507616  0.36505091  1
  O  O205  1  0.25506943  0.50455658  0.86923845  1
  O  O206  1  0.75741075  0.00433008  0.37220995  1
  O  O207  1  0.74965157  0.00545951  0.86634348  1
  O  O208  1  0.76055447  0.49376427  0.36665737  1
  O  O209  1  0.75605960  0.50561682  0.87213281  1
  O  O210  1  0.25079014  0.49903415  0.13812330  1
  O  O211  1  0.24535849  0.49393636  0.63029018  1
  O  O212  1  0.24147406  1.00008403  0.13061645  1
  O  O213  1  0.24291678  0.99269210  0.62851088  1
  O  O214  1  0.75028249  0.49400918  0.13443314  1
  O  O215  1  0.74587634  0.49469093  0.63171099  1
  O  O216  1  0.74186493  1.00190135  0.13183791  1
  O  O217  1  0.75153139  0.99166245  0.63178694  1
  O  O218  1  0.00503190  0.37015833  0.25603548  1
  O  O219  1  0.00528871  0.36973432  0.75477011  1
  O  O220  1  -0.00075747  0.88252186  0.25663152  1
  O  O221  1  0.00487516  0.86916890  0.75422303  1
  O  O222  1  0.50465908  0.37056832  0.25587461  1
  O  O223  1  0.50252434  0.36054822  0.75134178  1
  O  O224  1  0.49756449  0.86132178  0.24838275  1
  O  O225  1  0.50116159  0.86792804  0.75589162  1
  O  O226  1  0.49114957  0.12985932  0.24607192  1
  O  O227  1  0.50600527  0.13410133  0.73937796  1
  O  O228  1  0.49156309  0.63226851  0.24345535  1
  O  O229  1  0.49213596  0.63173641  0.74925019  1
  O  O230  1  0.98941761  0.13036997  0.25150271  1
  O  O231  1  1.00112927  0.13048785  0.74241901  1
  O  O232  1  1.00087941  0.61774210  0.23442918  1
  O  O233  1  0.99613337  0.63004566  0.74453778  1
  O  O234  1  0.36520194  0.24985586  0.00680006  1
  O  O235  1  0.36865001  0.25076420  0.51186985  1
  O  O236  1  0.37081764  0.75519498  0.00438264  1
  O  O237  1  0.36796834  0.75145618  0.50182972  1
  O  O238  1  0.86849530  0.25720823  0.00110514  1
  O  O239  1  0.86950364  0.25407928  0.50617032  1
  O  O240  1  0.86782316  0.76015999  0.00097623  1
  O  O241  1  0.87426422  0.74015379  0.51345802  1
  O  O242  1  0.12907551  0.24342543  0.49577944  1
  O  O243  1  0.13007171  0.24422732  0.99600293  1
  O  O244  1  0.13308376  0.74291709  0.49384339  1
  O  O245  1  0.13312299  0.74953925  0.99046224  1
  O  O246  1  0.63086661  0.24311863  0.50095585  1
  O  O247  1  0.62964685  0.24517549  0.99639197  1
  O  O248  1  0.62311752  0.74145802  0.49190987  1
  O  O249  1  0.63552579  0.74915050  0.99428288  1
  O  O250  1  0.49386255  0.24479201  0.13195690  1
  O  O251  1  0.49303686  0.24295140  0.63165491  1
  O  O252  1  0.49539091  0.74258125  0.13217518  1
  O  O253  1  0.49243223  0.74889844  0.63114741  1
  O  O254  1  0.99634604  0.24706203  0.13425412  1
  O  O255  1  0.99519549  0.24423632  0.62931184  1
  O  O256  1  1.00243889  0.73453624  0.11636718  1
  O  O257  1  0.99390768  0.74553046  0.62935005  1
  O  O258  1  0.00484609  0.25526891  0.37071852  1
  O  O259  1  0.00546415  0.25616847  0.86938577  1
  O  O260  1  0.00898781  0.76295249  0.37864321  1
  O  O261  1  0.00556513  0.75448770  0.86902734  1
  O  O262  1  0.49906971  0.25656543  0.37015782  1
  O  O263  1  0.50425195  0.24826885  0.86709125  1
  O  O264  1  0.50678010  0.74950561  0.36465692  1
  O  O265  1  0.50522851  0.75462204  0.87042971  1
  O  O266  1  0.24196309  0.12981920  0.50014073  1
  O  O267  1  0.23957162  0.13593169  1.00064901  1
  O  O268  1  0.24028454  0.63542539  0.50359588  1
  O  O269  1  0.25037971  0.63146033  0.99281285  1
  O  O270  1  0.74458889  0.12874692  0.49742351  1
  O  O271  1  0.74406105  0.13113346  0.99553735  1
  O  O272  1  0.73621239  0.62751350  0.50445281  1
  O  O273  1  0.75365395  0.63451962  0.99588967  1
  O  O274  1  0.24882603  0.36279868  0.00167966  1
  O  O275  1  0.25051565  0.36678765  0.50766310  1
  O  O276  1  0.25724367  0.86798101  -0.00030662  1
  O  O277  1  0.25461580  0.86688201  0.50406531  1
  O  O278  1  0.75504027  0.37154976  0.00595872  1
  O  O279  1  0.75506985  0.36893131  0.50720401  1
  O  O280  1  0.75869165  0.86820265  -0.00184198  1
  O  O281  1  0.74662502  0.87376311  0.51242492  1
  O  O282  1  0.13684019  0.49557259  0.25443482  1
  O  O283  1  0.13105005  0.49439893  0.74405330  1
  O  O284  1  0.13467112  1.01186083  0.23760846  1
  O  O285  1  0.12997170  0.99122656  0.74167907  1
  O  O286  1  0.63281337  0.49470130  0.25118732  1
  O  O287  1  0.63185024  0.50039077  0.74498352  1
  O  O288  1  0.62975816  1.00219127  0.24550494  1
  O  O289  1  0.63707783  0.99803245  0.74652529  1
  O  O290  1  0.36749836  0.00991413  0.24850808  1
  O  O291  1  0.35937216  -0.00875458  0.74642564  1
  O  O292  1  0.37045991  0.50623791  0.25736536  1
  O  O293  1  0.36996949  0.50386188  0.75482055  1
  O  O294  1  0.86951440  0.00939855  0.25813941  1
  O  O295  1  0.86356662  0.00176791  0.75233610  1
  O  O296  1  0.86698088  0.50203513  0.25985220  1
  O  O297  1  0.87051671  0.50548806  0.75569083  1
  O  O298  1  0.11923193  0.36867853  0.37036721  1
  O  O299  1  0.11883764  0.36999748  0.86807711  1
  O  O300  1  0.11459176  0.86609311  0.37637857  1
  O  O301  1  0.11971420  0.86813028  0.86827005  1
  O  O302  1  0.61766507  0.37375550  0.36997085  1
  O  O303  1  0.62103657  0.36701601  0.87391969  1
  O  O304  1  0.61743976  0.86453686  0.37173787  1
  O  O305  1  0.61821571  0.86727299  0.87319282  1
  O  O306  1  0.37982383  0.13105446  0.13429505  1
  O  O307  1  0.38522547  0.13434984  0.62082597  1
  O  O308  1  0.38400577  0.63084267  0.13443573  1
  O  O309  1  0.37555234  0.63074070  0.63113757  1
  O  O310  1  0.87541527  0.12536730  0.13875640  1
  O  O311  1  0.88187253  0.13158513  0.62628359  1
  O  O312  1  0.89086711  0.62721407  0.12602723  1
  O  O313  1  0.88079521  0.63112170  0.63153993  1
  O  O314  1  0.25402738  0.25034944  0.11625158  1
  O  O315  1  0.25617326  0.25267140  0.62245069  1
  O  O316  1  0.25573320  0.75069150  0.11747561  1
  O  O317  1  0.25470077  0.75455300  0.61399197  1
  O  O318  1  0.75201071  0.25724153  0.11898615  1
  O  O319  1  0.75491469  0.25410307  0.62199521  1
  O  O320  1  0.74986241  0.75285523  0.11172341  1
  O  O321  1  0.75913863  0.75698083  0.62484622  1
  O  O322  1  0.24318359  0.24789059  0.38234072  1
  O  O323  1  0.24345859  0.25037828  0.88332078  1
  O  O324  1  0.24183420  0.75807101  0.38690036  1
  O  O325  1  0.24615514  0.74468039  0.87739450  1
  O  O326  1  0.74950254  0.24335925  0.38442601  1
  O  O327  1  0.74409293  0.24552272  0.88104704  1
  O  O328  1  0.73517972  0.75764302  0.37701318  1
  O  O329  1  0.74751502  0.74581416  0.88307782  1
  O  O330  1  0.00981411  0.12116887  -0.00133215  1
  O  O331  1  0.00507054  0.11449317  0.50416509  1
  O  O332  1  0.00055350  0.61466092  0.00562096  1
  O  O333  1  0.01213587  0.62354299  0.50809109  1
  O  O334  1  0.50614980  0.12091781  0.00763582  1
  O  O335  1  0.50273407  0.11806921  0.50843757  1
  O  O336  1  0.49857427  0.61823950  0.01023096  1
  O  O337  1  0.51011058  0.61705531  0.50344476  1
  O  O338  1  0.49809620  0.38227091  0.49502568  1
  O  O339  1  0.49905245  0.38833070  1.00214268  1
  O  O340  1  0.49439871  0.88511797  0.50347948  1
  O  O341  1  0.49497466  0.88000805  0.99480874  1
  O  O342  1  0.99300340  0.37637526  0.49431609  1
  O  O343  1  0.99572305  0.38259342  0.99518191  1
  O  O344  1  1.00208154  0.88674363  0.49592798  1
  O  O345  1  0.99271206  0.88000720  0.99395788  1
  O  O346  1  0.49119419  0.49487666  0.38017704  1
  O  O347  1  0.49524443  0.50288407  0.88572546  1
  O  O348  1  0.49646988  1.00088769  0.38797396  1
  O  O349  1  0.50124234  0.99359987  0.88174719  1
  O  O350  1  0.99114619  0.49165359  0.37650746  1
  O  O351  1  0.99532208  0.49540849  0.88162701  1
  O  O352  1  0.99511137  0.99176306  0.38002722  1
  O  O353  1  1.00089323  0.99286728  0.87992993  1
  O  O354  1  0.00853172  0.00507592  0.11659031  1
  O  O355  1  0.00258259  0.00205193  0.61696700  1
  O  O356  1  -0.00004006  0.50801247  0.11526934  1
  O  O357  1  0.00770330  0.50588124  0.62343423  1
  O  O358  1  0.50507352  0.00679231  0.12047019  1
  O  O359  1  0.49847993  0.00783720  0.61744393  1
  O  O360  1  0.49853083  0.50954671  0.11956455  1
  O  O361  1  0.50632052  0.49964956  0.61972791  1
  O  O362  1  0.24478638  0.38369556  0.24983518  1
  O  O363  1  0.24404519  0.37959172  0.74496979  1
  O  O364  1  0.25732296  0.89008761  0.24551462  1
  O  O365  1  0.24261697  0.87935774  0.74190880  1
  O  O366  1  0.74496430  0.38272450  0.24636879  1
  O  O367  1  0.74963570  0.38243708  0.74480001  1
  O  O368  1  0.74715067  0.88771350  0.24678743  1
  O  O369  1  0.74984098  0.88316497  0.74213517  1
  O  O370  1  0.25943099  0.11761137  0.24938616  1
  O  O371  1  0.23965271  0.10910693  0.74744375  1
  O  O372  1  0.26351557  0.61620096  0.24472454  1
  O  O373  1  0.25514893  0.61871868  0.75423734  1
  O  O374  1  0.75706659  0.12148940  0.25725319  1
  O  O375  1  0.74995683  0.11579521  0.75472073  1
  O  O376  1  0.74996090  0.61045658  0.24398393  1
  O  O377  1  0.75681129  0.61981863  0.75610565  1
  O  O378  1  0.37299589  0.12339599  0.36324147  1
  O  O379  1  0.36978024  0.11845300  0.87793481  1
  O  O380  1  0.38277035  0.61457830  0.36489938  1
  O  O381  1  0.36891083  0.61959521  0.86826287  1
  O  O382  1  0.87049973  0.11588744  0.36722913  1
  O  O383  1  0.86624267  0.12320912  0.87233550  1
  O  O384  1  0.88484945  0.61077454  0.37693656  1
  O  O385  1  0.87147825  0.62038968  0.86962766  1
  O  O386  1  0.12712178  0.38018614  0.13514115  1
  O  O387  1  0.12984912  0.37968943  0.62962354  1
  O  O388  1  0.12586512  0.89098226  0.11723090  1
  O  O389  1  0.12890037  0.87794279  0.62803005  1
  O  O390  1  0.63203767  0.37799501  0.13397756  1
  O  O391  1  0.63263397  0.38211669  0.62714877  1
  O  O392  1  0.62628532  0.88451967  0.12879748  1
  O  O393  1  0.63669248  0.87557327  0.62883632  1
  O  O394  1  0.11999748  0.25388128  0.25571442  1
  O  O395  1  0.11958710  0.25565275  0.75363255  1
  O  O396  1  0.13590736  0.74053122  0.26591641  1
  O  O397  1  0.11999534  0.75403827  0.75271944  1
  O  O398  1  0.61731758  0.25628531  0.25357417  1
  O  O399  1  0.61547428  0.25073277  0.75655672  1
  O  O400  1  0.61582390  0.74862073  0.25735522  1
  O  O401  1  0.61860558  0.74893714  0.75707202  1
  O  O402  1  0.37817346  0.24227582  0.24633037  1
  O  O403  1  0.38290411  0.25306767  0.73972028  1
  O  O404  1  0.38025542  0.74266116  0.24719722  1
  O  O405  1  0.37896288  0.74487835  0.74383431  1
  O  O406  1  0.87937253  0.24084804  0.25293343  1
  O  O407  1  0.88234738  0.24916263  0.74373056  1
  O  O408  1  0.86744828  0.74513462  0.24632338  1
  O  O409  1  0.88157326  0.74398574  0.74220657  1
  O  O410  1  0.37878233  0.50101313  0.49103595  1
  O  O411  1  0.38412382  0.50078643  0.99545509  1
  O  O412  1  0.38250195  0.99430172  0.50011377  1
  O  O413  1  0.38272297  0.99309145  1.00297816  1
  O  O414  1  0.87484580  0.49369279  0.49306208  1
  O  O415  1  0.88401136  0.49504161  0.99459408  1
  O  O416  1  0.88476102  1.00742726  0.48734239  1
  O  O417  1  0.88026703  0.99242392  0.99776715  1
  O  O418  1  0.12240678  0.00859834  0.00406726  1
  O  O419  1  0.11638875  0.00263793  0.50407351  1
  O  O420  1  0.11358212  0.50027964  -0.00052996  1
  O  O421  1  0.12733593  0.50915171  0.50347304  1
  O  O422  1  0.61919464  0.00654981  0.00617534  1
  O  O423  1  0.61387613  0.00544906  0.50189431  1
  O  O424  1  0.61464599  0.50517030  0.00433937  1
  O  O425  1  0.62121088  0.50682460  0.50452713  1
  O  O426  1  0.37147021  0.36626164  0.12324298  1
  O  O427  1  0.36820729  0.36403097  0.62361863  1
  O  O428  1  0.37328245  0.86704817  0.11665912  1
  O  O429  1  0.36825279  0.86654924  0.61692048  1
  O  O430  1  0.86884451  0.37463033  0.11942906  1
  O  O431  1  0.86962148  0.36937737  0.61994484  1
  O  O432  1  0.87375518  0.87607863  0.11105141  1
  O  O433  1  0.86741881  0.86258741  0.62924001  1
  O  O434  1  0.12435350  0.13164199  0.38130223  1
  O  O435  1  0.12763693  0.13155300  0.88465810  1
  O  O436  1  0.11564612  0.63436158  0.38761065  1
  O  O437  1  0.13228192  0.63124830  0.87504899  1
  O  O438  1  0.63176012  0.12722547  0.38339445  1
  O  O439  1  0.63030429  0.13140316  0.88258900  1
  O  O440  1  0.61856676  0.63456794  0.38480447  1
  O  O441  1  0.63413110  0.63211951  0.87863205  1
