# generated using pymatgen
data_V93Zn93O256
_symmetry_space_group_name_H-M   'P 1'
_cell_length_a   17.04724269
_cell_length_b   17.04992673
_cell_length_c   17.04709366
_cell_angle_alpha   89.94356700
_cell_angle_beta   90.03717219
_cell_angle_gamma   89.99220411
_symmetry_Int_Tables_number   1
_chemical_formula_structural   V93Zn93O256
_chemical_formula_sum   'V93 Zn93 O256'
_cell_volume   4954.80653782
_cell_formula_units_Z   1
loop_
 _symmetry_equiv_pos_site_id
 _symmetry_equiv_pos_as_xyz
  1  'x, y, z'
loop_
 _atom_site_type_symbol
 _atom_site_label
 _atom_site_symmetry_multiplicity
 _atom_site_fract_x
 _atom_site_fract_y
 _atom_site_fract_z
 _atom_site_occupancy
  V  V0  1  0.37384045  0.24998250  0.12496242  1
  V  V1  1  0.00505350  0.62588830  0.62263378  1
  V  V2  1  0.74682710  0.50074048  0.24601191  1
  V  V3  1  -0.00048503  0.37580382  0.87265000  1
  V  V4  1  0.50026161  0.74896097  0.25127820  1
  V  V5  1  0.49887746  0.12366558  0.12366005  1
  V  V6  1  0.87304620  0.87519965  -0.00064497  1
  V  V7  1  0.62594629  0.87689567  0.74868231  1
  V  V8  1  0.62442546  0.75076808  0.37679702  1
  V  V9  1  0.25207424  0.37580011  0.62473537  1
  V  V10  1  0.25063570  0.12463303  0.37607326  1
  V  V11  1  0.37738849  0.37475455  0.50155291  1
  V  V12  1  0.12900857  0.00067630  0.62861916  1
  V  V13  1  0.37464704  0.12541542  0.25049615  1
  V  V14  1  0.25261447  0.25125281  0.50006099  1
  V  V15  1  0.74692375  0.87619251  0.12383072  1
  V  V16  1  0.75247528  0.25156020  0.49963108  1
  V  V17  1  0.24382611  0.62521054  0.38088172  1
  V  V18  1  0.37563310  0.62368289  0.25119893  1
  V  V19  1  0.74186217  0.25008237  -0.00630620  1
  V  V20  1  0.87647412  0.50027434  0.37426108  1
  V  V21  1  0.87344111  0.25119630  0.12329097  1
  V  V22  1  0.50186570  0.12673653  0.62587097  1
  V  V23  1  0.74356661  0.50217054  0.74338556  1
  V  V24  1  0.36749842  0.11969128  0.75292445  1
  V  V25  1  0.12647133  0.50429492  0.62306176  1
  V  V26  1  0.25019659  0.62404783  0.87526184  1
  V  V27  1  0.87716459  -0.00037571  0.37495533  1
  V  V28  1  0.51386618  0.50271795  0.00351039  1
  V  V29  1  0.12846333  0.87817743  0.75302125  1
  V  V30  1  0.75104014  0.74975662  0.49997107  1
  V  V31  1  0.50201645  0.00023156  0.50064289  1
  V  V32  1  0.12419678  0.50049674  0.12406118  1
  V  V33  1  0.62397461  0.37933917  0.24416440  1
  V  V34  1  0.74698597  0.62515479  0.88112138  1
  V  V35  1  0.25002371  0.37496061  0.12457738  1
  V  V36  1  0.87484670  0.37516827  -0.00285728  1
  V  V37  1  0.37603304  0.49861065  0.87645021  1
  V  V38  1  0.25164189  0.49910204  0.75002452  1
  V  V39  1  0.12431124  0.25011068  0.87437020  1
  V  V40  1  0.74836370  0.37670687  0.12307814  1
  V  V41  1  0.12531009  0.24948671  0.37445191  1
  V  V42  1  0.87461293  0.62622611  0.74881443  1
  V  V43  1  0.24885466  0.74803453  0.00221242  1
  V  V44  1  0.37612900  0.49991346  0.37673057  1
  V  V45  1  0.37747526  0.62333198  0.75094968  1
  V  V46  1  0.50008884  0.87379363  0.37592002  1
  V  V47  1  0.12531720  0.37437001  0.24915776  1
  V  V48  1  0.49992297  0.25066297  0.24955816  1
  V  V49  1  0.25095391  0.49963156  0.25096995  1
  V  V50  1  0.37434407  0.74909764  0.12525719  1
  V  V51  1  0.12399610  0.74912615  0.87616174  1
  V  V52  1  0.50549301  0.49853580  0.50277521  1
  V  V53  1  0.74596279  0.37991690  0.62241720  1
  V  V54  1  -0.00229027  0.00071289  0.00065663  1
  V  V55  1  0.37515886  0.87392500  0.50225636  1
  V  V56  1  -0.00096492  0.25077853  0.24941369  1
  V  V57  1  0.62583442  0.36951315  0.75191460  1
  V  V58  1  0.87717646  0.75157885  0.62455993  1
  V  V59  1  0.87372746  0.75040966  0.12441991  1
  V  V60  1  0.24798279  -0.00311268  0.24833684  1
  V  V61  1  0.51250184  0.62083058  0.12200987  1
  V  V62  1  -0.00072353  0.62396154  0.12425125  1
  V  V63  1  -0.00088293  0.12718635  0.62571604  1
  V  V64  1  0.00080805  0.75014625  0.75054012  1
  V  V65  1  0.00169036  0.75285134  0.25208734  1
  V  V66  1  0.24458864  0.74597645  0.50216806  1
  V  V67  1  0.00039911  0.37612585  0.37554170  1
  V  V68  1  0.49782224  0.87444749  0.87654598  1
  V  V69  1  0.75059892  0.87589264  0.62624588  1
  V  V70  1  0.37517886  0.37556243  -0.00062366  1
  V  V71  1  0.49998200  0.74767251  0.75104383  1
  V  V72  1  0.87231994  0.00184672  0.87245722  1
  V  V73  1  0.87610294  0.87616580  0.49931033  1
  V  V74  1  0.00627326  0.50584584  0.49934082  1
  V  V75  1  0.50506298  0.36933672  0.87540516  1
  V  V76  1  -0.00102563  0.12522668  0.12342391  1
  V  V77  1  0.62527965  0.74489551  0.88229213  1
  V  V78  1  0.50419308  0.62165609  0.62646820  1
  V  V79  1  0.62733516  0.62195400  0.50369661  1
  V  V80  1  0.25195726  0.87709312  0.62908608  1
  V  V81  1  0.74111383  0.12818442  0.87301862  1
  V  V82  1  0.24863157  0.24767561  -0.00196170  1
  V  V83  1  0.74816020  0.00165125  0.24837995  1
  V  V84  1  0.87503989  0.49992997  0.87315541  1
  V  V85  1  0.12667083  0.12452481  0.50092202  1
  V  V86  1  0.87384283  0.12664249  0.24929733  1
  V  V87  1  0.12505985  0.37526594  0.74974778  1
  V  V88  1  0.37524683  -0.00025567  0.37629454  1
  V  V89  1  0.49754608  -0.00082137  -0.00010487  1
  V  V90  1  0.87337330  0.62505539  0.25008019  1
  V  V91  1  0.12325736  0.12437964  -0.00072136  1
  V  V92  1  0.62600603  0.24952503  0.37411376  1
  Zn  Zn93  1  0.87615555  0.25198414  0.62537181  1
  Zn  Zn94  1  0.62278281  0.87606710  0.25043906  1
  Zn  Zn95  1  0.74621732  0.74584949  0.00324974  1
  Zn  Zn96  1  0.24338720  0.11403268  0.87098264  1
  Zn  Zn97  1  0.12305138  0.75076512  0.37906564  1
  Zn  Zn98  1  0.50252228  0.24672609  0.75442178  1
  Zn  Zn99  1  0.75034096  0.00401926  0.74713889  1
  Zn  Zn100  1  0.62790656  0.00158662  0.62212836  1
  Zn  Zn101  1  0.75062784  0.12563933  0.37665818  1
  Zn  Zn102  1  0.37197138  0.87480010  0.00046182  1
  Zn  Zn103  1  0.36510367  -0.00724816  0.87040972  1
  Zn  Zn104  1  0.37528578  0.74902035  0.62658648  1
  Zn  Zn105  1  0.24573183  0.87293164  0.12633449  1
  Zn  Zn106  1  0.37694613  0.25082858  0.62830417  1
  Zn  Zn107  1  0.61976212  0.12844518  -0.00312819  1
  Zn  Zn108  1  0.00397335  0.87420830  0.37709469  1
  Zn  Zn109  1  -0.00176308  0.87494304  0.87575321  1
  Zn  Zn110  1  0.62640484  0.12474588  0.50104913  1
  Zn  Zn111  1  0.12511072  0.87443348  0.25169874  1
  Zn  Zn112  1  0.12147309  0.62296034  -0.00104269  1
  Zn  Zn113  1  -0.00018166  0.50101068  -0.00096939  1
  Zn  Zn114  1  0.00182825  -0.00075814  0.49919906  1
  Zn  Zn115  1  0.87729824  0.37703218  0.50198203  1
  Zn  Zn116  1  0.62216649  0.00165587  0.12479366  1
  Zn  Zn117  1  0.12349437  -0.00330571  0.12478991  1
  Zn  Zn118  1  0.74944509  0.62440260  0.37525626  1
  Zn  Zn119  1  0.50058730  0.37535915  0.37486827  1
  Zn  Zn120  1  0.87316461  0.12814591  0.74784091  1
  Zn  Zn121  1  -0.00181685  0.25084465  0.74822776  1
  Zn  Zn122  1  0.18664679  0.18507779  0.18560379  1
  Zn  Zn123  1  0.18742243  0.19106086  0.68685143  1
  Zn  Zn124  1  0.18572749  0.68426221  0.18963227  1
  Zn  Zn125  1  0.18795571  0.68857888  0.68877638  1
  Zn  Zn126  1  0.68534347  0.18806188  0.18316761  1
  Zn  Zn127  1  0.68823704  0.18957590  0.68678719  1
  Zn  Zn128  1  0.68771768  0.68994698  0.19063136  1
  Zn  Zn129  1  0.68727167  0.69028715  0.68895937  1
  Zn  Zn130  1  0.31376089  0.31378739  0.31427969  1
  Zn  Zn131  1  0.31477828  0.30726179  0.81217718  1
  Zn  Zn132  1  0.31323128  0.81129299  0.31563033  1
  Zn  Zn133  1  0.31213949  0.80873757  0.81283096  1
  Zn  Zn134  1  0.81293508  0.31566077  0.31286335  1
  Zn  Zn135  1  0.81470629  0.31046882  0.80868929  1
  Zn  Zn136  1  0.81267678  0.81362782  0.31321964  1
  Zn  Zn137  1  0.81123468  0.81229915  0.81290290  1
  Zn  Zn138  1  0.18769379  0.43729323  0.43796353  1
  Zn  Zn139  1  0.18654807  0.43702821  0.93799452  1
  Zn  Zn140  1  0.18626260  0.93450751  0.43795789  1
  Zn  Zn141  1  0.18654238  0.93726292  0.93969592  1
  Zn  Zn142  1  0.68795761  0.43676087  0.43242415  1
  Zn  Zn143  1  0.68984514  0.43721067  0.93310874  1
  Zn  Zn144  1  0.68797990  0.93697553  0.43760534  1
  Zn  Zn145  1  0.68497159  0.93990534  0.93726842  1
  Zn  Zn146  1  0.31188270  0.06143934  0.06025908  1
  Zn  Zn147  1  0.31502638  0.06216065  0.56496816  1
  Zn  Zn148  1  0.31644782  0.56245188  0.06247054  1
  Zn  Zn149  1  0.31669488  0.56223081  0.56334130  1
  Zn  Zn150  1  0.81142998  0.06486881  0.05950405  1
  Zn  Zn151  1  0.81160079  0.06315217  0.56142224  1
  Zn  Zn152  1  0.81316581  0.56058844  0.06274998  1
  Zn  Zn153  1  0.81758476  0.56279139  0.56159081  1
  Zn  Zn154  1  0.43858598  0.43889925  0.18560876  1
  Zn  Zn155  1  0.44019182  0.43772577  0.68754057  1
  Zn  Zn156  1  0.43466129  0.93591393  0.18824385  1
  Zn  Zn157  1  0.43917793  0.94037514  0.68738975  1
  Zn  Zn158  1  0.93577106  0.43784333  0.18653526  1
  Zn  Zn159  1  0.93480838  0.43788124  0.68605852  1
  Zn  Zn160  1  0.93528531  0.93710050  0.18667291  1
  Zn  Zn161  1  0.94086849  0.93926774  0.68782863  1
  Zn  Zn162  1  0.06252384  0.06380950  0.31135752  1
  Zn  Zn163  1  0.06029620  0.06240788  0.81267367  1
  Zn  Zn164  1  0.06287539  0.56426832  0.31031614  1
  Zn  Zn165  1  0.06299123  0.56244915  0.81078390  1
  Zn  Zn166  1  0.56237995  0.06337583  0.31297586  1
  Zn  Zn167  1  0.55834338  0.06061271  0.81150937  1
  Zn  Zn168  1  0.56266636  0.56452068  0.31522778  1
  Zn  Zn169  1  0.56383297  0.55773156  0.81567667  1
  Zn  Zn170  1  0.43877912  0.18783756  0.43883025  1
  Zn  Zn171  1  0.43442581  0.18672148  0.93671234  1
  Zn  Zn172  1  0.43410931  0.68749424  0.43955965  1
  Zn  Zn173  1  0.43819550  0.68445064  0.94030126  1
  Zn  Zn174  1  0.93761126  0.18631681  0.43875833  1
  Zn  Zn175  1  0.93450121  0.18868549  0.93486223  1
  Zn  Zn176  1  0.93672731  0.68593179  0.43641085  1
  Zn  Zn177  1  0.93535156  0.68770123  0.93814876  1
  Zn  Zn178  1  0.06128750  0.31318757  0.06013525  1
  Zn  Zn179  1  0.06504843  0.31495774  0.56140400  1
  Zn  Zn180  1  0.06231955  0.81494945  0.06526673  1
  Zn  Zn181  1  0.06265987  0.81490065  0.56231804  1
  Zn  Zn182  1  0.56054806  0.31446775  0.06266656  1
  Zn  Zn183  1  0.56618256  0.31203911  0.56518073  1
  Zn  Zn184  1  0.56124287  0.81196178  0.06418029  1
  Zn  Zn185  1  0.56240215  0.80986692  0.56356716  1
  O  O186  1  0.11597586  0.12381946  0.11777327  1
  O  O187  1  0.12189217  0.11770111  0.62155845  1
  O  O188  1  0.11768945  0.61725223  0.12487180  1
  O  O189  1  0.11766372  0.61684929  0.63382354  1
  O  O190  1  0.61407399  0.12276109  0.12106348  1
  O  O191  1  0.61472246  0.12349858  0.62458691  1
  O  O192  1  0.61111885  0.63069703  0.12931175  1
  O  O193  1  0.61620704  0.63134273  0.61504068  1
  O  O194  1  0.37812433  0.38181701  0.38249017  1
  O  O195  1  0.38322016  0.38009494  0.87929883  1
  O  O196  1  0.38093867  0.88019589  0.38231360  1
  O  O197  1  0.38793009  0.87099242  0.87498433  1
  O  O198  1  0.88381174  0.38298654  0.37447604  1
  O  O199  1  0.87925613  0.38071104  0.87738525  1
  O  O200  1  0.87539275  0.88498859  0.38025073  1
  O  O201  1  0.87290837  0.88459364  0.88017226  1
  O  O202  1  0.25596320  0.00543106  0.36947334  1
  O  O203  1  0.25373847  0.00183287  0.88038482  1
  O  O204  1  0.25578057  0.50634603  0.37203067  1
  O  O205  1  0.25570858  0.50389940  0.86955939  1
  O  O206  1  0.75883088  0.00083382  0.36521937  1
  O  O207  1  0.75714385  0.00806789  0.87444209  1
  O  O208  1  0.75720745  0.49991276  0.36294288  1
  O  O209  1  0.75466270  0.50787727  0.86471490  1
  O  O210  1  0.24656516  0.49470318  0.13129465  1
  O  O211  1  0.24726670  0.49593455  0.63013491  1
  O  O212  1  0.25186633  0.99836094  0.13720442  1
  O  O213  1  0.24083514  0.98855673  0.62074875  1
  O  O214  1  0.75536320  0.49379460  0.13839223  1
  O  O215  1  0.75671768  0.49403288  0.63387075  1
  O  O216  1  0.75011105  0.99351993  0.13222990  1
  O  O217  1  0.74757686  0.99226098  0.62727100  1
  O  O218  1  0.00562232  0.36964580  0.25444647  1
  O  O219  1  0.00759332  0.37661637  0.75431052  1
  O  O220  1  -0.00399911  0.86266347  0.25109731  1
  O  O221  1  0.01167490  0.86837895  0.75027319  1
  O  O222  1  0.50825291  0.37046450  0.24996579  1
  O  O223  1  0.50889393  0.37764369  0.75775606  1
  O  O224  1  0.49951578  0.86771910  0.25757577  1
  O  O225  1  0.50623647  0.86924325  0.75725819  1
  O  O226  1  0.49309125  0.13015853  0.24495419  1
  O  O227  1  0.49394624  0.12676459  0.74225213  1
  O  O228  1  0.49460379  0.62833347  0.24365875  1
  O  O229  1  0.49881731  0.62567002  0.74392399  1
  O  O230  1  0.99377739  0.13203776  0.24426807  1
  O  O231  1  1.00072037  0.12636365  0.73665047  1
  O  O232  1  0.99298067  0.63272712  0.24475302  1
  O  O233  1  0.99357213  0.63053500  0.74399021  1
  O  O234  1  0.36930318  0.25564095  0.00592006  1
  O  O235  1  0.36977908  0.25705917  0.50117640  1
  O  O236  1  0.36667429  0.74784766  0.00886728  1
  O  O237  1  0.36582128  0.75671880  0.50411258  1
  O  O238  1  0.86512534  0.25612442  0.00432397  1
  O  O239  1  0.86385683  0.25470902  0.49845918  1
  O  O240  1  0.87037301  0.75695448  0.00660329  1
  O  O241  1  0.87076538  0.75512940  0.50539122  1
  O  O242  1  0.13269376  0.24549042  0.49307291  1
  O  O243  1  0.12896402  0.24505912  0.99428756  1
  O  O244  1  0.14049659  0.75432981  0.50096066  1
  O  O245  1  0.13318119  0.74762675  0.99579290  1
  O  O246  1  0.63402791  0.25261486  0.48930332  1
  O  O247  1  0.63834444  0.25178636  1.00358567  1
  O  O248  1  0.63062401  0.74156492  0.49633831  1
  O  O249  1  0.62614488  0.75502306  0.98580110  1
  O  O250  1  0.49289095  0.24500122  0.12966294  1
  O  O251  1  0.49904497  0.23880062  0.62495844  1
  O  O252  1  0.49226887  0.74225605  0.12944024  1
  O  O253  1  0.49827040  0.73888539  0.63179705  1
  O  O254  1  0.99318936  0.24646270  0.12983819  1
  O  O255  1  1.00226105  0.23948342  0.62274074  1
  O  O256  1  0.99275553  0.74468989  0.13313859  1
  O  O257  1  0.99658414  0.74580009  0.63002191  1
  O  O258  1  0.00569329  0.25480438  0.36943440  1
  O  O259  1  0.00624261  0.25769333  0.87334962  1
  O  O260  1  0.00061309  0.74865093  0.36482757  1
  O  O261  1  0.00504939  0.75110208  0.86849483  1
  O  O262  1  0.50902557  0.25162724  0.36874953  1
  O  O263  1  0.49626398  0.26622360  0.87745403  1
  O  O264  1  0.50304909  0.75389521  0.37153831  1
  O  O265  1  0.50673418  0.75424832  0.87197804  1
  O  O266  1  0.24684882  0.13015541  0.49550626  1
  O  O267  1  0.24183945  0.13227055  1.00076581  1
  O  O268  1  0.25951400  0.63347790  0.49235733  1
  O  O269  1  0.24981750  0.63360084  0.99458285  1
  O  O270  1  0.74719026  0.13799591  0.49820139  1
  O  O271  1  0.74644157  0.13359636  0.99227389  1
  O  O272  1  0.74233229  0.62944231  0.50119753  1
  O  O273  1  0.75423701  0.62398702  0.98494994  1
  O  O274  1  0.25530112  0.36860847  0.00530721  1
  O  O275  1  0.25689540  0.37139935  0.50474356  1
  O  O276  1  0.25195137  0.85918882  0.00272502  1
  O  O277  1  0.25570764  0.86759932  0.50990588  1
  O  O278  1  0.75456397  0.36912639  0.00208278  1
  O  O279  1  0.74925780  0.37065880  0.50611019  1
  O  O280  1  0.75325471  0.87655887  0.01017836  1
  O  O281  1  0.75591652  0.86895116  0.50618555  1
  O  O282  1  0.13147005  0.49345059  0.24492053  1
  O  O283  1  0.13304093  0.49426416  0.74470849  1
  O  O284  1  0.13735985  1.00219553  0.24954523  1
  O  O285  1  0.12031586  0.98901180  0.74114010  1
  O  O286  1  0.63402513  0.48982936  0.25951370  1
  O  O287  1  0.63804067  0.49277128  0.75233700  1
  O  O288  1  0.63635510  0.99864215  0.24953216  1
  O  O289  1  0.62447418  0.98474354  0.74942622  1
  O  O290  1  0.36790529  0.00582392  0.25650599  1
  O  O291  1  0.38064937  0.01536369  0.75117537  1
  O  O292  1  0.36988309  0.50331163  0.25623365  1
  O  O293  1  0.37119077  0.50420767  0.75635243  1
  O  O294  1  0.86663233  0.00560502  0.25588411  1
  O  O295  1  0.87422193  0.00122567  0.76115809  1
  O  O296  1  0.86738999  0.50482094  0.25441429  1
  O  O297  1  0.86514131  0.50650299  0.75412153  1
  O  O298  1  0.12089812  0.36913549  0.36836498  1
  O  O299  1  0.11980045  0.37069998  0.86930818  1
  O  O300  1  0.12148985  0.87034194  0.37009524  1
  O  O301  1  0.12312980  0.86860008  0.86663250  1
  O  O302  1  0.62391644  0.36495331  0.36339880  1
  O  O303  1  0.61567779  0.38188942  0.86448931  1
  O  O304  1  0.61757893  0.86792270  0.37516944  1
  O  O305  1  0.61698633  0.86706205  0.86791186  1
  O  O306  1  0.37908729  0.13130829  0.13071259  1
  O  O307  1  0.38363884  0.12513018  0.63483808  1
  O  O308  1  0.38081051  0.63386655  0.13198095  1
  O  O309  1  0.38750068  0.62486838  0.63232851  1
  O  O310  1  0.87903325  0.13200166  0.12913131  1
  O  O311  1  0.88801355  0.12456796  0.62297999  1
  O  O312  1  0.87813875  0.63056948  0.13074215  1
  O  O313  1  0.88288848  0.63238174  0.62992205  1
  O  O314  1  0.25451581  0.25549607  0.11997818  1
  O  O315  1  0.25123395  0.25832772  0.61661579  1
  O  O316  1  0.25798278  0.74507893  0.11949192  1
  O  O317  1  0.25223175  0.75826947  0.61952953  1
  O  O318  1  0.75537683  0.25591738  0.11608291  1
  O  O319  1  0.74964766  0.25941501  0.61367745  1
  O  O320  1  0.75385164  0.75934370  0.12490997  1
  O  O321  1  0.75762367  0.75531248  0.62010316  1
  O  O322  1  0.24504419  0.24460733  0.37927562  1
  O  O323  1  0.24218719  0.24738763  0.88179410  1
  O  O324  1  0.25151560  0.74111526  0.38417176  1
  O  O325  1  0.24552611  0.74375863  0.88353744  1
  O  O326  1  0.74279700  0.25217432  0.38133534  1
  O  O327  1  0.75689186  0.24074785  0.88385603  1
  O  O328  1  0.74444206  0.74881925  0.38227738  1
  O  O329  1  0.74246790  0.74166699  0.87522382  1
  O  O330  1  0.00243196  0.12126508  0.00466796  1
  O  O331  1  0.00866813  0.12308365  0.50779152  1
  O  O332  1  -0.00021620  0.62259104  0.00847203  1
  O  O333  1  -0.00351030  0.61425838  0.50598528  1
  O  O334  1  0.49795785  0.11673136  0.00361958  1
  O  O335  1  0.50015207  0.11898707  0.50908206  1
  O  O336  1  0.49469879  0.61435633  0.00962016  1
  O  O337  1  0.50657658  0.61913531  0.50719630  1
  O  O338  1  0.49897959  0.38470092  0.50113373  1
  O  O339  1  0.49497090  0.38218774  0.99485425  1
  O  O340  1  0.49468778  0.87867420  0.49663726  1
  O  O341  1  0.49798513  0.87966983  0.99187636  1
  O  O342  1  0.99982894  0.38548749  0.49352811  1
  O  O343  1  0.99210368  0.37693863  0.99194716  1
  O  O344  1  0.99168924  0.87885885  0.49836106  1
  O  O345  1  0.99088220  0.88160649  0.99913610  1
  O  O346  1  0.49482017  0.50016562  0.38645644  1
  O  O347  1  0.49470838  0.49298152  0.88377937  1
  O  O348  1  0.49423624  0.99490338  0.37958935  1
  O  O349  1  0.49733807  0.98848407  0.88206852  1
  O  O350  1  0.99826260  0.49706108  0.38072388  1
  O  O351  1  0.99243924  0.49484795  0.87419963  1
  O  O352  1  0.98730277  0.99993081  0.37355327  1
  O  O353  1  0.98825460  0.99952486  0.88130310  1
  O  O354  1  -0.00360446  0.00832732  0.11891710  1
  O  O355  1  0.01189712  0.00792578  0.62269148  1
  O  O356  1  0.00544219  0.50590469  0.12540930  1
  O  O357  1  0.00471312  0.50500070  0.61740107  1
  O  O358  1  0.49741795  0.00395011  0.11778390  1
  O  O359  1  0.50301605  0.00875761  0.61852245  1
  O  O360  1  0.49348885  0.50932146  0.11561990  1
  O  O361  1  0.49831690  0.51015802  0.61443733  1
  O  O362  1  0.24526414  0.37961812  0.24492375  1
  O  O363  1  0.24668503  0.38039590  0.74501399  1
  O  O364  1  0.25257188  0.88655748  0.25174259  1
  O  O365  1  0.23967969  0.86587099  0.74064172  1
  O  O366  1  0.74332116  0.38150032  0.24412943  1
  O  O367  1  0.74433309  0.38280198  0.74407732  1
  O  O368  1  0.75098452  0.88475594  0.24040545  1
  O  O369  1  0.74018407  0.87458604  0.74516507  1
  O  O370  1  0.25532145  0.11824317  0.25588776  1
  O  O371  1  0.26435468  0.12875197  0.74740026  1
  O  O372  1  0.25642385  0.61898782  0.25912384  1
  O  O373  1  0.25716567  0.61935000  0.75538036  1
  O  O374  1  0.75532171  0.11687201  0.24811273  1
  O  O375  1  0.75147169  0.12418634  0.75812506  1
  O  O376  1  0.75362763  0.61615474  0.25082280  1
  O  O377  1  0.75454120  0.61956587  0.75454682  1
  O  O378  1  0.37011946  0.11990579  0.37045660  1
  O  O379  1  0.37509506  0.12450941  0.86036185  1
  O  O380  1  0.36762392  0.61897659  0.37044837  1
  O  O381  1  0.37070443  0.61853219  0.86992094  1
  O  O382  1  0.87300562  0.11711139  0.36825703  1
  O  O383  1  0.86482791  0.11516865  0.87516940  1
  O  O384  1  0.87172012  0.61802673  0.36765123  1
  O  O385  1  0.86610474  0.62172869  0.86725287  1
  O  O386  1  0.13047339  0.37909775  0.13027167  1
  O  O387  1  0.13268392  0.38313995  0.63000774  1
  O  O388  1  0.12831155  0.87909989  0.13283272  1
  O  O389  1  0.13245510  0.88158367  0.63251193  1
  O  O390  1  0.63097932  0.36944651  0.13799604  1
  O  O391  1  0.63812481  0.37516188  0.63317132  1
  O  O392  1  0.63504381  0.87689574  0.12788001  1
  O  O393  1  0.63029878  0.87192710  0.63482257  1
  O  O394  1  0.11945772  0.25417724  0.25448607  1
  O  O395  1  0.12391307  0.25832898  0.75597131  1
  O  O396  1  0.11189374  0.74844577  0.25123831  1
  O  O397  1  0.12050520  0.75821740  0.75579270  1
  O  O398  1  0.62099440  0.25785103  0.25577668  1
  O  O399  1  0.62351275  0.26576981  0.74748921  1
  O  O400  1  0.61768732  0.75188636  0.25911827  1
  O  O401  1  0.61971488  0.75883732  0.75898400  1
  O  O402  1  0.37953660  0.24555854  0.24548320  1
  O  O403  1  0.38118670  0.23792196  0.74732005  1
  O  O404  1  0.37992159  0.74359283  0.24426882  1
  O  O405  1  0.38282233  0.74076395  0.75015936  1
  O  O406  1  0.87920507  0.24698701  0.24425710  1
  O  O407  1  0.88034877  0.24573543  0.74325623  1
  O  O408  1  0.88027835  0.74489973  0.24474786  1
  O  O409  1  0.88041496  0.74678194  0.74413220  1
  O  O410  1  0.38582427  0.49492883  0.49607497  1
  O  O411  1  0.37970924  0.49243361  0.99402469  1
  O  O412  1  0.38069300  0.99391585  0.49518714  1
  O  O413  1  0.38672830  0.99556130  0.99841581  1
  O  O414  1  0.88670500  0.49900429  0.49302741  1
  O  O415  1  0.87379830  0.49224333  0.99118577  1
  O  O416  1  0.87402987  0.99576826  0.48861910  1
  O  O417  1  0.87755056  0.99563208  0.99157623  1
  O  O418  1  0.11473496  0.00623048  0.00189370  1
  O  O419  1  0.12567135  0.00561060  0.51061053  1
  O  O420  1  0.12248612  0.50168758  0.00807095  1
  O  O421  1  0.11456437  0.49560732  0.50604490  1
  O  O422  1  0.60911294  0.00052674  0.00172511  1
  O  O423  1  0.61792458  0.00349317  0.49976567  1
  O  O424  1  0.61268366  0.49420306  -0.00314532  1
  O  O425  1  0.61722950  0.51019575  0.49212125  1
  O  O426  1  0.36917363  0.36942226  0.12011540  1
  O  O427  1  0.37012840  0.37489019  0.61924977  1
  O  O428  1  0.37282954  0.85858297  0.12488188  1
  O  O429  1  0.36616406  0.87533238  0.62326895  1
  O  O430  1  0.86836964  0.37008760  0.11854808  1
  O  O431  1  0.86103093  0.37382400  0.62264616  1
  O  O432  1  0.86448818  0.87088158  0.11994202  1
  O  O433  1  0.87131375  0.87081440  0.62039536  1
  O  O434  1  0.13051547  0.13024508  0.38054822  1
  O  O435  1  0.12334114  0.13178395  0.88087201  1
  O  O436  1  0.14066639  0.62570658  0.37118371  1
  O  O437  1  0.13250074  0.63105664  0.87471625  1
  O  O438  1  0.62787402  0.13885134  0.37425497  1
  O  O439  1  0.63669819  0.11810927  0.87577540  1
  O  O440  1  0.62589115  0.63221214  0.38735399  1
  O  O441  1  0.63478140  0.63456021  0.86580294  1
