# generated using pymatgen
data_V93Zn93O256
_symmetry_space_group_name_H-M   'P 1'
_cell_length_a   17.05410003
_cell_length_b   17.04700446
_cell_length_c   17.05483621
_cell_angle_alpha   89.99649517
_cell_angle_beta   90.03479547
_cell_angle_gamma   89.99719662
_symmetry_Int_Tables_number   1
_chemical_formula_structural   V93Zn93O256
_chemical_formula_sum   'V93 Zn93 O256'
_cell_volume   4958.20355437
_cell_formula_units_Z   1
loop_
 _symmetry_equiv_pos_site_id
 _symmetry_equiv_pos_as_xyz
  1  'x, y, z'
loop_
 _atom_site_type_symbol
 _atom_site_label
 _atom_site_symmetry_multiplicity
 _atom_site_fract_x
 _atom_site_fract_y
 _atom_site_fract_z
 _atom_site_occupancy
  V  V0  1  0.24968432  0.75002829  0.00016739  1
  V  V1  1  0.87405818  0.25003196  0.12458350  1
  V  V2  1  0.74229973  0.12571292  0.37547523  1
  V  V3  1  0.49991864  0.50137497  0.49938788  1
  V  V4  1  0.87656332  0.25053995  0.62562337  1
  V  V5  1  0.38195557  0.12988590  0.74993894  1
  V  V6  1  0.49897258  0.12539048  0.12575251  1
  V  V7  1  0.38186228  0.25101096  0.62747016  1
  V  V8  1  0.74902613  -0.00189520  0.25063045  1
  V  V9  1  -0.00185515  0.62608881  0.62837592  1
  V  V10  1  0.00196888  0.25225453  0.25161615  1
  V  V11  1  0.37605076  0.62469174  0.74956055  1
  V  V12  1  0.50047717  0.37454531  0.37487713  1
  V  V13  1  0.37476621  0.00136037  0.87413070  1
  V  V14  1  0.12823239  0.49442456  0.62501198  1
  V  V15  1  -0.00051323  0.49918203  0.49985298  1
  V  V16  1  0.24834958  0.87585030  0.12452715  1
  V  V17  1  0.12617857  0.74988957  0.37554497  1
  V  V18  1  0.74976175  0.37551030  0.62487603  1
  V  V19  1  0.25046014  0.25282935  0.50430120  1
  V  V20  1  0.49967333  0.62493789  0.62379057  1
  V  V21  1  0.62180965  0.36747344  0.74959426  1
  V  V22  1  0.74809690  0.37481599  0.12455433  1
  V  V23  1  0.62497622  0.12536386  -0.00025378  1
  V  V24  1  0.12485483  0.87348097  0.74991174  1
  V  V25  1  0.74854292  0.24991143  -0.00066615  1
  V  V26  1  0.24297247  0.25078706  -0.00366320  1
  V  V27  1  0.12453166  0.00053935  0.12354721  1
  V  V28  1  0.62352152  0.62719722  0.49881672  1
  V  V29  1  0.37097777  0.37549994  0.50595507  1
  V  V30  1  0.87266317  -0.00161522  0.87095504  1
  V  V31  1  0.50017971  0.62548933  0.12773909  1
  V  V32  1  0.75016000  0.12262261  0.87257622  1
  V  V33  1  0.00252020  0.00112159  0.49991489  1
  V  V34  1  0.12555786  0.49995756  0.12578221  1
  V  V35  1  0.62418279  0.37414119  0.24971153  1
  V  V36  1  0.49940962  0.24933081  0.25009227  1
  V  V37  1  0.62490341  -0.00331651  0.12944450  1
  V  V38  1  0.25041131  0.49434781  0.74655401  1
  V  V39  1  0.25080162  0.62447617  0.87500465  1
  V  V40  1  -0.00057183  0.74983293  0.25006002  1
  V  V41  1  0.63110560  0.87833534  0.75056092  1
  V  V42  1  0.75035988  0.75245612  0.50395707  1
  V  V43  1  0.24948804  0.62499707  0.37558275  1
  V  V44  1  0.49961922  0.36784209  0.87107326  1
  V  V45  1  0.87453306  0.75051204  0.12528927  1
  V  V46  1  0.50130509  0.00238756  0.50210505  1
  V  V47  1  0.12530940  0.36966239  0.75307785  1
  V  V48  1  0.12460648  0.75005269  0.87409527  1
  V  V49  1  0.74733534  0.87492349  0.12864896  1
  V  V50  1  0.12591037  0.87566344  0.24965615  1
  V  V51  1  0.25095435  0.49930101  0.24959669  1
  V  V52  1  0.37605000  0.49933306  0.87494005  1
  V  V53  1  0.87432754  0.62582477  0.25032637  1
  V  V54  1  0.37541060  0.12550117  0.25007916  1
  V  V55  1  0.24202232  0.12956056  0.87392532  1
  V  V56  1  -0.00041644  0.00076785  -0.00017477  1
  V  V57  1  0.87515167  0.87533823  0.00010365  1
  V  V58  1  0.37415369  0.50045960  0.37526612  1
  V  V59  1  0.25145623  0.12598217  0.37553642  1
  V  V60  1  0.00039922  0.49924983  -0.00050035  1
  V  V61  1  0.37424651  0.75157388  0.62461573  1
  V  V62  1  0.74699701  0.62706837  0.37481712  1
  V  V63  1  0.49919542  0.00013605  0.00065765  1
  V  V64  1  0.87469393  0.12464277  0.24957143  1
  V  V65  1  0.62380588  0.74974820  0.87508688  1
  V  V66  1  0.00043576  0.12470456  0.12413368  1
  V  V67  1  0.25048539  0.00124643  0.74941448  1
  V  V68  1  0.87421434  0.37552001  0.49981766  1
  V  V69  1  0.87502355  0.50029440  0.37550656  1
  V  V70  1  0.37923208  -0.00208673  0.37486842  1
  V  V71  1  0.12567571  0.62507534  0.50009902  1
  V  V72  1  0.12626137  0.00067658  0.62444480  1
  V  V73  1  0.37399278  0.87565746  -0.00151847  1
  V  V74  1  0.37596268  0.75094601  0.12586717  1
  V  V75  1  0.50062314  0.87441866  0.87495420  1
  V  V76  1  0.63095112  0.00051950  0.62955953  1
  V  V77  1  0.87633520  0.87437224  0.50150473  1
  V  V78  1  0.75019866  0.62393387  0.87552123  1
  V  V79  1  0.50697509  0.76270243  0.25626044  1
  V  V80  1  0.87644277  0.00094811  0.37476233  1
  V  V81  1  0.87339458  0.12278947  0.74857717  1
  V  V82  1  0.12466609  0.62450806  -0.00055981  1
  V  V83  1  0.37836806  0.87580730  0.49718367  1
  V  V84  1  0.62435189  0.62476606  0.00021986  1
  V  V85  1  0.87444367  0.37588385  -0.00133266  1
  V  V86  1  0.00296558  0.36783645  0.87515699  1
  V  V87  1  0.12573920  0.12564656  0.50023693  1
  V  V88  1  0.00148013  0.87556307  0.37542064  1
  V  V89  1  0.75029460  0.49997164  0.75009428  1
  V  V90  1  0.62461529  0.49946651  0.12529702  1
  V  V91  1  0.37377381  0.25037422  0.12440839  1
  V  V92  1  0.37474920  0.37469215  -0.00094531  1
  Zn  Zn93  1  0.25059953  0.75209354  0.49863534  1
  Zn  Zn94  1  0.25055109  0.37380907  0.12503133  1
  Zn  Zn95  1  0.00666025  0.24665197  0.75321940  1
  Zn  Zn96  1  0.12499385  0.37503512  0.25297477  1
  Zn  Zn97  1  0.75598667  0.88010872  0.63167569  1
  Zn  Zn98  1  -0.00262656  0.62522023  0.12400035  1
  Zn  Zn99  1  0.12527822  0.25237734  0.37608570  1
  Zn  Zn100  1  -0.00274012  0.74884705  0.75224851  1
  Zn  Zn101  1  0.62385880  0.77101492  0.37550838  1
  Zn  Zn102  1  0.00126105  0.12599059  0.62579202  1
  Zn  Zn103  1  0.37667029  0.62828985  0.25233185  1
  Zn  Zn104  1  0.75008387  0.49893202  0.25037185  1
  Zn  Zn105  1  -0.00095514  0.87312237  0.87499610  1
  Zn  Zn106  1  0.50001439  0.75006005  0.75036616  1
  Zn  Zn107  1  0.25025155  0.00116123  0.24980617  1
  Zn  Zn108  1  0.61994577  0.24574062  0.87126106  1
  Zn  Zn109  1  0.75047778  0.74987336  0.00055234  1
  Zn  Zn110  1  0.50524204  0.12861129  0.63091183  1
  Zn  Zn111  1  0.25122184  0.87563140  0.62444660  1
  Zn  Zn112  1  0.00036448  0.37494402  0.37504782  1
  Zn  Zn113  1  0.87626567  0.75209677  0.62854569  1
  Zn  Zn114  1  0.62388604  0.49976925  0.62420399  1
  Zn  Zn115  1  0.49892537  0.49905187  -0.00017213  1
  Zn  Zn116  1  0.87660002  0.49998133  0.87445678  1
  Zn  Zn117  1  0.87483908  0.62725942  0.75069196  1
  Zn  Zn118  1  0.12129838  0.12937395  -0.00433620  1
  Zn  Zn119  1  0.74779707  0.25002315  0.49760421  1
  Zn  Zn120  1  0.62646958  0.12802399  0.50629891  1
  Zn  Zn121  1  0.62471759  0.24989964  0.37761885  1
  Zn  Zn122  1  0.18767533  0.18657068  0.18573451  1
  Zn  Zn123  1  0.19348763  0.18706032  0.68400072  1
  Zn  Zn124  1  0.18732897  0.68651714  0.18809783  1
  Zn  Zn125  1  0.18839786  0.68513808  0.68719307  1
  Zn  Zn126  1  0.68545053  0.18622651  0.18948745  1
  Zn  Zn127  1  0.69110553  0.18709889  0.68681995  1
  Zn  Zn128  1  0.68605541  0.68945394  0.18869522  1
  Zn  Zn129  1  0.68371234  0.68872192  0.68848645  1
  Zn  Zn130  1  0.31318913  0.31336881  0.31523971  1
  Zn  Zn131  1  0.31227730  0.31180480  0.81279269  1
  Zn  Zn132  1  0.31413084  0.81270332  0.31127627  1
  Zn  Zn133  1  0.31162488  0.81251533  0.81172921  1
  Zn  Zn134  1  0.81260211  0.31226318  0.31227016  1
  Zn  Zn135  1  0.81340591  0.31098891  0.81259934  1
  Zn  Zn136  1  0.81210202  0.81307636  0.31398616  1
  Zn  Zn137  1  0.81304215  0.80889405  0.81228520  1
  Zn  Zn138  1  0.18510403  0.43568419  0.43524992  1
  Zn  Zn139  1  0.18758992  0.43633221  0.93549291  1
  Zn  Zn140  1  0.19224178  0.93767326  0.43805255  1
  Zn  Zn141  1  0.18668795  0.93977699  0.93624283  1
  Zn  Zn142  1  0.68684357  0.43861508  0.43761662  1
  Zn  Zn143  1  0.68377823  0.43793405  0.93693806  1
  Zn  Zn144  1  0.69105866  0.94228863  0.44453280  1
  Zn  Zn145  1  0.68807053  0.93733324  0.94035407  1
  Zn  Zn146  1  0.30978831  0.06417734  0.06082905  1
  Zn  Zn147  1  0.31291630  0.06492417  0.56432636  1
  Zn  Zn148  1  0.31374971  0.56292519  0.06256816  1
  Zn  Zn149  1  0.31174393  0.56356206  0.56250625  1
  Zn  Zn150  1  0.81267447  0.06207970  0.06085916  1
  Zn  Zn151  1  0.81284152  0.06298876  0.56022763  1
  Zn  Zn152  1  0.81211444  0.56123378  0.06271402  1
  Zn  Zn153  1  0.81212234  0.56245702  0.56285464  1
  Zn  Zn154  1  0.43673970  0.43696852  0.18730726  1
  Zn  Zn155  1  0.43926364  0.43764878  0.68687027  1
  Zn  Zn156  1  0.43318937  0.93881696  0.18461476  1
  Zn  Zn157  1  0.44154752  0.93834105  0.68759081  1
  Zn  Zn158  1  0.93586979  0.43845609  0.18715211  1
  Zn  Zn159  1  0.93849310  0.43794289  0.68876147  1
  Zn  Zn160  1  0.93713519  0.93692108  0.18737434  1
  Zn  Zn161  1  0.94024083  0.93807306  0.68656801  1
  Zn  Zn162  1  0.06498906  0.06452392  0.31237923  1
  Zn  Zn163  1  0.05909750  0.06013740  0.81057117  1
  Zn  Zn164  1  0.06129485  0.56357459  0.31241562  1
  Zn  Zn165  1  0.06294948  0.55895303  0.81363570  1
  Zn  Zn166  1  0.56124011  -0.05605788  0.31371546  1
  Zn  Zn167  1  0.56336210  0.05975072  0.81302104  1
  Zn  Zn168  1  0.56331206  0.56310137  0.31144834  1
  Zn  Zn169  1  0.56217244  0.55830579  0.81133551  1
  Zn  Zn170  1  0.43937058  0.18642287  0.43733785  1
  Zn  Zn171  1  0.43322538  0.18771223  0.93822839  1
  Zn  Zn172  1  0.43675010  0.68866046  0.43592958  1
  Zn  Zn173  1  0.43793867  0.68764797  0.93843018  1
  Zn  Zn174  1  0.93554636  0.18691736  0.43750469  1
  Zn  Zn175  1  0.93613784  0.18780456  0.93776531  1
  Zn  Zn176  1  0.93716224  0.68705602  0.43908265  1
  Zn  Zn177  1  0.93754646  0.68778679  0.93773265  1
  Zn  Zn178  1  0.06222892  0.31481522  0.06499123  1
  Zn  Zn179  1  0.06094985  0.31243219  0.56310259  1
  Zn  Zn180  1  0.06063068  0.81294661  0.06189073  1
  Zn  Zn181  1  0.06368888  0.81200143  0.56328920  1
  Zn  Zn182  1  0.56104954  0.31236178  0.05968994  1
  Zn  Zn183  1  0.56352587  0.31290097  0.56085438  1
  Zn  Zn184  1  0.56294938  0.81091685  0.06214321  1
  Zn  Zn185  1  0.56286204  0.81482631  0.56263626  1
  O  O186  1  0.11785905  0.11778246  0.12245654  1
  O  O187  1  0.12449851  0.11906021  0.61885680  1
  O  O188  1  0.12429840  0.61524897  0.11868311  1
  O  O189  1  0.11843962  0.61516569  0.62121220  1
  O  O190  1  0.62019905  0.11590653  0.11911697  1
  O  O191  1  0.62308714  0.11632203  0.62898401  1
  O  O192  1  0.61827496  0.62087639  0.12114217  1
  O  O193  1  0.61713287  0.62514061  0.61704233  1
  O  O194  1  0.38107710  0.38093411  0.38488366  1
  O  O195  1  0.38199977  0.37962356  0.87749903  1
  O  O196  1  0.36804597  0.88533385  0.38527537  1
  O  O197  1  0.37907278  0.88092947  0.87945808  1
  O  O198  1  0.87533400  0.38251826  0.38126786  1
  O  O199  1  0.88298284  0.37686494  0.88098559  1
  O  O200  1  0.88201827  0.88110850  0.38028573  1
  O  O201  1  0.87296488  0.88434120  0.87920449  1
  O  O202  1  0.26157485  0.00757474  0.37479010  1
  O  O203  1  0.25633529  0.00901170  0.87033123  1
  O  O204  1  0.25350403  0.50492649  0.36750745  1
  O  O205  1  0.25529932  0.50589484  0.86656755  1
  O  O206  1  0.75841483  0.00710835  0.36986150  1
  O  O207  1  0.76104452  0.01155577  0.88309311  1
  O  O208  1  0.75585220  0.51201824  0.37510258  1
  O  O209  1  0.74870658  0.50792125  0.86758412  1
  O  O210  1  0.24340921  0.50091307  0.13313769  1
  O  O211  1  0.24039050  0.50688485  0.63570926  1
  O  O212  1  0.24392830  0.99364518  0.12519927  1
  O  O213  1  0.24414081  1.00021569  0.63229141  1
  O  O214  1  0.74262493  0.49276530  0.12661370  1
  O  O215  1  0.74802065  0.49508614  0.63397173  1
  O  O216  1  0.74351300  0.99488818  0.12885308  1
  O  O217  1  0.73553775  0.99784331  0.61764577  1
  O  O218  1  -0.00099621  0.36324715  0.24914873  1
  O  O219  1  0.00774858  0.37520004  0.75855470  1
  O  O220  1  0.00552023  0.86991902  0.25615046  1
  O  O221  1  0.01423100  0.87423106  0.75193982  1
  O  O222  1  0.50360160  0.36928888  0.25497764  1
  O  O223  1  0.51045511  0.38241561  0.75866521  1
  O  O224  1  0.49881071  0.86689694  0.24739681  1
  O  O225  1  0.50909160  0.87343824  0.75840849  1
  O  O226  1  0.48981712  0.13405365  0.23953585  1
  O  O227  1  0.48515478  0.12276686  0.75443076  1
  O  O228  1  0.49961046  0.63379023  0.23935644  1
  O  O229  1  0.49315439  0.62454704  0.74327846  1
  O  O230  1  0.99468716  0.13227877  0.24424480  1
  O  O231  1  0.98857080  0.12877223  0.74915898  1
  O  O232  1  0.99247982  0.63258116  0.24868216  1
  O  O233  1  0.99996875  0.62231519  0.74036934  1
  O  O234  1  0.36538929  0.25483898  0.00559708  1
  O  O235  1  0.36995587  0.25696858  0.50557756  1
  O  O236  1  0.36903466  0.75608465  0.00489614  1
  O  O237  1  0.37603042  0.75894742  0.50649855  1
  O  O238  1  0.86874996  0.25560996  0.00596440  1
  O  O239  1  0.87455283  0.25577873  0.51022837  1
  O  O240  1  0.87291074  0.75674327  0.00658761  1
  O  O241  1  0.86682343  0.75553051  0.50155725  1
  O  O242  1  0.13471943  0.24616861  0.50240347  1
  O  O243  1  0.13863812  0.25016708  1.00642252  1
  O  O244  1  0.12773407  0.74404147  0.49323893  1
  O  O245  1  0.13071169  0.74520136  0.99536993  1
  O  O246  1  0.62831519  0.24537036  0.49627394  1
  O  O247  1  0.63075283  0.24207192  0.99767417  1
  O  O248  1  0.63246530  0.74688578  0.49592225  1
  O  O249  1  0.62761305  0.74297404  0.99356961  1
  O  O250  1  0.49327503  0.24509047  0.12824365  1
  O  O251  1  0.48608554  0.24663143  0.61843877  1
  O  O252  1  0.49666166  0.74551325  0.13417897  1
  O  O253  1  0.48849919  0.74438021  0.62499196  1
  O  O254  1  0.99391949  0.24523904  0.13125611  1
  O  O255  1  0.98741676  0.24841951  0.62794133  1
  O  O256  1  0.99301000  0.74921249  0.13199447  1
  O  O257  1  1.00213203  0.73682125  0.62642491  1
  O  O258  1  -0.00092163  0.24937043  0.36241684  1
  O  O259  1  -0.00353755  0.26325691  0.87409322  1
  O  O260  1  0.00579918  0.75577047  0.37068096  1
  O  O261  1  0.00912525  0.75204711  0.87298760  1
  O  O262  1  0.49961820  0.25701385  0.36818207  1
  O  O263  1  0.49881656  0.26315575  0.87830169  1
  O  O264  1  0.50037439  0.74702799  0.35875052  1
  O  O265  1  0.50573632  0.75671475  0.87519084  1
  O  O266  1  0.24635081  0.13324049  0.49503497  1
  O  O267  1  0.24860520  0.13320611  0.99031434  1
  O  O268  1  0.24296217  0.62534921  0.49305830  1
  O  O269  1  0.24527547  0.63068576  0.99470655  1
  O  O270  1  0.75034982  0.12669899  0.48900858  1
  O  O271  1  0.74552242  0.12970753  0.99255170  1
  O  O272  1  0.74538830  0.63279021  0.49321666  1
  O  O273  1  0.74343425  0.62403758  0.99034744  1
  O  O274  1  0.25633723  0.36670550  -0.00197138  1
  O  O275  1  0.26195488  0.36712425  0.49321475  1
  O  O276  1  0.25466357  0.86972648  0.00407969  1
  O  O277  1  0.26322696  0.87383997  0.50481180  1
  O  O278  1  0.75351938  0.36986198  0.00403940  1
  O  O279  1  0.75659974  0.37573635  0.50717441  1
  O  O280  1  0.75715478  0.87516241  0.01126173  1
  O  O281  1  0.75813345  0.86583496  0.50231523  1
  O  O282  1  0.13301286  0.50242993  0.24199651  1
  O  O283  1  0.13266873  0.49308702  0.74352070  1
  O  O284  1  0.12642858  0.99330232  0.24300368  1
  O  O285  1  0.12982336  0.99255850  0.74525028  1
  O  O286  1  0.62633585  0.49272817  0.24290344  1
  O  O287  1  0.63558036  0.49031702  0.74821370  1
  O  O288  1  0.62924007  0.99997269  0.23435198  1
  O  O289  1  0.61885041  0.99008785  0.74163709  1
  O  O290  1  0.37466654  0.00519533  0.25889857  1
  O  O291  1  0.37029697  0.00814479  0.75454901  1
  O  O292  1  0.36620389  0.50147764  0.25566697  1
  O  O293  1  0.36696375  0.50370805  0.75307522  1
  O  O294  1  0.87041118  0.00533405  0.25494705  1
  O  O295  1  0.88058990  0.00907031  0.75982009  1
  O  O296  1  0.87262061  0.50755814  0.25607028  1
  O  O297  1  0.86115186  0.50130059  0.75182529  1
  O  O298  1  0.11846380  0.37027675  0.37105048  1
  O  O299  1  0.11515439  0.38096199  0.86444656  1
  O  O300  1  0.12147801  0.87059008  0.37024520  1
  O  O301  1  0.12561470  0.86996495  0.86573340  1
  O  O302  1  0.61811304  0.37529041  0.36818991  1
  O  O303  1  0.61665969  0.37282528  0.86775361  1
  O  O304  1  0.63049884  0.88245035  0.37392977  1
  O  O305  1  0.62120982  0.87196951  0.87048371  1
  O  O306  1  0.37894206  0.12967015  0.12870399  1
  O  O307  1  0.37696385  0.13218372  0.63464533  1
  O  O308  1  0.38427006  0.63190142  0.12580638  1
  O  O309  1  0.37967075  0.63243270  0.62875295  1
  O  O310  1  0.87974617  0.12991171  0.12972190  1
  O  O311  1  0.87366261  0.13113860  0.63347643  1
  O  O312  1  0.87366098  0.63211123  0.13168724  1
  O  O313  1  0.88749184  0.62472841  0.62515539  1
  O  O314  1  0.25640387  0.25112103  0.11606670  1
  O  O315  1  0.26295109  0.24604355  0.61024923  1
  O  O316  1  0.25491449  0.75494149  0.11981594  1
  O  O317  1  0.26372474  0.74845187  0.62238553  1
  O  O318  1  0.75446436  0.25415124  0.11952801  1
  O  O319  1  0.76216682  0.25642405  0.62429591  1
  O  O320  1  0.75440630  0.75942808  0.12488304  1
  O  O321  1  0.75052009  0.74940682  0.61230803  1
  O  O322  1  0.25219798  0.24381840  0.38698385  1
  O  O323  1  0.25621788  0.24040512  0.88448711  1
  O  O324  1  0.24406019  0.74299150  0.37431229  1
  O  O325  1  0.24558882  0.74405597  0.88083205  1
  O  O326  1  0.75026153  0.23977126  0.37492784  1
  O  O327  1  0.75062718  0.23800346  0.88152776  1
  O  O328  1  0.74919819  0.74236437  0.38449736  1
  O  O329  1  0.74303025  0.73855372  0.87645351  1
  O  O330  1  0.00073447  0.12028632  0.00547772  1
  O  O331  1  0.00700313  0.11867046  0.50044912  1
  O  O332  1  0.00704616  0.61776394  0.00102784  1
  O  O333  1  0.00624834  0.61901825  0.50761934  1
  O  O334  1  0.50375487  0.11982102  0.00503024  1
  O  O335  1  0.49989696  0.11198941  0.50291549  1
  O  O336  1  0.50459797  0.62623017  0.01294498  1
  O  O337  1  0.50377318  0.62092620  0.50307445  1
  O  O338  1  0.49130031  0.38153762  0.49452783  1
  O  O339  1  0.49327608  0.37721871  0.99020914  1
  O  O340  1  0.48769025  0.88695230  0.50645835  1
  O  O341  1  0.49361587  0.88037769  0.99556602  1
  O  O342  1  0.99201108  0.38226450  0.50023929  1
  O  O343  1  0.99594801  0.37887292  0.99343956  1
  O  O344  1  0.99689305  0.88030634  0.49415808  1
  O  O345  1  0.99232019  0.88240391  0.99825203  1
  O  O346  1  0.49348546  0.49591471  0.37956483  1
  O  O347  1  0.49302547  0.49053464  0.87709934  1
  O  O348  1  0.48602535  0.99893094  0.38484898  1
  O  O349  1  0.49437726  0.99456783  0.88237990  1
  O  O350  1  0.99261358  0.50134154  0.38241955  1
  O  O351  1  0.99821733  0.48995246  0.88181991  1
  O  O352  1  0.99642376  0.99484198  0.37950801  1
  O  O353  1  0.98808996  0.99893712  0.88090289  1
  O  O354  1  0.00375130  0.00529685  0.11984559  1
  O  O355  1  0.00823319  0.00255929  0.61722290  1
  O  O356  1  0.00958083  0.50143281  0.11958791  1
  O  O357  1  0.00794006  0.50760379  0.62068863  1
  O  O358  1  0.50656178  0.00386110  0.11991665  1
  O  O359  1  0.50883944  0.00333997  0.61837256  1
  O  O360  1  0.50416863  0.51046126  0.12518054  1
  O  O361  1  0.49982555  0.50768704  0.61680603  1
  O  O362  1  0.24910817  0.38783131  0.24951225  1
  O  O363  1  0.24183177  0.38792213  0.75829312  1
  O  O364  1  0.24373689  0.87612017  0.24230676  1
  O  O365  1  0.24093273  0.88203671  0.74951779  1
  O  O366  1  0.74326638  0.37523261  0.24212957  1
  O  O367  1  0.74348069  0.38220469  0.74697703  1
  O  O368  1  0.75728518  0.88147574  0.23627001  1
  O  O369  1  0.73555399  0.87027712  0.75027540  1
  O  O370  1  0.25771997  0.12485146  0.25641157  1
  O  O371  1  0.25829474  0.12130066  0.75715665  1
  O  O372  1  0.25222698  0.61510850  0.25538815  1
  O  O373  1  0.25523222  0.61506240  0.75582161  1
  O  O374  1  0.75592663  0.11822590  0.25463609  1
  O  O375  1  0.76179506  0.12945274  0.76156983  1
  O  O376  1  0.75441731  0.62668000  0.26045185  1
  O  O377  1  0.74632951  0.61646306  0.75826747  1
  O  O378  1  0.37083245  0.11698347  0.37067627  1
  O  O379  1  0.36655164  0.12077282  0.86817059  1
  O  O380  1  0.36825331  0.61771295  0.37417558  1
  O  O381  1  0.37071518  0.62009320  0.86995904  1
  O  O382  1  0.86934322  0.11891886  0.36817990  1
  O  O383  1  0.86908791  0.11860264  0.86891326  1
  O  O384  1  0.86589520  0.62129426  0.37144872  1
  O  O385  1  0.86208848  0.62243977  0.87467397  1
  O  O386  1  0.12851662  0.38940727  0.12747505  1
  O  O387  1  0.11739467  0.38953479  0.63338713  1
  O  O388  1  0.12932669  0.87998665  0.12981957  1
  O  O389  1  0.12823022  0.88003627  0.63353948  1
  O  O390  1  0.62821538  0.37938567  0.12903375  1
  O  O391  1  0.63004532  0.37669531  0.63329617  1
  O  O392  1  0.63555165  0.88544746  0.11517192  1
  O  O393  1  0.62522225  0.88208597  0.63456682  1
  O  O394  1  0.11370859  0.25097677  0.24884433  1
  O  O395  1  0.12731366  0.26617074  0.73765523  1
  O  O396  1  0.11945375  0.75521115  0.25516448  1
  O  O397  1  0.12784991  0.75834058  0.75510934  1
  O  O398  1  0.61677423  0.25653215  0.25064787  1
  O  O399  1  0.63208433  0.26356072  0.75207290  1
  O  O400  1  0.60996189  0.75022562  0.25074002  1
  O  O401  1  0.62053318  0.75886157  0.75657631  1
  O  O402  1  0.37880756  0.24662456  0.24423757  1
  O  O403  1  0.36529923  0.24239664  0.73829402  1
  O  O404  1  0.38749406  0.75046738  0.24395070  1
  O  O405  1  0.37580897  0.74420929  0.74160641  1
  O  O406  1  0.88260809  0.24457766  0.24320330  1
  O  O407  1  0.87663293  0.24183605  0.74147920  1
  O  O408  1  0.88025332  0.74578315  0.24585649  1
  O  O409  1  0.87901353  0.74555877  0.74579645  1
  O  O410  1  0.37779394  0.49284596  0.49631671  1
  O  O411  1  0.37447976  0.49342507  0.99281088  1
  O  O412  1  0.38062653  0.99539561  0.49570695  1
  O  O413  1  0.37961673  0.99530906  0.99474172  1
  O  O414  1  0.87990835  0.49533075  0.49557800  1
  O  O415  1  0.88204537  0.49265590  1.00023202  1
  O  O416  1  0.88240408  0.99464487  0.49437958  1
  O  O417  1  0.88025355  0.99611460  0.99170285  1
  O  O418  1  0.11745760  0.00195921  0.00542960  1
  O  O419  1  0.12209769  0.00496852  0.50434223  1
  O  O420  1  0.12239844  0.50444724  0.00739319  1
  O  O421  1  0.12143746  0.50369723  0.50810650  1
  O  O422  1  0.61928679  0.00599484  0.00825786  1
  O  O423  1  0.61553800  0.00248721  0.51085754  1
  O  O424  1  0.62112285  0.50675164  0.00737648  1
  O  O425  1  0.61736197  0.50773030  0.50131858  1
  O  O426  1  0.37375924  0.36900535  0.11750264  1
  O  O427  1  0.38040709  0.36841302  0.61350404  1
  O  O428  1  0.36843095  0.87076780  0.11735155  1
  O  O429  1  0.37483590  0.86685360  0.61957191  1
  O  O430  1  0.86839085  0.36964453  0.11869400  1
  O  O431  1  0.87051769  0.36846458  0.62179607  1
  O  O432  1  0.86690004  0.87134284  0.11984050  1
  O  O433  1  0.87396526  0.87387877  0.61830547  1
  O  O434  1  0.13315141  0.12793726  0.38211551  1
  O  O435  1  0.13824511  0.11999482  0.87290631  1
  O  O436  1  0.12937777  0.63012901  0.38053495  1
  O  O437  1  0.13169414  0.62878034  0.87996215  1
  O  O438  1  0.64132580  0.12408829  0.37541309  1
  O  O439  1  0.63385680  0.12389147  0.87891983  1
  O  O440  1  0.63553246  0.62569998  0.37988533  1
  O  O441  1  0.63057611  0.62824742  0.87931046  1
