# generated using pymatgen
data_V93Zn93O256
_symmetry_space_group_name_H-M   'P 1'
_cell_length_a   17.04874531
_cell_length_b   17.04777664
_cell_length_c   17.04779221
_cell_angle_alpha   90.01007228
_cell_angle_beta   89.98617247
_cell_angle_gamma   89.96059713
_symmetry_Int_Tables_number   1
_chemical_formula_structural   V93Zn93O256
_chemical_formula_sum   'V93 Zn93 O256'
_cell_volume   4954.82352334
_cell_formula_units_Z   1
loop_
 _symmetry_equiv_pos_site_id
 _symmetry_equiv_pos_as_xyz
  1  'x, y, z'
loop_
 _atom_site_type_symbol
 _atom_site_label
 _atom_site_symmetry_multiplicity
 _atom_site_fract_x
 _atom_site_fract_y
 _atom_site_fract_z
 _atom_site_occupancy
  V  V0  1  0.00213366  0.62574255  0.12295246  1
  V  V1  1  0.12517394  0.62457765  0.50050024  1
  V  V2  1  0.12629072  0.50543020  0.12285790  1
  V  V3  1  0.62928848  -0.00304219  0.62388317  1
  V  V4  1  0.75089224  0.37396434  0.62442021  1
  V  V5  1  0.74952351  0.75340579  0.50263884  1
  V  V6  1  0.87646615  0.12512486  0.24936947  1
  V  V7  1  0.24765808  0.25164502  -0.00417630  1
  V  V8  1  0.49979266  0.12559231  0.12459841  1
  V  V9  1  0.00684245  0.24969564  0.75375903  1
  V  V10  1  0.75099946  0.74974005  0.00007202  1
  V  V11  1  0.62457828  0.75110061  0.37597857  1
  V  V12  1  0.75010536  0.25102654  -0.00043472  1
  V  V13  1  0.49778238  0.00042098  0.50062523  1
  V  V14  1  -0.00151663  0.87417390  0.37532935  1
  V  V15  1  0.25096034  0.88140363  0.12652166  1
  V  V16  1  0.49931694  0.49993735  0.50050234  1
  V  V17  1  0.62390025  0.62516667  0.50028911  1
  V  V18  1  0.62994331  0.87402665  0.74800753  1
  V  V19  1  0.00170926  0.87460111  0.87606518  1
  V  V20  1  0.74908043  0.00047437  0.25008473  1
  V  V21  1  0.49992259  0.75052338  0.75181350  1
  V  V22  1  0.62555225  0.50096121  0.12521271  1
  V  V23  1  0.87502587  0.00013474  0.87512351  1
  V  V24  1  0.74917295  0.25042004  0.49943775  1
  V  V25  1  0.62558088  0.62665474  -0.00014492  1
  V  V26  1  0.62419602  0.87649442  0.25051566  1
  V  V27  1  0.12930910  0.88131957  0.25033407  1
  V  V28  1  0.75105809  -0.00256208  0.74683618  1
  V  V29  1  -0.00035347  0.75029292  0.25026950  1
  V  V30  1  0.24885303  0.74833072  0.50157447  1
  V  V31  1  0.00099762  0.49851306  0.50097845  1
  V  V32  1  0.37026799  0.25115820  0.62470308  1
  V  V33  1  0.49893192  0.62938200  0.12586419  1
  V  V34  1  0.87379352  -0.00035057  0.37578417  1
  V  V35  1  0.24431598  0.74830495  0.00065716  1
  V  V36  1  0.00739692  0.37172333  0.87494701  1
  V  V37  1  0.49916860  0.24838293  0.74830011  1
  V  V38  1  0.87451370  0.62563172  0.25084789  1
  V  V39  1  -0.00187156  -0.00017496  0.50074450  1
  V  V40  1  0.37668741  -0.00139110  0.87539124  1
  V  V41  1  0.12439669  0.12895392  -0.00473410  1
  V  V42  1  0.37528944  0.74894429  0.62585559  1
  V  V43  1  0.37589689  0.37564987  -0.00006764  1
  V  V44  1  0.87481277  0.37464053  0.49993305  1
  V  V45  1  0.87065115  0.87471452  0.50322440  1
  V  V46  1  0.62464587  0.25009884  0.37535828  1
  V  V47  1  0.87516049  0.75091457  0.12502257  1
  V  V48  1  0.62470835  0.50039540  0.62478222  1
  V  V49  1  0.87510615  0.87521284  0.00067048  1
  V  V50  1  0.00069430  0.24981596  0.24902643  1
  V  V51  1  0.24347274  0.62430785  0.87973265  1
  V  V52  1  0.12939700  0.49120736  0.62555279  1
  V  V53  1  0.62432022  0.37560145  0.24977459  1
  V  V54  1  0.75003001  0.12516677  0.87413760  1
  V  V55  1  0.12622293  0.12403647  0.49802099  1
  V  V56  1  0.12734474  0.37544099  0.24907913  1
  V  V57  1  0.87643601  0.49867482  0.87528990  1
  V  V58  1  0.00128537  0.37389862  0.37459721  1
  V  V59  1  0.74872890  0.12604618  0.37508703  1
  V  V60  1  0.75176604  0.37519545  0.12453030  1
  V  V61  1  0.37500154  0.25145768  0.12420227  1
  V  V62  1  0.49711647  0.87883416  0.37508679  1
  V  V63  1  0.87519347  0.50102887  0.37523297  1
  V  V64  1  0.87095692  0.75418234  0.62637417  1
  V  V65  1  0.37159507  0.87803730  0.49643238  1
  V  V66  1  0.49895568  0.50132548  -0.00130032  1
  V  V67  1  0.62492938  0.00118956  0.12481789  1
  V  V68  1  0.87496471  0.62456198  0.74963646  1
  V  V69  1  0.75008528  0.49899911  0.75045788  1
  V  V70  1  0.62632294  0.37393987  0.74983305  1
  V  V71  1  0.12659330  -0.00280198  0.62627055  1
  V  V72  1  0.62400740  0.12446248  0.00004835  1
  V  V73  1  0.00360364  0.50445209  -0.00090663  1
  V  V74  1  0.24896527  0.12649645  0.87214389  1
  V  V75  1  0.36686616  0.11551849  0.25526379  1
  V  V76  1  0.49782218  0.25113719  0.24983293  1
  V  V77  1  0.74960015  0.62495729  0.37492235  1
  V  V78  1  0.24902916  0.24937809  0.49685632  1
  V  V79  1  0.62511836  0.24972327  0.87317700  1
  V  V80  1  0.00092925  0.00180346  0.00080967  1
  V  V81  1  -0.00052653  0.12545506  0.62556646  1
  V  V82  1  0.37369945  0.62621371  0.25158007  1
  V  V83  1  0.25065108  0.49430399  0.74714666  1
  V  V84  1  0.12541441  0.87130868  0.75271799  1
  V  V85  1  0.87621663  0.12490245  0.74982588  1
  V  V86  1  0.12408640  0.74886159  0.37692586  1
  V  V87  1  -0.00050451  0.62350557  0.62630910  1
  V  V88  1  0.36935123  0.37608847  0.50288441  1
  V  V89  1  0.00055299  0.12605953  0.12431527  1
  V  V90  1  0.49899221  0.37585156  0.37576926  1
  V  V91  1  0.37493921  0.50051707  0.87454568  1
  V  V92  1  0.74981039  0.62446796  0.87624448  1
  Zn  Zn93  1  0.74899604  0.87554612  0.12475950  1
  Zn  Zn94  1  0.13105898  0.36812097  0.74968689  1
  Zn  Zn95  1  0.37358333  0.12250980  0.74646194  1
  Zn  Zn96  1  0.50121106  0.37610241  0.87503064  1
  Zn  Zn97  1  0.49853732  0.12387245  0.62317447  1
  Zn  Zn98  1  0.50058299  0.62425877  0.62556220  1
  Zn  Zn99  1  0.75017367  0.50034126  0.25033908  1
  Zn  Zn100  1  0.12851337  0.24539417  0.37171428  1
  Zn  Zn101  1  0.87536695  0.25054531  0.12386990  1
  Zn  Zn102  1  0.37326759  0.75265951  0.12462311  1
  Zn  Zn103  1  0.25039240  0.62432264  0.37398948  1
  Zn  Zn104  1  0.37668863  0.87407922  0.00161247  1
  Zn  Zn105  1  0.49857514  0.75212441  0.25106293  1
  Zn  Zn106  1  0.25104679  0.50119847  0.25066941  1
  Zn  Zn107  1  0.87760233  0.37354510  0.00035450  1
  Zn  Zn108  1  0.62324687  0.12495826  0.50053260  1
  Zn  Zn109  1  0.25247934  -0.00102219  0.74998323  1
  Zn  Zn110  1  0.25040836  0.37714185  0.12468853  1
  Zn  Zn111  1  0.12943167  0.00370785  0.12867024  1
  Zn  Zn112  1  0.24887571  0.09991818  0.37049317  1
  Zn  Zn113  1  0.62391812  0.75202214  0.87581623  1
  Zn  Zn114  1  -0.00012596  0.74811875  0.75239013  1
  Zn  Zn115  1  0.25004686  0.87332253  0.62800012  1
  Zn  Zn116  1  0.50052198  -0.00287516  -0.00068092  1
  Zn  Zn117  1  0.87479979  0.24943031  0.62482406  1
  Zn  Zn118  1  0.12084379  0.74312336  0.87933080  1
  Zn  Zn119  1  0.49967224  0.87532842  0.87755270  1
  Zn  Zn120  1  0.37571165  0.62375609  0.75015197  1
  Zn  Zn121  1  0.37200333  0.50069123  0.37514026  1
  Zn  Zn122  1  0.18874019  0.18856186  0.18319223  1
  Zn  Zn123  1  0.18844825  0.18664833  0.68323085  1
  Zn  Zn124  1  0.18829585  0.69154158  0.18737058  1
  Zn  Zn125  1  0.18905544  0.68242548  0.68973069  1
  Zn  Zn126  1  0.68724023  0.18848490  0.18787562  1
  Zn  Zn127  1  0.68649856  0.18397356  0.68439180  1
  Zn  Zn128  1  0.68728942  0.69027549  0.18869752  1
  Zn  Zn129  1  0.68814361  0.68665755  0.68734502  1
  Zn  Zn130  1  0.31273011  0.31020360  0.31429539  1
  Zn  Zn131  1  0.31506710  0.31342318  0.81459618  1
  Zn  Zn132  1  0.31105510  0.81196924  0.31237871  1
  Zn  Zn133  1  0.31026669  0.81238654  0.81405950  1
  Zn  Zn134  1  0.81335392  0.31217715  0.31160279  1
  Zn  Zn135  1  0.81780031  0.31201614  0.81228376  1
  Zn  Zn136  1  0.81052943  0.81295050  0.31360706  1
  Zn  Zn137  1  0.81217473  0.81223343  0.81360926  1
  Zn  Zn138  1  0.18975394  0.43880395  0.43432394  1
  Zn  Zn139  1  0.18789973  0.43879375  0.93687531  1
  Zn  Zn140  1  0.18700420  0.93573863  0.43699638  1
  Zn  Zn141  1  0.18980396  0.93906975  0.94032611  1
  Zn  Zn142  1  0.68726234  0.43799616  0.43741976  1
  Zn  Zn143  1  0.68629658  0.43766582  0.93794552  1
  Zn  Zn144  1  0.68674869  0.93670946  0.43768259  1
  Zn  Zn145  1  0.68714673  0.93656833  0.93559459  1
  Zn  Zn146  1  0.31476327  0.06350687  0.06189508  1
  Zn  Zn147  1  0.31138369  0.06385780  0.55891913  1
  Zn  Zn148  1  0.31176101  0.56425149  0.06259597  1
  Zn  Zn149  1  0.31167387  0.56331731  0.56351565  1
  Zn  Zn150  1  0.81194352  0.06324600  0.06328849  1
  Zn  Zn151  1  0.81115851  0.06400538  0.56258567  1
  Zn  Zn152  1  0.81546441  0.56162682  0.06191288  1
  Zn  Zn153  1  0.81168181  0.56383577  0.56239100  1
  Zn  Zn154  1  0.43679068  0.44006548  0.18651551  1
  Zn  Zn155  1  0.43737356  0.43516480  0.68676351  1
  Zn  Zn156  1  0.43720537  0.93848594  0.18603601  1
  Zn  Zn157  1  0.43930189  0.93603410  0.68826213  1
  Zn  Zn158  1  0.93846815  0.43862731  0.18812916  1
  Zn  Zn159  1  0.93870416  0.43528137  0.68832693  1
  Zn  Zn160  1  0.93919914  0.93852584  0.18660156  1
  Zn  Zn161  1  0.93970380  0.93618857  0.68908363  1
  Zn  Zn162  1  0.06210285  0.06280159  0.31484533  1
  Zn  Zn163  1  0.06365072  0.06123594  0.81313070  1
  Zn  Zn164  1  0.06225725  0.56246439  0.31177750  1
  Zn  Zn165  1  0.06354745  0.55927191  0.80999558  1
  Zn  Zn166  1  0.55908967  0.06407876  0.31173106  1
  Zn  Zn167  1  0.56200283  0.06260268  0.81097917  1
  Zn  Zn168  1  0.56094848  0.56140955  0.31270512  1
  Zn  Zn169  1  0.56230171  0.56474984  0.81243105  1
  Zn  Zn170  1  0.43632161  0.18736255  0.43550127  1
  Zn  Zn171  1  0.43670024  0.18595253  0.93575785  1
  Zn  Zn172  1  0.43811035  0.68924248  0.43728437  1
  Zn  Zn173  1  0.43099573  0.68860117  0.93731813  1
  Zn  Zn174  1  0.93825748  0.18861495  0.43635294  1
  Zn  Zn175  1  0.93615659  0.19018837  0.93702092  1
  Zn  Zn176  1  0.93752431  0.68692043  0.43970083  1
  Zn  Zn177  1  0.93786420  0.68738610  0.93697968  1
  Zn  Zn178  1  0.06308797  0.31438213  0.06274759  1
  Zn  Zn179  1  0.06198656  0.30951455  0.56340457  1
  Zn  Zn180  1  0.06483290  0.81399408  0.06375943  1
  Zn  Zn181  1  0.05805886  0.81129579  0.56429492  1
  Zn  Zn182  1  0.56266934  0.31275806  0.06177610  1
  Zn  Zn183  1  0.56079171  0.31325764  0.56283164  1
  Zn  Zn184  1  0.56326501  0.81507364  0.06066913  1
  Zn  Zn185  1  0.56173494  0.81391656  0.56422540  1
  O  O186  1  0.11992765  0.12313721  0.11484938  1
  O  O187  1  0.11909997  0.11511768  0.61943236  1
  O  O188  1  0.11725565  0.61336952  0.13425105  1
  O  O189  1  0.11883099  0.61597971  0.62004963  1
  O  O190  1  0.61998864  0.12137839  0.12037971  1
  O  O191  1  0.62003695  0.11238031  0.62163344  1
  O  O192  1  0.61809745  0.62116224  0.12084445  1
  O  O193  1  0.62545007  0.61786771  0.61772782  1
  O  O194  1  0.38176674  0.37480139  0.38557155  1
  O  O195  1  0.37900373  0.38270948  0.88267282  1
  O  O196  1  0.38534045  0.86518440  0.38723963  1
  O  O197  1  0.37359134  0.88814130  0.87477450  1
  O  O198  1  0.88070601  0.38104946  0.37965675  1
  O  O199  1  0.88620714  0.38228751  0.87573587  1
  O  O200  1  0.87983767  0.88046767  0.38085116  1
  O  O201  1  0.88096896  0.88093275  0.88058717  1
  O  O202  1  0.26445737  -0.00743348  0.38836529  1
  O  O203  1  0.25801039  0.01053625  0.87499298  1
  O  O204  1  0.25372070  0.50650385  0.36961640  1
  O  O205  1  0.25467988  0.50654367  0.86996203  1
  O  O206  1  0.75450442  0.00592406  0.37021333  1
  O  O207  1  0.75598163  0.00627230  0.86824758  1
  O  O208  1  0.75681250  0.50681403  0.37432862  1
  O  O209  1  0.75561492  0.50415565  0.87028112  1
  O  O210  1  0.23855331  0.49855944  0.12564756  1
  O  O211  1  0.24092648  0.50604843  0.63531922  1
  O  O212  1  0.24758892  0.98651967  0.11712956  1
  O  O213  1  0.23610486  0.99901320  0.62498962  1
  O  O214  1  0.74473266  0.49144528  0.12531049  1
  O  O215  1  0.74477678  0.49444242  0.63046878  1
  O  O216  1  0.74333888  0.99982056  0.13265577  1
  O  O217  1  0.73865711  1.00510951  0.63101705  1
  O  O218  1  0.00775902  0.37039386  0.25412969  1
  O  O219  1  0.00128841  0.36655178  0.75723110  1
  O  O220  1  0.00579925  0.86881005  0.25548293  1
  O  O221  1  0.00889836  0.87357283  0.75784398  1
  O  O222  1  0.50460265  0.37086164  0.25448469  1
  O  O223  1  0.50718167  0.36385335  0.75023848  1
  O  O224  1  0.50409620  0.87640984  0.26030651  1
  O  O225  1  0.50969617  0.86551547  0.75174192  1
  O  O226  1  0.49115321  0.13255367  0.24440390  1
  O  O227  1  0.49838790  0.13910516  0.74817801  1
  O  O228  1  0.49422257  0.62593720  0.24089605  1
  O  O229  1  0.49875963  0.63657893  0.74638203  1
  O  O230  1  0.99644961  0.12962745  0.24481784  1
  O  O231  1  0.99650178  0.13101936  0.74733908  1
  O  O232  1  0.99356020  0.63145922  0.24473557  1
  O  O233  1  0.99238134  0.62462090  0.74481133  1
  O  O234  1  0.36853083  0.25477544  0.00437427  1
  O  O235  1  0.36952968  0.25558537  0.50567034  1
  O  O236  1  0.36134055  0.75312907  0.00271553  1
  O  O237  1  0.37141568  0.75727570  0.50805359  1
  O  O238  1  0.86572734  0.25320628  0.00298599  1
  O  O239  1  0.86806971  0.25699066  0.50006786  1
  O  O240  1  0.87100291  0.75504616  0.00579193  1
  O  O241  1  0.87019036  0.75396445  0.50770809  1
  O  O242  1  0.13368259  0.24394473  0.50136525  1
  O  O243  1  0.13490981  0.24027713  1.00493448  1
  O  O244  1  0.12790101  0.74491398  0.49753561  1
  O  O245  1  0.13814040  0.75504843  0.99748060  1
  O  O246  1  0.63035565  0.24961056  0.49332094  1
  O  O247  1  0.63012530  0.24470761  0.99321805  1
  O  O248  1  0.62943131  0.74617045  0.49671952  1
  O  O249  1  0.63265595  0.74378336  0.99863993  1
  O  O250  1  0.49535033  0.24549503  0.12992726  1
  O  O251  1  0.49223835  0.24838200  0.63198462  1
  O  O252  1  0.50045693  0.73774078  0.12555356  1
  O  O253  1  0.49202983  0.75009036  0.63329100  1
  O  O254  1  0.99839101  0.24419617  0.13060089  1
  O  O255  1  0.99672281  0.24295340  0.63321892  1
  O  O256  1  0.99511833  0.74533030  0.12948357  1
  O  O257  1  0.98835900  0.74122823  0.62644860  1
  O  O258  1  0.00388198  0.25634406  0.36791005  1
  O  O259  1  -0.00452362  0.25910502  0.86565897  1
  O  O260  1  0.00344987  0.75509556  0.37083761  1
  O  O261  1  0.00285536  0.75728839  0.87388097  1
  O  O262  1  0.50547666  0.25671797  0.37020242  1
  O  O263  1  0.50554386  0.25123424  0.86511228  1
  O  O264  1  0.50750184  0.76236020  0.37671288  1
  O  O265  1  0.49993481  0.74975795  0.86283348  1
  O  O266  1  0.24415572  0.13400265  0.49802218  1
  O  O267  1  0.24352914  0.13227518  0.99337231  1
  O  O268  1  0.24260662  0.63163820  0.49953692  1
  O  O269  1  0.25418654  0.63352684  0.99047792  1
  O  O270  1  0.74823058  0.13177823  0.49204342  1
  O  O271  1  0.74434136  0.13088274  0.99388314  1
  O  O272  1  0.74394134  0.63153768  0.49390962  1
  O  O273  1  0.74605962  0.62907486  0.99598511  1
  O  O274  1  0.25501485  0.36576146  -0.00178010  1
  O  O275  1  0.26143866  0.36658563  0.49493244  1
  O  O276  1  0.25138427  0.86766939  0.00875265  1
  O  O277  1  0.25815735  0.86563562  0.50565715  1
  O  O278  1  0.74938886  0.37048471  0.00957952  1
  O  O279  1  0.75513197  0.37031741  0.50457254  1
  O  O280  1  0.75740337  0.86876994  0.00039479  1
  O  O281  1  0.75826305  0.86633593  0.49355304  1
  O  O282  1  0.12243500  0.49087168  0.24083137  1
  O  O283  1  0.13291194  0.49786272  0.74051372  1
  O  O284  1  0.11790530  0.98478659  0.25023811  1
  O  O285  1  0.12398804  0.99149184  0.74080245  1
  O  O286  1  0.62645085  0.49355514  0.24336320  1
  O  O287  1  0.63067272  0.49447434  0.74553768  1
  O  O288  1  0.62964183  0.99661843  0.24546032  1
  O  O289  1  0.62933618  0.99353306  0.74309629  1
  O  O290  1  0.37881456  0.01759492  0.24548319  1
  O  O291  1  0.37255253  0.00282994  0.75680595  1
  O  O292  1  0.37410398  0.51169514  0.25080351  1
  O  O293  1  0.36773938  0.49913828  0.75397578  1
  O  O294  1  0.87025326  0.00482843  0.25641661  1
  O  O295  1  0.87143240  0.00429021  0.75528875  1
  O  O296  1  0.87493883  0.50768128  0.25727762  1
  O  O297  1  0.86927077  0.50474299  0.75458132  1
  O  O298  1  0.11903176  0.37439133  0.36451424  1
  O  O299  1  0.11089303  0.38115344  0.87184367  1
  O  O300  1  0.11713463  0.86832498  0.36983771  1
  O  O301  1  0.12031770  0.87802722  0.86588891  1
  O  O302  1  0.61984034  0.37011160  0.36944339  1
  O  O303  1  0.62452003  0.36811421  0.86766996  1
  O  O304  1  0.61660694  0.87064630  0.37077975  1
  O  O305  1  0.62201209  0.87338105  0.86220237  1
  O  O306  1  0.37947245  0.13225390  0.13267671  1
  O  O307  1  0.37741346  0.13695326  0.62569117  1
  O  O308  1  0.38520441  0.62524427  0.13178081  1
  O  O309  1  0.37796017  0.63796525  0.62578837  1
  O  O310  1  0.88173924  0.12638452  0.13190706  1
  O  O311  1  0.88223768  0.12411240  0.63210483  1
  O  O312  1  0.88137963  0.63076250  0.13075857  1
  O  O313  1  0.87973571  0.63107358  0.62994436  1
  O  O314  1  0.25621454  0.25220344  0.11102263  1
  O  O315  1  0.26022103  0.24661482  0.61373474  1
  O  O316  1  0.24938169  0.75881170  0.11624842  1
  O  O317  1  0.25928283  0.74924991  0.62135987  1
  O  O318  1  0.74861116  0.26023040  0.11938965  1
  O  O319  1  0.75101893  0.25590207  0.61858353  1
  O  O320  1  0.75743452  0.75159400  0.11851621  1
  O  O321  1  0.76348405  0.74301488  0.61893428  1
  O  O322  1  0.24898265  0.24753240  0.38898130  1
  O  O323  1  0.25790134  0.24012959  0.88624987  1
  O  O324  1  0.24135410  0.74867214  0.38378821  1
  O  O325  1  0.24822492  0.74094611  0.88132229  1
  O  O326  1  0.74435210  0.24587771  0.37919000  1
  O  O327  1  0.74530935  0.24479587  0.87820941  1
  O  O328  1  0.74417338  0.74402748  0.38160891  1
  O  O329  1  0.75021337  0.74158847  0.88234033  1
  O  O330  1  0.00724700  0.12337479  0.00241838  1
  O  O331  1  0.00469097  0.11956388  0.50482628  1
  O  O332  1  -0.00446676  0.61249881  0.00545938  1
  O  O333  1  0.00500725  0.61745599  0.50602780  1
  O  O334  1  0.50718779  0.12579446  0.00681521  1
  O  O335  1  0.49971684  0.11172291  0.49772945  1
  O  O336  1  0.50400412  0.62165840  0.00756218  1
  O  O337  1  0.50661512  0.61885174  0.50130378  1
  O  O338  1  0.49158462  0.37967063  0.49502220  1
  O  O339  1  0.49485959  0.38311776  0.99921856  1
  O  O340  1  0.49285346  0.88101377  0.49425601  1
  O  O341  1  0.49584285  0.87842616  0.99550786  1
  O  O342  1  0.99516169  0.37905464  0.49482732  1
  O  O343  1  0.99894982  0.38294071  0.99269869  1
  O  O344  1  0.99218752  0.88011782  0.49438096  1
  O  O345  1  0.99518816  0.88141361  0.99591008  1
  O  O346  1  0.49831123  0.49288143  0.38318720  1
  O  O347  1  0.49354983  0.50065693  0.88075553  1
  O  O348  1  0.50678015  0.98776090  0.38623191  1
  O  O349  1  0.48880670  1.00168942  0.87468640  1
  O  O350  1  0.99515794  0.49439451  0.38155944  1
  O  O351  1  0.99658729  0.49439925  0.88172893  1
  O  O352  1  0.99265495  0.99444472  0.38161412  1
  O  O353  1  0.99366479  0.99565936  0.88122210  1
  O  O354  1  0.00154116  0.00830584  0.11760768  1
  O  O355  1  0.00731262  0.00496072  0.62075227  1
  O  O356  1  0.00563226  0.50465956  0.11747447  1
  O  O357  1  0.00737072  0.50417084  0.62044835  1
  O  O358  1  0.50809993  0.00838426  0.12383460  1
  O  O359  1  0.50915206  -0.00000665  0.61691216  1
  O  O360  1  0.50588216  0.51027773  0.11896755  1
  O  O361  1  0.50727455  0.50025571  0.61917292  1
  O  O362  1  0.23848005  0.37470570  0.24832177  1
  O  O363  1  0.24725534  0.38897264  0.75965132  1
  O  O364  1  0.23831215  0.86549731  0.24031342  1
  O  O365  1  0.23799846  0.87771607  0.74771273  1
  O  O366  1  0.74355688  0.37542879  0.24075942  1
  O  O367  1  0.74637279  0.37962978  0.74497215  1
  O  O368  1  0.74276117  0.88280993  0.25040600  1
  O  O369  1  0.73971366  0.88183190  0.75516559  1
  O  O370  1  0.26277238  0.13074815  0.24948414  1
  O  O371  1  0.24850530  0.12511495  0.76118255  1
  O  O372  1  0.26174846  0.62641505  0.24934959  1
  O  O373  1  0.25364497  0.61337692  0.75897548  1
  O  O374  1  0.75574294  0.12062611  0.25561514  1
  O  O375  1  0.75576270  0.11914224  0.75512823  1
  O  O376  1  0.75629185  0.62446534  0.25684913  1
  O  O377  1  0.75480429  0.61799381  0.75593335  1
  O  O378  1  0.37455026  0.13164594  0.35741768  1
  O  O379  1  0.36522215  0.11798045  0.87244867  1
  O  O380  1  0.37639075  0.62493513  0.36433691  1
  O  O381  1  0.36431453  0.61716278  0.87209654  1
  O  O382  1  0.86997687  0.11876818  0.36947738  1
  O  O383  1  0.86973138  0.11914762  0.86977241  1
  O  O384  1  0.87015747  0.62075755  0.37093134  1
  O  O385  1  0.86975176  0.61834249  0.86957620  1
  O  O386  1  0.12454203  0.38483625  0.13406398  1
  O  O387  1  0.12022796  0.38842031  0.62574524  1
  O  O388  1  0.13136551  0.87724569  0.13470894  1
  O  O389  1  0.12172459  0.88248045  0.63307692  1
  O  O390  1  0.63241849  0.38039645  0.12955609  1
  O  O391  1  0.63143377  0.38042798  0.63020736  1
  O  O392  1  0.62614271  0.88246500  0.13269418  1
  O  O393  1  0.62039853  0.88532628  0.63582701  1
  O  O394  1  0.12014854  0.25960501  0.24819752  1
  O  O395  1  0.11168874  0.25062156  0.74205380  1
  O  O396  1  0.11737555  0.75791684  0.25648850  1
  O  O397  1  0.12306079  0.76057545  0.75011276  1
  O  O398  1  0.61812802  0.25592685  0.25529767  1
  O  O399  1  0.61836081  0.25375824  0.75270622  1
  O  O400  1  0.62252225  0.75790501  0.25775767  1
  O  O401  1  0.61864404  0.75767008  0.74800849  1
  O  O402  1  0.38057430  0.24739788  0.24220173  1
  O  O403  1  0.38195030  0.25259726  0.74101338  1
  O  O404  1  0.37928142  0.74007637  0.24704707  1
  O  O405  1  0.38270614  0.75238687  0.74166691  1
  O  O406  1  0.88223675  0.24268050  0.24895780  1
  O  O407  1  0.88581471  0.24236909  0.74763163  1
  O  O408  1  0.88002842  0.74583889  0.24547261  1
  O  O409  1  0.87453169  0.74403340  0.74196706  1
  O  O410  1  0.37960736  0.49078687  0.50250993  1
  O  O411  1  0.37958919  0.49539817  0.99518665  1
  O  O412  1  0.38620925  0.98710809  0.51271722  1
  O  O413  1  0.37770640  1.00084091  0.98806301  1
  O  O414  1  0.88092311  0.49503480  0.49513206  1
  O  O415  1  0.88614702  0.49680497  0.99446587  1
  O  O416  1  0.87861635  0.99511003  0.49572636  1
  O  O417  1  0.87980064  0.99602090  0.99416044  1
  O  O418  1  0.11840460  0.01183972  0.00141852  1
  O  O419  1  0.11649005  0.00191778  0.50938866  1
  O  O420  1  0.11444169  0.49324586  0.01120490  1
  O  O421  1  0.12096394  0.50359524  0.50710069  1
  O  O422  1  0.62620733  0.00776809  0.00573311  1
  O  O423  1  0.61655020  -0.00308110  0.50856310  1
  O  O424  1  0.61938430  0.50708359  0.00536970  1
  O  O425  1  0.61983639  0.50459127  0.50536618  1
  O  O426  1  0.37312142  0.37026366  0.11783424  1
  O  O427  1  0.38092473  0.36348557  0.61283452  1
  O  O428  1  0.36479919  0.87277887  0.12652674  1
  O  O429  1  0.37491501  0.86438476  0.61647559  1
  O  O430  1  0.86309486  0.37481791  0.12541547  1
  O  O431  1  0.86837536  0.37471721  0.61777703  1
  O  O432  1  0.87411276  0.86901870  0.11874620  1
  O  O433  1  0.88287323  0.86273825  0.61968794  1
  O  O434  1  0.12915812  0.12556456  0.38226204  1
  O  O435  1  0.13475188  0.11975087  0.88557096  1
  O  O436  1  0.12289034  0.63186688  0.38238912  1
  O  O437  1  0.13837683  0.62370375  0.86948295  1
  O  O438  1  0.63070461  0.13203747  0.37522297  1
  O  O439  1  0.63130745  0.13007498  0.87881032  1
  O  O440  1  0.62918190  0.63059547  0.38042426  1
  O  O441  1  0.63253977  0.62646331  0.88202217  1
