# generated using pymatgen
data_V93Zn93O256
_symmetry_space_group_name_H-M   'P 1'
_cell_length_a   17.03648687
_cell_length_b   17.04312254
_cell_length_c   17.04322496
_cell_angle_alpha   90.02569157
_cell_angle_beta   90.02641305
_cell_angle_gamma   90.03244028
_symmetry_Int_Tables_number   1
_chemical_formula_structural   V93Zn93O256
_chemical_formula_sum   'V93 Zn93 O256'
_cell_volume   4948.58262836
_cell_formula_units_Z   1
loop_
 _symmetry_equiv_pos_site_id
 _symmetry_equiv_pos_as_xyz
  1  'x, y, z'
loop_
 _atom_site_type_symbol
 _atom_site_label
 _atom_site_symmetry_multiplicity
 _atom_site_fract_x
 _atom_site_fract_y
 _atom_site_fract_z
 _atom_site_occupancy
  V  V0  1  0.37448476  0.62521060  0.25005361  1
  V  V1  1  0.62385268  0.49976910  0.62533837  1
  V  V2  1  0.74912226  0.87384129  0.12315602  1
  V  V3  1  0.75058451  0.24829362  0.49872786  1
  V  V4  1  0.38238980  0.25103481  0.63231404  1
  V  V5  1  0.24996529  0.74719361  -0.00133929  1
  V  V6  1  0.24926819  -0.00017830  0.25107294  1
  V  V7  1  0.49966751  0.24889291  0.25037964  1
  V  V8  1  0.12573157  0.24880506  0.87829841  1
  V  V9  1  0.62237835  0.62114680  -0.00225310  1
  V  V10  1  0.12438159  0.75150229  0.37365148  1
  V  V11  1  0.25016314  0.12578050  0.37750912  1
  V  V12  1  0.12473320  0.37554869  0.75059285  1
  V  V13  1  0.87482370  0.62555481  0.24787388  1
  V  V14  1  0.25054351  0.75176361  0.50108858  1
  V  V15  1  0.00702908  0.12466207  0.11970426  1
  V  V16  1  0.50143602  0.87680995  0.88051218  1
  V  V17  1  -0.00031900  0.50038604  -0.00136043  1
  V  V18  1  -0.00043901  0.75123698  0.24833543  1
  V  V19  1  0.12504726  0.62593734  0.50010531  1
  V  V20  1  0.37429096  0.75301168  0.62697241  1
  V  V21  1  0.87553149  0.12400700  0.24863122  1
  V  V22  1  0.74861899  0.62490616  0.37399018  1
  V  V23  1  0.00120305  0.12581738  0.62560538  1
  V  V24  1  -0.00295468  0.87972477  0.87374578  1
  V  V25  1  0.62569843  -0.00113236  0.62647234  1
  V  V26  1  0.38313435  0.12924075  0.75290005  1
  V  V27  1  0.36970290  0.62584401  0.75583367  1
  V  V28  1  0.49869676  0.62129006  0.12167793  1
  V  V29  1  0.12790361  0.62527697  -0.00323373  1
  V  V30  1  0.24965489  0.87596044  0.12614196  1
  V  V31  1  0.25095692  0.00072410  0.75059740  1
  V  V32  1  0.37773450  0.87622707  0.00162797  1
  V  V33  1  0.62119761  0.49770623  0.12086367  1
  V  V34  1  0.37498629  0.00024424  0.37838887  1
  V  V35  1  0.62624219  0.12397829  0.49946318  1
  V  V36  1  0.24748908  0.24825153  0.00078336  1
  V  V37  1  0.37929790  0.00070565  0.88106136  1
  V  V38  1  0.37450230  0.50028202  0.37722271  1
  V  V39  1  0.62054720  0.24828529  0.86995887  1
  V  V40  1  0.50024709  0.62380308  0.62507974  1
  V  V41  1  0.87467084  0.50052567  0.37277340  1
  V  V42  1  0.74970423  0.24883550  -0.00256551  1
  V  V43  1  0.12537074  0.50062784  0.62576660  1
  V  V44  1  0.24574593  0.12493349  0.88076022  1
  V  V45  1  0.12562465  0.87564153  0.74988080  1
  V  V46  1  0.49943255  0.37551499  0.37499872  1
  V  V47  1  0.12483378  0.25147316  0.37471333  1
  V  V48  1  0.62302028  0.37065067  0.74949095  1
  V  V49  1  0.87377038  0.50198965  0.87321153  1
  V  V50  1  0.38107280  0.37923923  0.00154371  1
  V  V51  1  0.12463186  0.49988153  0.12435141  1
  V  V52  1  0.00756932  0.00211596  -0.00145855  1
  V  V53  1  0.25062674  0.37533711  0.62711002  1
  V  V54  1  0.87440749  0.88219763  -0.00423995  1
  V  V55  1  0.62576395  0.87265524  0.75082915  1
  V  V56  1  0.37427514  0.74929226  0.12528762  1
  V  V57  1  -0.00006894  0.24981929  0.74966062  1
  V  V58  1  0.74971237  0.49945410  0.75021557  1
  V  V59  1  0.24986706  0.37536948  0.12560111  1
  V  V60  1  0.50067192  0.00068014  0.50216553  1
  V  V61  1  0.25087277  0.25034670  0.50189940  1
  V  V62  1  0.49848373  0.37452523  0.87097639  1
  V  V63  1  0.00045430  0.00132435  0.49902255  1
  V  V64  1  -0.00299845  0.62827298  0.62592660  1
  V  V65  1  0.00004920  0.87655301  0.37280502  1
  V  V66  1  0.87488521  0.24966941  0.12282836  1
  V  V67  1  0.87432530  0.37440011  0.49859179  1
  V  V68  1  -0.00106191  0.62530931  0.12393116  1
  V  V69  1  0.74869246  0.37369884  0.12460039  1
  V  V70  1  0.24977558  0.62591202  0.37542274  1
  V  V71  1  0.62447688  0.87524012  0.24974015  1
  V  V72  1  0.49958581  0.87489852  0.37642549  1
  V  V73  1  0.61723780  0.11920712  0.00189104  1
  V  V74  1  0.24861509  0.49976515  0.25019987  1
  V  V75  1  0.87564509  0.12120030  0.75578433  1
  V  V76  1  0.74970854  0.37517782  0.62335221  1
  V  V77  1  0.24981194  0.50192684  0.75399273  1
  V  V78  1  0.62395318  0.74886708  0.37550602  1
  V  V79  1  0.37593891  0.37609092  0.50219934  1
  V  V80  1  0.12610939  0.00102509  0.62543654  1
  V  V81  1  0.37488690  0.24972342  0.12641065  1
  V  V82  1  0.74790501  0.00019854  0.24572702  1
  V  V83  1  0.37599238  0.12628239  0.25256393  1
  V  V84  1  0.00014858  0.50032503  0.49899024  1
  V  V85  1  0.75059780  0.74787060  -0.00250048  1
  V  V86  1  0.62400411  0.37328191  0.24916211  1
  V  V87  1  -0.00009055  0.37566346  0.87451742  1
  V  V88  1  0.12946062  0.74685824  0.87460908  1
  V  V89  1  0.00059546  0.37490148  0.37375767  1
  V  V90  1  0.37384118  0.50251241  0.87904514  1
  V  V91  1  0.75532845  -0.00097632  0.75582197  1
  V  V92  1  0.87381599  0.87407701  0.50022507  1
  Zn  Zn93  1  0.75007023  0.49849786  0.24789459  1
  Zn  Zn94  1  0.50144746  0.49971841  0.49935133  1
  Zn  Zn95  1  0.75147424  0.87210089  0.62475364  1
  Zn  Zn96  1  0.50350259  0.12838531  0.63056367  1
  Zn  Zn97  1  0.49580330  0.11854324  0.12443492  1
  Zn  Zn98  1  0.00068649  0.25085350  0.24693678  1
  Zn  Zn99  1  0.87647298  0.74958929  0.12235998  1
  Zn  Zn100  1  -0.00194005  0.75095881  0.75039837  1
  Zn  Zn101  1  0.75100182  0.12408400  0.37328323  1
  Zn  Zn102  1  0.87497099  0.00044519  0.37426790  1
  Zn  Zn103  1  0.49816245  0.75044121  0.25031232  1
  Zn  Zn104  1  0.25033716  0.87762083  0.62498485  1
  Zn  Zn105  1  0.50055267  0.74976165  0.75135512  1
  Zn  Zn106  1  0.12483084  0.12516678  0.50123799  1
  Zn  Zn107  1  0.37480922  0.87729919  0.50297833  1
  Zn  Zn108  1  0.12806512  0.00239830  0.12412798  1
  Zn  Zn109  1  0.75024727  0.75069169  0.50137756  1
  Zn  Zn110  1  0.87640002  0.24995963  0.62528531  1
  Zn  Zn111  1  0.62479235  0.62350748  0.49959564  1
  Zn  Zn112  1  0.62454487  0.24934739  0.37399234  1
  Zn  Zn113  1  0.75305197  0.12132814  0.87696477  1
  Zn  Zn114  1  0.74679097  0.62397494  0.87198558  1
  Zn  Zn115  1  0.12283862  0.37630900  0.24897254  1
  Zn  Zn116  1  0.87422622  0.37553574  -0.00060705  1
  Zn  Zn117  1  0.62210749  0.74608624  0.87409856  1
  Zn  Zn118  1  0.61030569  -0.01011906  0.11418271  1
  Zn  Zn119  1  0.12338870  0.87760032  0.24804292  1
  Zn  Zn120  1  0.87194777  0.75078609  0.62729269  1
  Zn  Zn121  1  0.87177096  0.62895302  0.74854412  1
  Zn  Zn122  1  0.18919635  0.18824569  0.19028759  1
  Zn  Zn123  1  0.19040476  0.18694792  0.69145042  1
  Zn  Zn124  1  0.18613577  0.68795345  0.18612482  1
  Zn  Zn125  1  0.18716255  0.68865754  0.68840443  1
  Zn  Zn126  1  0.68631788  0.18727598  0.18463706  1
  Zn  Zn127  1  0.69118227  0.18539497  0.68598600  1
  Zn  Zn128  1  0.68709304  0.68824405  0.18698935  1
  Zn  Zn129  1  0.69038647  0.68815070  0.68605851  1
  Zn  Zn130  1  0.31240323  0.31377738  0.31304245  1
  Zn  Zn131  1  0.31134218  0.31318680  0.81383250  1
  Zn  Zn132  1  0.31291029  0.81370440  0.31271612  1
  Zn  Zn133  1  0.31164537  0.81418585  0.81257053  1
  Zn  Zn134  1  0.81177621  0.31122718  0.31137646  1
  Zn  Zn135  1  0.81254974  0.31157517  0.81124049  1
  Zn  Zn136  1  0.81336042  0.81230678  0.31271189  1
  Zn  Zn137  1  0.81323733  0.80951022  0.81189765  1
  Zn  Zn138  1  0.18812795  0.43706150  0.43908373  1
  Zn  Zn139  1  0.18993428  0.43629255  0.93878051  1
  Zn  Zn140  1  0.18733899  0.93663694  0.43920153  1
  Zn  Zn141  1  0.18869891  0.93514407  0.93785269  1
  Zn  Zn142  1  0.68565338  0.43896972  0.43676358  1
  Zn  Zn143  1  0.68681305  0.43590517  0.93689989  1
  Zn  Zn144  1  0.68982406  0.93889260  0.43451341  1
  Zn  Zn145  1  0.68929232  0.93663419  0.93478742  1
  Zn  Zn146  1  0.31422165  0.06207508  0.06447895  1
  Zn  Zn147  1  0.31313833  0.06563502  0.56484713  1
  Zn  Zn148  1  0.30972598  0.56274331  0.06197358  1
  Zn  Zn149  1  0.31252808  0.56368477  0.56443771  1
  Zn  Zn150  1  0.81239517  0.06244853  0.06255625  1
  Zn  Zn151  1  0.81414648  0.05970320  0.56853477  1
  Zn  Zn152  1  0.81074092  0.56085633  0.06137321  1
  Zn  Zn153  1  0.81155952  0.56157645  0.56014779  1
  Zn  Zn154  1  0.43748466  0.43840811  0.18927155  1
  Zn  Zn155  1  0.43798176  0.43902754  0.69103553  1
  Zn  Zn156  1  0.43746203  0.93889989  0.19009722  1
  Zn  Zn157  1  0.44123789  0.94062773  0.69220213  1
  Zn  Zn158  1  0.93684062  0.43649635  0.18718098  1
  Zn  Zn159  1  0.93621898  0.43842828  0.68632431  1
  Zn  Zn160  1  0.93628583  0.93728661  0.18268027  1
  Zn  Zn161  1  0.93881624  0.93830752  0.68562545  1
  Zn  Zn162  1  0.06287372  0.06321417  0.31131861  1
  Zn  Zn163  1  0.06292721  0.06144098  0.81220784  1
  Zn  Zn164  1  0.06220624  0.56415855  0.31121087  1
  Zn  Zn165  1  0.06100820  0.56395975  0.81134096  1
  Zn  Zn166  1  0.56279423  0.06078302  0.31273234  1
  Zn  Zn167  1  0.56513135  0.05961757  0.81552965  1
  Zn  Zn168  1  0.56142336  0.56028570  0.30793943  1
  Zn  Zn169  1  0.55744437  0.55730902  0.81183781  1
  Zn  Zn170  1  0.43892578  0.18916542  0.44022127  1
  Zn  Zn171  1  0.43617223  0.19086368  0.93843462  1
  Zn  Zn172  1  0.43694210  0.68843514  0.44005917  1
  Zn  Zn173  1  0.43908809  0.69057422  0.93786912  1
  Zn  Zn174  1  0.93805373  0.18663864  0.43650238  1
  Zn  Zn175  1  0.93856940  0.18692228  0.93690074  1
  Zn  Zn176  1  0.93698707  0.68928481  0.43642453  1
  Zn  Zn177  1  0.93942462  0.68963487  0.93628003  1
  Zn  Zn178  1  0.06256459  0.31303522  0.06078268  1
  Zn  Zn179  1  0.06252166  0.31262925  0.56183460  1
  Zn  Zn180  1  0.06392556  0.81370313  0.06244974  1
  Zn  Zn181  1  0.06195972  0.81468630  0.56112408  1
  Zn  Zn182  1  0.56045516  0.30771343  0.06137125  1
  Zn  Zn183  1  0.56292045  0.31271567  0.56082185  1
  Zn  Zn184  1  0.56203669  0.80744576  0.06271753  1
  Zn  Zn185  1  0.56209156  0.81187430  0.56246365  1
  O  O186  1  0.11051399  0.12660073  0.13049215  1
  O  O187  1  0.11985731  0.11995882  0.62642575  1
  O  O188  1  0.11842415  0.61882910  0.11828955  1
  O  O189  1  0.11830931  0.61983034  0.61980795  1
  O  O190  1  0.62423839  0.12568963  0.10818041  1
  O  O191  1  0.62422242  0.11959649  0.61631744  1
  O  O192  1  0.61841733  0.61764035  0.11914742  1
  O  O193  1  0.61445908  0.62015250  0.62612141  1
  O  O194  1  0.37885575  0.38094834  0.38179028  1
  O  O195  1  0.38072658  0.37922865  0.88156360  1
  O  O196  1  0.38172145  0.88173856  0.37783519  1
  O  O197  1  0.38161477  0.88230537  0.87922633  1
  O  O198  1  0.87959496  0.38017283  0.37899051  1
  O  O199  1  0.88068450  0.38509607  0.87470412  1
  O  O200  1  0.88183009  0.87722346  0.38225269  1
  O  O201  1  0.88689580  0.86805855  0.88398099  1
  O  O202  1  0.25506763  0.00611926  0.37253661  1
  O  O203  1  0.25743486  0.00707823  0.87182044  1
  O  O204  1  0.25418591  0.50635103  0.37108971  1
  O  O205  1  0.26412455  0.49297837  0.86899185  1
  O  O206  1  0.75315340  0.00218695  0.35889374  1
  O  O207  1  0.74716834  0.00229803  0.86020700  1
  O  O208  1  0.75494381  0.50864642  0.37160453  1
  O  O209  1  0.75818605  0.49823666  0.86983061  1
  O  O210  1  0.24437274  0.49498220  0.13053343  1
  O  O211  1  0.24476616  0.49517365  0.63207911  1
  O  O212  1  0.25055544  0.99477154  0.13192451  1
  O  O213  1  0.24524440  1.00093044  0.63272603  1
  O  O214  1  0.73955889  0.49281437  0.12545116  1
  O  O215  1  0.74415078  0.49447933  0.62919824  1
  O  O216  1  0.74686326  0.99312372  0.13272268  1
  O  O217  1  0.74261466  0.99553821  0.63633222  1
  O  O218  1  0.00201803  0.37131214  0.25756305  1
  O  O219  1  0.00562816  0.37069526  0.75419483  1
  O  O220  1  -0.00077312  0.86970664  0.25409633  1
  O  O221  1  0.00599338  0.87675869  0.75905562  1
  O  O222  1  0.50391165  0.36862723  0.25476679  1
  O  O223  1  0.50659572  0.37722874  0.76196984  1
  O  O224  1  0.50634138  0.87251046  0.25887962  1
  O  O225  1  0.51020440  0.87510992  0.76025566  1
  O  O226  1  0.49292041  0.13253963  0.25403600  1
  O  O227  1  0.48696596  0.12017565  0.75235419  1
  O  O228  1  0.49323996  0.62623258  0.23878869  1
  O  O229  1  0.48936419  0.62527916  0.74102390  1
  O  O230  1  0.98991370  0.12531895  0.23998414  1
  O  O231  1  0.99404799  0.12899989  0.74643930  1
  O  O232  1  0.99418513  0.63068017  0.24404248  1
  O  O233  1  0.99867606  0.62518317  0.73660650  1
  O  O234  1  0.36835878  0.25905308  0.00585940  1
  O  O235  1  0.36983913  0.25587597  0.51056571  1
  O  O236  1  0.36952114  0.75475077  0.00552777  1
  O  O237  1  0.36972452  0.75052281  0.51204708  1
  O  O238  1  0.86419914  0.25047939  0.00233100  1
  O  O239  1  0.86626782  0.25490996  0.50038650  1
  O  O240  1  0.86545846  0.75723595  -0.00077967  1
  O  O241  1  0.87476564  0.76251672  0.49933879  1
  O  O242  1  0.13168923  0.25077379  0.49072453  1
  O  O243  1  0.13483174  0.25715751  0.99087807  1
  O  O244  1  0.13020104  0.74510860  0.49414842  1
  O  O245  1  0.12972612  0.74600925  0.99254977  1
  O  O246  1  0.63344057  0.24102496  0.50031137  1
  O  O247  1  0.63218645  0.24131876  0.99186783  1
  O  O248  1  0.62564740  0.74717125  0.48655768  1
  O  O249  1  0.63365773  0.73888502  0.99891782  1
  O  O250  1  0.49234831  0.24532408  0.13198533  1
  O  O251  1  0.48602022  0.24955470  0.62194780  1
  O  O252  1  0.49337173  0.73909041  0.12812859  1
  O  O253  1  0.49148037  0.74154907  0.62806683  1
  O  O254  1  0.99371254  0.24192536  0.12271515  1
  O  O255  1  1.00059273  0.24490866  0.63227016  1
  O  O256  1  0.99946629  0.74297353  0.12921601  1
  O  O257  1  1.00124892  0.73796039  0.62425476  1
  O  O258  1  0.00963852  0.25556858  0.37506968  1
  O  O259  1  0.00588760  0.25542050  0.87013406  1
  O  O260  1  0.00545081  0.75527451  0.36833692  1
  O  O261  1  0.01114207  0.76211567  0.87630269  1
  O  O262  1  0.50090921  0.25804229  0.36944761  1
  O  O263  1  0.51062366  0.26050938  0.88030830  1
  O  O264  1  0.50802264  0.75368050  0.37403872  1
  O  O265  1  0.50120130  0.76171556  0.87056872  1
  O  O266  1  0.24851680  0.13291496  0.49484069  1
  O  O267  1  0.25890494  0.13151920  0.98763003  1
  O  O268  1  0.24460387  0.63087201  0.49549821  1
  O  O269  1  0.24072797  0.63414154  1.00588165  1
  O  O270  1  0.74401468  0.13106936  0.50161095  1
  O  O271  1  0.74378897  0.13448993  0.99756570  1
  O  O272  1  0.74871193  0.62594987  0.48468282  1
  O  O273  1  0.74015712  0.63161408  0.99881878  1
  O  O274  1  0.26044633  0.36907423  0.00615994  1
  O  O275  1  0.25626118  0.37069308  0.50805311  1
  O  O276  1  0.25775396  0.86866538  0.00605076  1
  O  O277  1  0.25428217  0.86760561  0.50487070  1
  O  O278  1  0.74790008  0.36308519  0.00504186  1
  O  O279  1  0.75381070  0.36715964  0.50298311  1
  O  O280  1  0.75559385  0.86816386  0.00140012  1
  O  O281  1  0.76157179  0.87648612  0.49909258  1
  O  O282  1  0.13109204  0.50028599  0.24306520  1
  O  O283  1  0.13001813  0.49551261  0.74607486  1
  O  O284  1  0.13472540  0.99913257  0.24804335  1
  O  O285  1  0.13132755  0.99537280  0.74540583  1
  O  O286  1  0.62654881  0.49287941  0.23714958  1
  O  O287  1  0.62983429  0.49140764  0.74516759  1
  O  O288  1  0.63470290  0.99416359  0.24858275  1
  O  O289  1  0.63225717  0.99219145  0.74655025  1
  O  O290  1  0.36844130  0.00684533  0.25988393  1
  O  O291  1  0.37043889  0.00769408  0.76086394  1
  O  O292  1  0.36835199  0.50562601  0.25658888  1
  O  O293  1  0.36968836  0.50731956  0.75788591  1
  O  O294  1  0.86577754  0.00848830  0.24610706  1
  O  O295  1  0.86631203  0.00858997  0.74273037  1
  O  O296  1  0.87336037  0.50712856  0.25558844  1
  O  O297  1  0.86879160  0.50021302  0.75827128  1
  O  O298  1  0.12041972  0.36731399  0.37507722  1
  O  O299  1  0.11997452  0.37107873  0.86896296  1
  O  O300  1  0.11808521  0.86823316  0.37372564  1
  O  O301  1  0.11745195  0.86788562  0.87042878  1
  O  O302  1  0.61815694  0.37494408  0.36741075  1
  O  O303  1  0.61671482  0.36854325  0.87174745  1
  O  O304  1  0.62066166  0.86707405  0.37044098  1
  O  O305  1  0.61660455  0.87555037  0.86835673  1
  O  O306  1  0.37339201  0.13303456  0.13381547  1
  O  O307  1  0.37594088  0.13425522  0.63635160  1
  O  O308  1  0.38168805  0.62747395  0.12828600  1
  O  O309  1  0.38119209  0.63229225  0.63400859  1
  O  O310  1  0.88243881  0.12956717  0.13127981  1
  O  O311  1  0.88295909  0.12785350  0.63575982  1
  O  O312  1  0.88083456  0.62494748  0.12936776  1
  O  O313  1  0.88665155  0.62395584  0.62238334  1
  O  O314  1  0.25505547  0.25560638  0.12126790  1
  O  O315  1  0.25825860  0.25626798  0.62234253  1
  O  O316  1  0.25572573  0.75538842  0.11980325  1
  O  O317  1  0.25946221  0.75051414  0.62065855  1
  O  O318  1  0.75388013  0.25377667  0.11479234  1
  O  O319  1  0.75096310  0.25601755  0.61333635  1
  O  O320  1  0.75036808  0.75426673  0.11287989  1
  O  O321  1  0.75302965  0.75387886  0.61811923  1
  O  O322  1  0.24390967  0.24699686  0.38147730  1
  O  O323  1  0.24633186  0.24295487  0.87993795  1
  O  O324  1  0.24543403  0.74444109  0.38060277  1
  O  O325  1  0.23727466  0.75812757  0.88205177  1
  O  O326  1  0.74764044  0.24760799  0.38740346  1
  O  O327  1  0.74023356  0.25079517  0.88336524  1
  O  O328  1  0.74079999  0.74177816  0.37461320  1
  O  O329  1  0.74595215  0.74654556  0.88645116  1
  O  O330  1  -0.00969583  0.11318878  0.00801580  1
  O  O331  1  0.00105963  0.11990139  0.50698952  1
  O  O332  1  0.00631478  0.61953697  0.00446760  1
  O  O333  1  0.00567836  0.61960051  0.50544321  1
  O  O334  1  0.51465446  0.13044029  -0.00148294  1
  O  O335  1  0.51120578  0.12026935  0.50255798  1
  O  O336  1  0.50952307  0.63109060  0.01158952  1
  O  O337  1  0.49904500  0.62237669  0.51404341  1
  O  O338  1  0.49294157  0.37669664  0.49395824  1
  O  O339  1  0.48717804  0.36982258  0.99219692  1
  O  O340  1  0.49896974  0.88245018  0.49460179  1
  O  O341  1  0.49475357  0.86803710  0.98917693  1
  O  O342  1  0.99453266  0.38096966  0.49448184  1
  O  O343  1  0.99763555  0.38259506  0.99236405  1
  O  O344  1  0.99317048  0.88124313  0.49308622  1
  O  O345  1  0.99298579  0.88181567  0.99449002  1
  O  O346  1  0.49199313  0.49452375  0.37516864  1
  O  O347  1  0.48588006  0.48701038  0.87342895  1
  O  O348  1  0.49511558  0.99473864  0.38215881  1
  O  O349  1  0.48928967  0.98978600  0.87100722  1
  O  O350  1  0.99548387  0.49601257  0.38018776  1
  O  O351  1  0.99288294  0.49529915  0.87816480  1
  O  O352  1  0.99892994  0.99489679  0.38039483  1
  O  O353  1  1.00634071  0.98843937  0.88305982  1
  O  O354  1  0.00173022  0.00764519  0.11619780  1
  O  O355  1  0.00729489  0.00695635  0.61961569  1
  O  O356  1  0.00464727  0.50463328  0.11834231  1
  O  O357  1  0.00591204  0.50709024  0.61862675  1
  O  O358  1  0.49994456  0.00582988  0.12771270  1
  O  O359  1  0.50755212  0.00357379  0.62034127  1
  O  O360  1  0.50878668  0.50927744  0.12865464  1
  O  O361  1  0.50431395  0.50856673  0.62627118  1
  O  O362  1  0.24936355  0.38243582  0.24361695  1
  O  O363  1  0.24382858  0.38088581  0.74591539  1
  O  O364  1  0.25029463  0.88238576  0.24418916  1
  O  O365  1  0.24391399  0.88355052  0.74915495  1
  O  O366  1  0.74263419  0.37401660  0.24205866  1
  O  O367  1  0.74383355  0.37923522  0.74296026  1
  O  O368  1  0.74616864  0.88122364  0.24384559  1
  O  O369  1  0.74185340  0.88157474  0.75191644  1
  O  O370  1  0.25668615  0.12072167  0.25807031  1
  O  O371  1  0.26161464  0.12078377  0.76175324  1
  O  O372  1  0.25470723  0.61966715  0.25535183  1
  O  O373  1  0.26237818  0.61911924  0.74503406  1
  O  O374  1  0.75759090  0.11749431  0.24600138  1
  O  O375  1  0.75856895  0.11690205  0.75014934  1
  O  O376  1  0.75468290  0.62446246  0.25889344  1
  O  O377  1  0.75074558  0.61523250  0.75300118  1
  O  O378  1  0.36945698  0.12105224  0.37274437  1
  O  O379  1  0.37008309  0.11967283  0.87098069  1
  O  O380  1  0.36913060  0.62089241  0.37103649  1
  O  O381  1  0.38485697  0.61544553  0.86638404  1
  O  O382  1  0.87410835  0.12361833  0.36077254  1
  O  O383  1  0.87413723  0.12903418  0.85992367  1
  O  O384  1  0.86760328  0.62091989  0.36903348  1
  O  O385  1  0.87548116  0.61184374  0.87387898  1
  O  O386  1  0.13150952  0.38194144  0.12571795  1
  O  O387  1  0.13008849  0.38130459  0.63048270  1
  O  O388  1  0.13481274  0.87727427  0.12726573  1
  O  O389  1  0.12520402  0.88234363  0.63229754  1
  O  O390  1  0.62649315  0.38058385  0.12700791  1
  O  O391  1  0.62953716  0.37867837  0.62977608  1
  O  O392  1  0.63071980  0.87308580  0.13001906  1
  O  O393  1  0.62366906  0.87964612  0.63648147  1
  O  O394  1  0.12480035  0.25319192  0.26337102  1
  O  O395  1  0.12077496  0.25647649  0.75711208  1
  O  O396  1  0.11802684  0.75072226  0.25661750  1
  O  O397  1  0.12406206  0.75602013  0.75861719  1
  O  O398  1  0.61904605  0.25505901  0.25061379  1
  O  O399  1  0.63377986  0.25337067  0.76248482  1
  O  O400  1  0.62394067  0.75546665  0.26022288  1
  O  O401  1  0.62534804  0.76134920  0.75294472  1
  O  O402  1  0.37908771  0.24602875  0.24584693  1
  O  O403  1  0.36883431  0.24193008  0.74334320  1
  O  O404  1  0.37449967  0.74196075  0.24351600  1
  O  O405  1  0.37404887  0.74188802  0.74452209  1
  O  O406  1  0.87412890  0.23943629  0.24219007  1
  O  O407  1  0.88129192  0.24220823  0.74725641  1
  O  O408  1  0.88101853  0.74339242  0.24683071  1
  O  O409  1  0.88043449  0.74618110  0.74639014  1
  O  O410  1  0.37486831  0.49396663  0.49539335  1
  O  O411  1  0.36756525  0.48949542  0.99243568  1
  O  O412  1  0.38213961  1.00108070  0.49654997  1
  O  O413  1  0.36936033  0.99393565  0.98726222  1
  O  O414  1  0.88020690  0.49404306  0.49192880  1
  O  O415  1  0.87964211  0.49823644  0.99003833  1
  O  O416  1  0.88136770  0.99272627  0.49839555  1
  O  O417  1  0.88143929  0.98760024  1.00222621  1
  O  O418  1  0.11234122  -0.00519382  0.00273024  1
  O  O419  1  0.11890971  0.00219097  0.50702040  1
  O  O420  1  0.12047325  0.50486048  0.00355440  1
  O  O421  1  0.12062674  0.50563469  0.50579642  1
  O  O422  1  0.63257214  0.01629330  -0.00310872  1
  O  O423  1  0.62271053  0.00662595  0.50519941  1
  O  O424  1  0.63008416  0.50833592  0.01038977  1
  O  O425  1  0.62190977  0.50285604  0.50911902  1
  O  O426  1  0.37110373  0.37159361  0.11844519  1
  O  O427  1  0.37046931  0.36930897  0.62449487  1
  O  O428  1  0.37044930  0.86879206  0.12086087  1
  O  O429  1  0.37708850  0.86278477  0.62979397  1
  O  O430  1  0.86787873  0.36816377  0.12197019  1
  O  O431  1  0.86824358  0.37456729  0.61639350  1
  O  O432  1  0.86807248  0.87099366  0.11258822  1
  O  O433  1  0.87682858  0.87401771  0.61231317  1
  O  O434  1  0.13066690  0.13607921  0.37668429  1
  O  O435  1  0.13884745  0.13094003  0.86732089  1
  O  O436  1  0.13010882  0.63065886  0.38083703  1
  O  O437  1  0.11666850  0.63828759  0.88046845  1
  O  O438  1  0.62877305  0.12524170  0.38816282  1
  O  O439  1  0.62672227  0.13256842  0.88375473  1
  O  O440  1  0.63091971  0.63114677  0.37227869  1
  O  O441  1  0.62123524  0.62156616  0.88617742  1
