# generated using pymatgen
data_V93Zn93O256
_symmetry_space_group_name_H-M   'P 1'
_cell_length_a   17.05408078
_cell_length_b   17.05662049
_cell_length_c   17.05342197
_cell_angle_alpha   90.02603592
_cell_angle_beta   90.03062155
_cell_angle_gamma   90.03684461
_symmetry_Int_Tables_number   1
_chemical_formula_structural   V93Zn93O256
_chemical_formula_sum   'V93 Zn93 O256'
_cell_volume   4960.58212572
_cell_formula_units_Z   1
loop_
 _symmetry_equiv_pos_site_id
 _symmetry_equiv_pos_as_xyz
  1  'x, y, z'
loop_
 _atom_site_type_symbol
 _atom_site_label
 _atom_site_symmetry_multiplicity
 _atom_site_fract_x
 _atom_site_fract_y
 _atom_site_fract_z
 _atom_site_occupancy
  V  V0  1  0.24906787  0.12564026  0.87802089  1
  V  V1  1  -0.00399546  0.87337664  0.87749524  1
  V  V2  1  -0.00128803  0.12792874  0.12654622  1
  V  V3  1  0.12211710  0.62078771  0.49820074  1
  V  V4  1  0.24888018  0.36922208  0.12010959  1
  V  V5  1  0.75852444  0.25102127  0.50341561  1
  V  V6  1  0.87442538  0.00115675  0.37573102  1
  V  V7  1  0.11898358  0.24657641  0.37059484  1
  V  V8  1  0.62801331  0.25196127  0.37574719  1
  V  V9  1  0.62444861  0.74981348  0.37596252  1
  V  V10  1  0.62460772  0.87638090  0.75038252  1
  V  V11  1  0.24681758  0.87458712  0.12675826  1
  V  V12  1  0.50077896  0.37485451  0.87537226  1
  V  V13  1  0.75592835  0.37196363  0.62650386  1
  V  V14  1  0.24917326  -0.00107246  0.75114120  1
  V  V15  1  0.12508591  0.37317078  0.74785460  1
  V  V16  1  0.62633901  0.12672166  0.00065679  1
  V  V17  1  0.74923262  0.75021083  0.49896448  1
  V  V18  1  0.62634037  0.12664497  0.50182445  1
  V  V19  1  -0.00562194  0.12669394  0.62476384  1
  V  V20  1  0.12081241  0.49700752  0.61816732  1
  V  V21  1  0.37377464  0.87646723  0.00089134  1
  V  V22  1  0.50076731  0.13030852  0.12690032  1
  V  V23  1  0.87468938  0.50113010  0.87450718  1
  V  V24  1  0.62415205  0.00094910  0.12913771  1
  V  V25  1  0.87602913  0.37662141  0.00077268  1
  V  V26  1  0.37397997  0.12549044  0.75095922  1
  V  V27  1  -0.00562454  0.24764398  0.74513907  1
  V  V28  1  0.12530617  0.87485664  0.24923503  1
  V  V29  1  0.62788930  0.62820927  -0.00018590  1
  V  V30  1  0.75220965  0.12590300  0.87479086  1
  V  V31  1  0.12572582  0.49892866  0.12619562  1
  V  V32  1  0.62469711  0.00064804  0.62590710  1
  V  V33  1  0.37494402  0.62314381  0.75011505  1
  V  V34  1  0.74911470  0.87642172  0.62593529  1
  V  V35  1  0.62642267  0.62483142  0.50024305  1
  V  V36  1  0.49950548  0.75084198  0.74986529  1
  V  V37  1  0.25075216  0.74820878  -0.00192554  1
  V  V38  1  0.62449304  0.75113413  0.87606721  1
  V  V39  1  0.24980941  0.62311958  0.87237840  1
  V  V40  1  0.12495713  0.87437802  0.75095358  1
  V  V41  1  0.12850116  0.12185261  0.49613949  1
  V  V42  1  0.12904587  0.24908398  0.87691461  1
  V  V43  1  0.62754793  0.37686067  0.25078740  1
  V  V44  1  -0.00158419  0.62022649  0.61830772  1
  V  V45  1  0.87350466  -0.00239654  0.87614744  1
  V  V46  1  0.37331535  0.00092114  0.88042117  1
  V  V47  1  -0.00067518  0.75058174  0.24883776  1
  V  V48  1  -0.00064388  0.87424732  0.37522256  1
  V  V49  1  0.75592292  0.87506698  0.12076649  1
  V  V50  1  0.62521780  0.49854929  0.62561480  1
  V  V51  1  0.37467988  0.62425699  0.24914273  1
  V  V52  1  0.75248741  0.50243776  0.25208547  1
  V  V53  1  0.50024261  0.49840364  0.49951524  1
  V  V54  1  0.24961370  0.62281919  0.37380636  1
  V  V55  1  0.00030553  -0.00080690  0.50177664  1
  V  V56  1  0.37411903  0.49900544  0.87480448  1
  V  V57  1  0.75308493  0.37768975  0.12621358  1
  V  V58  1  0.37402857  0.74764111  0.62502782  1
  V  V59  1  0.62537528  0.25140243  0.87567893  1
  V  V60  1  0.00189942  0.62557569  0.12414687  1
  V  V61  1  0.37469308  0.87395483  0.50012430  1
  V  V62  1  0.87477391  0.62691396  0.24804664  1
  V  V63  1  0.25129261  0.24471480  0.49233233  1
  V  V64  1  0.50005071  0.62385245  0.62504775  1
  V  V65  1  0.87509335  0.74972903  0.62470511  1
  V  V66  1  0.62537064  0.37557693  0.75126628  1
  V  V67  1  0.74965155  0.00279435  0.25240330  1
  V  V68  1  0.49736871  0.87822315  0.37685736  1
  V  V69  1  0.37540704  0.74866493  0.12499830  1
  V  V70  1  0.87470567  0.62453055  0.74944650  1
  V  V71  1  0.25068964  0.37157253  0.62189738  1
  V  V72  1  0.50065754  0.50060354  0.00087255  1
  V  V73  1  0.24883284  0.87307063  0.62655566  1
  V  V74  1  -0.00456411  -0.00243155  -0.00028765  1
  V  V75  1  0.49917205  0.75025981  0.25088454  1
  V  V76  1  0.12721463  0.12723037  -0.00012394  1
  V  V77  1  0.62607673  0.50201621  0.12528798  1
  V  V78  1  0.49823228  0.87730426  0.87672712  1
  V  V79  1  0.87803489  0.25214359  0.12894254  1
  V  V80  1  0.37102861  0.36859604  -0.00013950  1
  V  V81  1  0.87921232  0.12955041  0.25258375  1
  V  V82  1  0.87462843  0.87531804  0.50047428  1
  V  V83  1  0.49978214  0.25244723  0.24950422  1
  V  V84  1  0.00136326  0.37912664  0.36786818  1
  V  V85  1  0.49979085  0.12674120  0.62741849  1
  V  V86  1  0.12532958  0.62322703  -0.00209650  1
  V  V87  1  -0.00014855  0.37393281  0.87352222  1
  V  V88  1  0.88346086  0.38073318  0.50330940  1
  V  V89  1  0.37532811  0.49616356  0.37467133  1
  V  V90  1  0.24905361  0.74762570  0.50024995  1
  V  V91  1  0.12442992  0.74821095  0.37462047  1
  V  V92  1  0.12430548  0.74872219  0.87328216  1
  Zn  Zn93  1  0.25009884  0.49796869  0.74724608  1
  Zn  Zn94  1  0.24867216  0.00873672  0.25594498  1
  Zn  Zn95  1  0.87207130  0.12785586  0.74588543  1
  Zn  Zn96  1  0.36692150  0.12485893  0.26012633  1
  Zn  Zn97  1  0.49584079  0.00162525  0.00386198  1
  Zn  Zn98  1  0.74875612  0.50036060  0.75047399  1
  Zn  Zn99  1  0.36186549  0.00845527  0.37876396  1
  Zn  Zn100  1  0.50020438  0.62601318  0.12572403  1
  Zn  Zn101  1  0.36763832  0.24899920  0.12491256  1
  Zn  Zn102  1  0.00136144  0.50061183  -0.00151402  1
  Zn  Zn103  1  0.50226714  0.37570956  0.37616578  1
  Zn  Zn104  1  0.12142285  -0.00084729  0.12558025  1
  Zn  Zn105  1  0.24979015  0.49561231  0.25006407  1
  Zn  Zn106  1  0.75202284  0.25310972  0.00145315  1
  Zn  Zn107  1  0.37457337  0.24874515  0.62464852  1
  Zn  Zn108  1  0.12488215  -0.00134910  0.62584048  1
  Zn  Zn109  1  0.88067962  0.75880337  0.11738238  1
  Zn  Zn110  1  0.75187334  0.62523456  0.37510058  1
  Zn  Zn111  1  0.12354638  0.36459250  0.24396918  1
  Zn  Zn112  1  0.62457688  0.87481461  0.25229622  1
  Zn  Zn113  1  0.88105969  0.50508549  0.37948160  1
  Zn  Zn114  1  0.75057479  0.12661757  0.37695455  1
  Zn  Zn115  1  0.49789790  0.25139843  0.75075551  1
  Zn  Zn116  1  0.75619377  0.76087645  -0.00692757  1
  Zn  Zn117  1  0.75128093  0.62924301  0.87407547  1
  Zn  Zn118  1  0.75034431  0.00121520  0.75024540  1
  Zn  Zn119  1  0.49684415  0.00281189  0.49959777  1
  Zn  Zn120  1  0.37798123  0.37010945  0.49914568  1
  Zn  Zn121  1  -0.00006874  0.75043781  0.74908443  1
  Zn  Zn122  1  0.18757150  0.18597797  0.18680312  1
  Zn  Zn123  1  0.18444750  0.18548265  0.68536289  1
  Zn  Zn124  1  0.18844183  0.68664091  0.18802791  1
  Zn  Zn125  1  0.18557953  0.68560911  0.68795485  1
  Zn  Zn126  1  0.69150909  0.19077623  0.18975283  1
  Zn  Zn127  1  0.68643513  0.19041068  0.68918773  1
  Zn  Zn128  1  0.68619997  0.68967020  0.18811993  1
  Zn  Zn129  1  0.68780348  0.68880717  0.68740459  1
  Zn  Zn130  1  0.30974041  0.31232379  0.30798388  1
  Zn  Zn131  1  0.31255040  0.31118782  0.81044791  1
  Zn  Zn132  1  0.31266692  0.81356395  0.31259102  1
  Zn  Zn133  1  0.31303963  0.81187660  0.81292357  1
  Zn  Zn134  1  0.81481954  0.31398013  0.31586583  1
  Zn  Zn135  1  0.81195495  0.31219900  0.81318379  1
  Zn  Zn136  1  0.81033893  0.81370342  0.30909437  1
  Zn  Zn137  1  0.81195165  0.81240629  0.81149132  1
  Zn  Zn138  1  0.18764660  0.43310004  0.43677121  1
  Zn  Zn139  1  0.18805724  0.43728437  0.93704684  1
  Zn  Zn140  1  0.18831461  0.93607829  0.43701796  1
  Zn  Zn141  1  0.18493898  0.93803711  0.93965864  1
  Zn  Zn142  1  0.69205971  0.43861611  0.43735596  1
  Zn  Zn143  1  0.68992923  0.44008434  0.93895846  1
  Zn  Zn144  1  0.68514526  0.93903339  0.43880711  1
  Zn  Zn145  1  0.68441506  0.94067428  0.93909925  1
  Zn  Zn146  1  0.30459807  0.07008926  0.08185861  1
  Zn  Zn147  1  0.31305261  0.05941456  0.56284126  1
  Zn  Zn148  1  0.31196639  0.55979059  0.06154467  1
  Zn  Zn149  1  0.31100472  0.55953850  0.56065880  1
  Zn  Zn150  1  0.81237829  0.06117350  0.06298029  1
  Zn  Zn151  1  0.81158939  0.06202558  0.56249885  1
  Zn  Zn152  1  0.81407901  0.56663694  0.06166248  1
  Zn  Zn153  1  0.81087802  0.55897607  0.56201177  1
  Zn  Zn154  1  0.43783968  0.43738999  0.18582937  1
  Zn  Zn155  1  0.43729161  0.43607247  0.68761467  1
  Zn  Zn156  1  0.43506700  0.93853593  0.19148588  1
  Zn  Zn157  1  0.43559766  0.93936628  0.68803391  1
  Zn  Zn158  1  0.93982542  0.44084804  0.18986389  1
  Zn  Zn159  1  0.93809056  0.43739306  0.68845681  1
  Zn  Zn160  1  0.93729787  0.94147511  0.19050352  1
  Zn  Zn161  1  0.93701686  0.94029639  0.69019491  1
  Zn  Zn162  1  0.06441748  0.05857928  0.31238047  1
  Zn  Zn163  1  0.06195365  0.06156326  0.81138559  1
  Zn  Zn164  1  0.06148938  0.56034101  0.31025342  1
  Zn  Zn165  1  0.06201272  0.56018064  0.80662536  1
  Zn  Zn166  1  0.55730351  0.06723205  0.31591506  1
  Zn  Zn167  1  0.56097343  0.06152223  0.81285861  1
  Zn  Zn168  1  0.56211078  0.56415062  0.31282041  1
  Zn  Zn169  1  0.56211251  0.56203939  0.81386408  1
  Zn  Zn170  1  0.43950463  0.18850487  0.43823222  1
  Zn  Zn171  1  0.43883910  0.18791697  0.93786561  1
  Zn  Zn172  1  0.43769902  0.68610114  0.43681543  1
  Zn  Zn173  1  0.43859578  0.68726270  0.93783026  1
  Zn  Zn174  1  0.94093691  0.19070562  0.43850951  1
  Zn  Zn175  1  0.93843717  0.18937701  0.93804084  1
  Zn  Zn176  1  0.93688686  0.68844907  0.43682626  1
  Zn  Zn177  1  0.93710277  0.68908301  0.94045981  1
  Zn  Zn178  1  0.06058808  0.31230906  0.05928148  1
  Zn  Zn179  1  0.06275663  0.30827985  0.55911969  1
  Zn  Zn180  1  0.06341621  0.81003336  0.05976511  1
  Zn  Zn181  1  0.06232529  0.80906098  0.56313485  1
  Zn  Zn182  1  0.56418706  0.31565129  0.06186649  1
  Zn  Zn183  1  0.56546357  0.31243664  0.56204361  1
  Zn  Zn184  1  0.56250436  0.81378001  0.06319503  1
  Zn  Zn185  1  0.56194741  0.81235552  0.56233242  1
  O  O186  1  0.11239199  0.12545945  0.11619056  1
  O  O187  1  0.11498160  0.12167716  0.61390797  1
  O  O188  1  0.12273935  0.61746295  0.11903079  1
  O  O189  1  0.11770098  0.61693146  0.62001232  1
  O  O190  1  0.62229994  0.12152854  0.11928826  1
  O  O191  1  0.61871392  0.12108116  0.62335897  1
  O  O192  1  0.62366122  0.62081356  0.11672035  1
  O  O193  1  0.61966557  0.61964918  0.62079143  1
  O  O194  1  0.37588274  0.38638350  0.37469678  1
  O  O195  1  0.37857350  0.37881069  0.88113142  1
  O  O196  1  0.38497413  0.86983388  0.38300216  1
  O  O197  1  0.37849167  0.88057306  0.88115533  1
  O  O198  1  0.88940133  0.37506060  0.38115238  1
  O  O199  1  0.87928804  0.38260989  0.87926467  1
  O  O200  1  0.87981205  0.88026524  0.38010669  1
  O  O201  1  0.88438722  0.88443323  0.87048452  1
  O  O202  1  0.24876567  -0.00336973  0.36918124  1
  O  O203  1  0.25377764  0.00567762  0.87153478  1
  O  O204  1  0.25814162  0.50375262  0.37424852  1
  O  O205  1  0.25555695  0.50540419  0.87096599  1
  O  O206  1  0.75658877  0.00307433  0.37131384  1
  O  O207  1  0.75704546  0.00805763  0.87689146  1
  O  O208  1  0.75530656  0.50438463  0.36653510  1
  O  O209  1  0.76332371  0.50333009  0.87232270  1
  O  O210  1  0.24013043  0.49165992  0.12427477  1
  O  O211  1  0.24112631  0.48876743  0.62427827  1
  O  O212  1  0.24304309  0.97849831  0.11746709  1
  O  O213  1  0.24852668  0.99072778  0.63322961  1
  O  O214  1  0.74628523  0.49662361  0.13153346  1
  O  O215  1  0.74318602  0.48865435  0.62654167  1
  O  O216  1  0.74321095  0.99561436  0.13080426  1
  O  O217  1  0.74389725  0.99421275  0.62745362  1
  O  O218  1  0.00186364  0.37375962  0.26345027  1
  O  O219  1  0.00549384  0.36655794  0.75283562  1
  O  O220  1  0.00420606  0.87075334  0.25513064  1
  O  O221  1  0.00525818  0.87511286  0.76158925  1
  O  O222  1  0.50836047  0.36694140  0.24889946  1
  O  O223  1  0.50658164  0.37388908  0.75728293  1
  O  O224  1  0.50140272  0.86810929  0.26028046  1
  O  O225  1  0.50373452  0.87001927  0.75571751  1
  O  O226  1  0.50544968  0.13781643  0.23895154  1
  O  O227  1  0.49407880  0.12631200  0.74336533  1
  O  O228  1  0.49245811  0.63237225  0.24880917  1
  O  O229  1  0.49473720  0.63065817  0.74475537  1
  O  O230  1  0.98953810  0.11567193  0.23781312  1
  O  O231  1  1.00132750  0.13115312  0.74192975  1
  O  O232  1  0.99411057  0.63109880  0.24479342  1
  O  O233  1  0.98991179  0.62576990  0.73874336  1
  O  O234  1  0.38224835  0.26547848  0.00277756  1
  O  O235  1  0.36433409  0.24987122  0.50301439  1
  O  O236  1  0.36958662  0.75508043  0.00396783  1
  O  O237  1  0.36840628  0.75199145  0.50639889  1
  O  O238  1  0.87464056  0.25673324  0.01058533  1
  O  O239  1  0.86430002  0.25946416  0.49573745  1
  O  O240  1  0.86436503  0.73575606  0.00908318  1
  O  O241  1  0.86970708  0.75608606  0.50513538  1
  O  O242  1  0.13158106  0.24022219  0.49170680  1
  O  O243  1  0.11510300  0.23870918  0.98733177  1
  O  O244  1  0.12931064  0.74159484  0.49388590  1
  O  O245  1  0.13108236  0.74243587  0.99199586  1
  O  O246  1  0.63598959  0.24683390  0.49537888  1
  O  O247  1  0.62897896  0.24214610  0.99563619  1
  O  O248  1  0.63024256  0.74412558  0.49696938  1
  O  O249  1  0.62631884  0.74309956  0.99519323  1
  O  O250  1  0.50691369  0.24577813  0.13494751  1
  O  O251  1  0.50084518  0.23790628  0.62723321  1
  O  O252  1  0.49271911  0.75065422  0.13204022  1
  O  O253  1  0.49395653  0.74368495  0.63040477  1
  O  O254  1  0.99015754  0.23903287  0.12006926  1
  O  O255  1  1.00814868  0.23960182  0.63493673  1
  O  O256  1  1.00080809  0.74411904  0.13108717  1
  O  O257  1  0.99342221  0.73891862  0.62690030  1
  O  O258  1  0.01023059  0.26165667  0.38033930  1
  O  O259  1  0.00928845  0.25329502  0.86650689  1
  O  O260  1  0.00473903  0.75542427  0.36916446  1
  O  O261  1  0.00455017  0.75916775  0.87475632  1
  O  O262  1  0.50892759  0.25398651  0.36455850  1
  O  O263  1  0.50793741  0.25731686  0.87488473  1
  O  O264  1  0.50439208  0.75731221  0.37156199  1
  O  O265  1  0.50383594  0.75727718  0.86915807  1
  O  O266  1  0.23846249  0.13246366  0.50855350  1
  O  O267  1  0.23343155  0.11789032  0.99751865  1
  O  O268  1  0.24303319  0.62892286  0.49394711  1
  O  O269  1  0.24538522  0.62900276  0.99223278  1
  O  O270  1  0.74646920  0.13582907  0.50158927  1
  O  O271  1  0.74134195  0.12604560  0.99308286  1
  O  O272  1  0.74478407  0.63228586  0.50005293  1
  O  O273  1  0.73485466  0.62380354  0.99810383  1
  O  O274  1  0.26106030  0.38145963  0.00650311  1
  O  O275  1  0.25006143  0.36383781  0.50784978  1
  O  O276  1  0.25261728  0.86624019  0.00537708  1
  O  O277  1  0.25345842  0.86544342  0.50700719  1
  O  O278  1  0.75841323  0.37629144  0.00856542  1
  O  O279  1  0.75797275  0.36849191  0.50780625  1
  O  O280  1  0.74388880  0.88054122  0.01715709  1
  O  O281  1  0.75547195  0.87031988  0.50620523  1
  O  O282  1  0.12577332  0.49777331  0.23517927  1
  O  O283  1  0.12699575  0.49216549  0.73674974  1
  O  O284  1  0.12633264  0.99071749  0.24411145  1
  O  O285  1  0.13182679  0.99248994  0.75052711  1
  O  O286  1  0.63130450  0.49739834  0.24492616  1
  O  O287  1  0.62671844  0.49408050  0.74472784  1
  O  O288  1  0.62996317  1.00562908  0.24121023  1
  O  O289  1  0.62672158  0.99346718  0.74512776  1
  O  O290  1  0.37037782  0.00242254  0.25492104  1
  O  O291  1  0.36822882  0.00527979  0.75926849  1
  O  O292  1  0.37557089  0.50509992  0.25904981  1
  O  O293  1  0.37410354  0.50560712  0.75657886  1
  O  O294  1  0.86998391  0.01027798  0.25667145  1
  O  O295  1  0.87281615  0.00565659  0.76390660  1
  O  O296  1  0.87124561  0.51079724  0.25212454  1
  O  O297  1  0.87437692  0.50758680  0.75740584  1
  O  O298  1  0.11381444  0.36677041  0.37606053  1
  O  O299  1  0.12116441  0.36738528  0.86994596  1
  O  O300  1  0.11746984  0.86635292  0.37057221  1
  O  O301  1  0.11733397  0.86920989  0.87045968  1
  O  O302  1  0.62642836  0.37062167  0.36805065  1
  O  O303  1  0.62153611  0.37198175  0.87232122  1
  O  O304  1  0.61548157  0.86797257  0.37634787  1
  O  O305  1  0.61844435  0.87225587  0.87092703  1
  O  O306  1  0.39718937  0.13335217  0.10993981  1
  O  O307  1  0.38421091  0.12361118  0.63157116  1
  O  O308  1  0.37536407  0.63061518  0.12972921  1
  O  O309  1  0.37973735  0.62797292  0.62926458  1
  O  O310  1  0.87972138  0.13194416  0.13113340  1
  O  O311  1  0.88948248  0.11957492  0.62620630  1
  O  O312  1  0.88303276  0.62303589  0.13673234  1
  O  O313  1  0.88090172  0.62692936  0.62964168  1
  O  O314  1  0.24801463  0.26578719  0.12363639  1
  O  O315  1  0.24575934  0.25781284  0.61462825  1
  O  O316  1  0.25429654  0.75555500  0.11776602  1
  O  O317  1  0.25450888  0.75214567  0.62015619  1
  O  O318  1  0.76147555  0.25776984  0.12416262  1
  O  O319  1  0.74486425  0.26151925  0.61625362  1
  O  O320  1  0.74531111  0.77042692  0.12799507  1
  O  O321  1  0.75533107  0.75655481  0.61900178  1
  O  O322  1  0.24039560  0.25636442  0.38662437  1
  O  O323  1  0.23576478  0.24321806  0.86892419  1
  O  O324  1  0.24391388  0.74317491  0.38057877  1
  O  O325  1  0.24499982  0.74310545  0.87891514  1
  O  O326  1  0.74620532  0.25019586  0.38571476  1
  O  O327  1  0.74557674  0.24120762  0.87901252  1
  O  O328  1  0.74346992  0.75034805  0.38144986  1
  O  O329  1  0.74068295  0.74975848  0.87587306  1
  O  O330  1  0.00552484  0.11739088  0.00609003  1
  O  O331  1  0.00619448  0.12048351  0.50746931  1
  O  O332  1  0.00921849  0.62315475  0.00588208  1
  O  O333  1  0.00425753  0.62864316  0.51096979  1
  O  O334  1  0.51442949  0.12645288  0.00627915  1
  O  O335  1  0.50795807  0.12515089  0.51240277  1
  O  O336  1  0.51081289  0.62002057  0.00085217  1
  O  O337  1  0.50589256  0.61942367  0.50636921  1
  O  O338  1  0.49807953  0.38167913  0.49796743  1
  O  O339  1  0.49362582  0.38177722  0.99521662  1
  O  O340  1  0.49321619  0.87382452  0.49305808  1
  O  O341  1  0.49249363  0.87778332  0.99483006  1
  O  O342  1  0.98978598  0.36818220  0.49420087  1
  O  O343  1  0.99319996  0.37767536  0.99102251  1
  O  O344  1  0.99431451  0.87828005  0.49560260  1
  O  O345  1  1.00712359  0.88515227  0.98847855  1
  O  O346  1  0.49111366  0.49953053  0.38033263  1
  O  O347  1  0.49404293  0.49394840  0.88104195  1
  O  O348  1  0.50377784  0.98458194  0.37783009  1
  O  O349  1  0.49211033  0.99524328  0.87926063  1
  O  O350  1  1.00311898  0.48406445  0.37545405  1
  O  O351  1  0.99062421  0.49318662  0.87232040  1
  O  O352  1  0.99408436  0.99292582  0.38144095  1
  O  O353  1  0.99280261  0.99465569  0.88112495  1
  O  O354  1  -0.00372255  0.00898180  0.11492934  1
  O  O355  1  0.00278601  0.00662459  0.61970549  1
  O  O356  1  0.01005405  0.50571305  0.12256831  1
  O  O357  1  0.00942979  0.50854950  0.62911008  1
  O  O358  1  0.50973888  0.01100690  0.12639732  1
  O  O359  1  0.50547958  0.01078872  0.62601091  1
  O  O360  1  0.50813472  0.50193140  0.11885872  1
  O  O361  1  0.50511553  0.50466710  0.61962999  1
  O  O362  1  0.24478639  0.37778303  0.23746445  1
  O  O363  1  0.24296184  0.37275419  0.73821063  1
  O  O364  1  0.24245266  0.86772600  0.23843089  1
  O  O365  1  0.24511213  0.87864666  0.74635204  1
  O  O366  1  0.74784333  0.38179403  0.24537614  1
  O  O367  1  0.74567899  0.37481855  0.74164427  1
  O  O368  1  0.74523435  0.88515208  0.24138023  1
  O  O369  1  0.74266453  0.87650593  0.74300485  1
  O  O370  1  0.26815753  0.11117705  0.19959725  1
  O  O371  1  0.25320984  0.11898467  0.75604419  1
  O  O372  1  0.25643669  0.62190676  0.25666366  1
  O  O373  1  0.25696966  0.62270799  0.75452208  1
  O  O374  1  0.76233747  0.12103018  0.25191995  1
  O  O375  1  0.75108367  0.12515485  0.76253924  1
  O  O376  1  0.76005205  0.62239811  0.24877120  1
  O  O377  1  0.76319976  0.62332021  0.74885558  1
  O  O378  1  0.39255716  0.11782675  0.36936666  1
  O  O379  1  0.36847929  0.12163940  0.87309546  1
  O  O380  1  0.36956354  0.61609540  0.37046079  1
  O  O381  1  0.37045612  0.61934205  0.87007584  1
  O  O382  1  0.87797556  0.12121737  0.36721851  1
  O  O383  1  0.86587592  0.11851578  0.87709380  1
  O  O384  1  0.87653746  0.62525536  0.36183673  1
  O  O385  1  0.87734385  0.61774657  0.86487457  1
  O  O386  1  0.12948028  0.38115150  0.12171665  1
  O  O387  1  0.13003406  0.37968492  0.62598562  1
  O  O388  1  0.13122051  0.87154885  0.13004676  1
  O  O389  1  0.13087565  0.87327361  0.63183025  1
  O  O390  1  0.63324436  0.38232463  0.13015660  1
  O  O391  1  0.63356516  0.37975053  0.63084798  1
  O  O392  1  0.62955752  0.88879594  0.12813177  1
  O  O393  1  0.62881451  0.87996189  0.63025949  1
  O  O394  1  0.13168366  0.24549747  0.26548198  1
  O  O395  1  0.11614743  0.25293878  0.75811692  1
  O  O396  1  0.11863005  0.75336790  0.25606909  1
  O  O397  1  0.12230091  0.75518464  0.75634898  1
  O  O398  1  0.62150987  0.25684567  0.25527268  1
  O  O399  1  0.62355215  0.25802152  0.75899369  1
  O  O400  1  0.61735071  0.75090643  0.25790262  1
  O  O401  1  0.61807368  0.75598802  0.75453411  1
  O  O402  1  0.38778859  0.25004253  0.24517688  1
  O  O403  1  0.37694446  0.24102830  0.74638287  1
  O  O404  1  0.37927418  0.74367950  0.24504446  1
  O  O405  1  0.38028202  0.74349298  0.74484161  1
  O  O406  1  0.87107057  0.24070867  0.24127618  1
  O  O407  1  0.89069130  0.24762373  0.75745655  1
  O  O408  1  0.88049298  0.74335576  0.24450268  1
  O  O409  1  0.87671555  0.74047644  0.74373817  1
  O  O410  1  0.38067743  0.49923865  0.48944041  1
  O  O411  1  0.38110948  0.49229804  0.99389011  1
  O  O412  1  0.37749156  0.98844209  0.49942119  1
  O  O413  1  0.37330760  0.99433000  0.99716822  1
  O  O414  1  0.87003785  0.48662246  0.49578537  1
  O  O415  1  0.87809393  0.49730838  0.98989271  1
  O  O416  1  0.88014147  0.99421151  0.49509048  1
  O  O417  1  0.88525991  1.00641875  0.98958659  1
  O  O418  1  0.11155110  0.00940769  -0.00027173  1
  O  O419  1  0.11817394  0.00666753  0.50104879  1
  O  O420  1  0.12413414  0.50505635  0.00834287  1
  O  O421  1  0.13026917  0.50408929  0.51116665  1
  O  O422  1  0.62344672  0.01158181  0.01139716  1
  O  O423  1  0.62306466  0.00837070  0.50849322  1
  O  O424  1  0.62037371  0.50786773  0.00466528  1
  O  O425  1  0.62084056  0.50496482  0.50559919  1
  O  O426  1  0.36634476  0.37669138  0.11638733  1
  O  O427  1  0.36275765  0.37307829  0.62318408  1
  O  O428  1  0.36642934  0.86792065  0.12033440  1
  O  O429  1  0.36929096  0.86674981  0.62172040  1
  O  O430  1  0.87433157  0.36957912  0.12255962  1
  O  O431  1  0.86496492  0.38104447  0.61893619  1
  O  O432  1  0.85925217  0.88011313  0.13013564  1
  O  O433  1  0.87062465  0.87044174  0.62074995  1
  O  O434  1  0.11293765  0.13182886  0.38785222  1
  O  O435  1  0.12767864  0.13039665  0.88128141  1
  O  O436  1  0.12863979  0.62813571  0.37860338  1
  O  O437  1  0.12912127  0.62797123  0.87653460  1
  O  O438  1  0.62695217  0.13312617  0.38334791  1
  O  O439  1  0.63254132  0.12796930  0.88281838  1
  O  O440  1  0.62617482  0.63195590  0.38304605  1
  O  O441  1  0.62506839  0.63165996  0.88255396  1
