# generated using pymatgen
data_V93Zn93O256
_symmetry_space_group_name_H-M   'P 1'
_cell_length_a   17.04591600
_cell_length_b   17.04834892
_cell_length_c   17.04957617
_cell_angle_alpha   89.96770812
_cell_angle_beta   90.00830422
_cell_angle_gamma   89.99900602
_symmetry_Int_Tables_number   1
_chemical_formula_structural   V93Zn93O256
_chemical_formula_sum   'V93 Zn93 O256'
_cell_volume   4954.68653243
_cell_formula_units_Z   1
loop_
 _symmetry_equiv_pos_site_id
 _symmetry_equiv_pos_as_xyz
  1  'x, y, z'
loop_
 _atom_site_type_symbol
 _atom_site_label
 _atom_site_symmetry_multiplicity
 _atom_site_fract_x
 _atom_site_fract_y
 _atom_site_fract_z
 _atom_site_occupancy
  V  V0  1  0.37652321  0.37483542  0.00012513  1
  V  V1  1  0.24633427  0.13146202  0.37430524  1
  V  V2  1  0.13215806  -0.00325300  0.62553161  1
  V  V3  1  0.62230527  0.36977291  0.25033276  1
  V  V4  1  0.74978134  0.87629537  0.62578608  1
  V  V5  1  0.74853703  0.75057538  0.50012809  1
  V  V6  1  0.12608717  0.74927474  0.87794712  1
  V  V7  1  0.87506985  0.50009441  0.87487663  1
  V  V8  1  0.49900745  0.62720001  0.62451153  1
  V  V9  1  0.49951989  0.00059866  0.49877144  1
  V  V10  1  0.62603958  0.37635836  0.74834510  1
  V  V11  1  0.12989246  0.87433267  0.74735741  1
  V  V12  1  0.49292004  0.74634821  0.25013608  1
  V  V13  1  0.00006632  0.62541606  0.62498824  1
  V  V14  1  0.25108107  0.50075231  0.75056151  1
  V  V15  1  0.37727393  0.24886087  0.12549152  1
  V  V16  1  0.62559365  0.50005951  0.12526674  1
  V  V17  1  -0.00498220  0.62282109  0.13414769  1
  V  V18  1  0.12221913  -0.00117040  0.12382889  1
  V  V19  1  0.87384089  0.00052213  0.37401341  1
  V  V20  1  0.37521162  0.00018422  0.37564463  1
  V  V21  1  0.50070864  0.50050751  0.49751975  1
  V  V22  1  0.00670173  0.37026028  0.37581070  1
  V  V23  1  0.87582203  0.24948385  0.12567361  1
  V  V24  1  0.24852501  -0.00436182  0.24878228  1
  V  V25  1  0.62445069  0.00120048  0.62325967  1
  V  V26  1  0.62608608  0.50121918  0.62391759  1
  V  V27  1  0.25302975  0.37200759  0.62312039  1
  V  V28  1  0.00050687  0.00056225  0.49981452  1
  V  V29  1  0.25518346  -0.00047691  0.75402475  1
  V  V30  1  0.74816289  0.00081995  0.24965329  1
  V  V31  1  0.74981163  0.50033227  0.74870626  1
  V  V32  1  0.75038138  0.12553370  0.37407355  1
  V  V33  1  0.62413627  0.12553921  0.49904046  1
  V  V34  1  0.49971377  0.12744616  0.12699494  1
  V  V35  1  0.25021006  0.24848027  -0.00087403  1
  V  V36  1  0.00073593  0.12667055  0.62623010  1
  V  V37  1  0.74944468  0.74936591  0.00092072  1
  V  V38  1  0.74998010  0.37482427  0.12525140  1
  V  V39  1  0.24955286  0.75394699  0.50593800  1
  V  V40  1  0.62346131  0.62503985  -0.00062175  1
  V  V41  1  0.12649826  0.62638637  0.50006559  1
  V  V42  1  0.87490566  0.87622396  0.50131504  1
  V  V43  1  0.62588517  0.62641625  0.49871464  1
  V  V44  1  0.62331633  0.87477466  0.24983762  1
  V  V45  1  0.75034186  0.25162016  0.49868523  1
  V  V46  1  0.00210092  0.87375338  0.37269614  1
  V  V47  1  0.37768866  0.12798910  0.24911146  1
  V  V48  1  0.62354176  0.75140813  0.87505151  1
  V  V49  1  0.12704282  0.13046853  0.49604420  1
  V  V50  1  0.12592433  0.24931016  0.87533139  1
  V  V51  1  0.12511772  0.37475420  0.75085585  1
  V  V52  1  0.37243967  0.87251509  0.00235815  1
  V  V53  1  0.50040404  0.36928986  0.37142405  1
  V  V54  1  0.87475751  0.37422694  -0.00052772  1
  V  V55  1  0.74989913  0.24925995  -0.00115041  1
  V  V56  1  0.50032692  0.37538595  0.87536956  1
  V  V57  1  0.37657683  0.50472218  0.36782047  1
  V  V58  1  0.12914138  0.37008723  0.25203021  1
  V  V59  1  0.50003884  0.49955121  -0.00002400  1
  V  V60  1  0.87569380  0.87466844  0.00025012  1
  V  V61  1  0.49425126  0.00067736  -0.00325856  1
  V  V62  1  0.75455127  0.50541846  0.25038963  1
  V  V63  1  0.37029234  0.87644272  0.50634195  1
  V  V64  1  0.12535133  0.50038935  0.62566905  1
  V  V65  1  0.62400218  -0.00084002  0.12513262  1
  V  V66  1  0.74975929  0.12524421  0.87466774  1
  V  V67  1  0.49742294  0.24947433  0.74608253  1
  V  V68  1  0.49271189  0.62535376  0.12856922  1
  V  V69  1  0.87622560  0.37446522  0.49965087  1
  V  V70  1  0.87507431  0.62598298  0.75078269  1
  V  V71  1  0.25660615  0.12145419  0.87479345  1
  V  V72  1  0.62473429  0.74961450  0.37429941  1
  V  V73  1  0.25124913  0.37392371  0.12534598  1
  V  V74  1  0.74959222  0.00065171  0.75003214  1
  V  V75  1  0.00145158  0.24819234  0.25044076  1
  V  V76  1  0.37520903  0.62557269  0.74990824  1
  V  V77  1  0.12435482  0.62496821  0.00079757  1
  V  V78  1  0.62361281  0.87563205  0.75075279  1
  V  V79  1  0.25329696  0.62501489  0.36991489  1
  V  V80  1  0.87617251  0.12445305  0.74925523  1
  V  V81  1  0.62625086  0.24980924  0.87408778  1
  V  V82  1  0.87483927  0.75135303  0.62638428  1
  V  V83  1  0.87690562  0.50624374  0.37078377  1
  V  V84  1  0.49391203  0.87908473  0.87443078  1
  V  V85  1  0.00110145  0.37395167  0.87486829  1
  V  V86  1  0.00090664  0.75074707  0.75103028  1
  V  V87  1  0.87517367  -0.00127042  0.87619802  1
  V  V88  1  -0.00048493  0.49933443  0.00060601  1
  V  V89  1  0.74912390  0.62523511  0.87512119  1
  V  V90  1  0.00081783  0.49998398  0.49997594  1
  V  V91  1  0.87361160  0.74490795  0.13260716  1
  V  V92  1  0.12473900  0.49797980  0.12496509  1
  Zn  Zn93  1  0.00013974  0.00190398  -0.00021811  1
  Zn  Zn94  1  0.12378200  0.12301474  -0.00064384  1
  Zn  Zn95  1  0.49804475  0.87350573  0.37469355  1
  Zn  Zn96  1  0.12230548  0.87050136  0.24837457  1
  Zn  Zn97  1  -0.00304109  0.74379195  0.25541376  1
  Zn  Zn98  1  0.37578504  0.37382594  0.49774554  1
  Zn  Zn99  1  -0.00080434  0.25023148  0.75115120  1
  Zn  Zn100  1  0.37266350  0.75464640  0.62753415  1
  Zn  Zn101  1  0.49738436  0.75195083  0.74922789  1
  Zn  Zn102  1  0.49706351  0.12590184  0.62386295  1
  Zn  Zn103  1  0.62425977  0.12379686  -0.00072846  1
  Zn  Zn104  1  0.75466534  0.62816821  0.37128508  1
  Zn  Zn105  1  0.87564984  0.25218364  0.62607133  1
  Zn  Zn106  1  0.00101215  0.87732719  0.87591078  1
  Zn  Zn107  1  0.12512350  0.74865481  0.37335146  1
  Zn  Zn108  1  -0.00029261  0.12418512  0.12239383  1
  Zn  Zn109  1  0.25200687  0.62315820  0.87812501  1
  Zn  Zn110  1  0.74918637  0.87431243  0.12562309  1
  Zn  Zn111  1  0.25110053  0.74660686  0.00531976  1
  Zn  Zn112  1  0.62098360  0.24825727  0.37089099  1
  Zn  Zn113  1  0.37481048  0.24747985  0.62027215  1
  Zn  Zn114  1  0.75248691  0.37584082  0.62385185  1
  Zn  Zn115  1  0.25400031  0.50489339  0.24715593  1
  Zn  Zn116  1  0.37639395  0.12182083  0.74876214  1
  Zn  Zn117  1  0.24810465  0.87025284  0.12528159  1
  Zn  Zn118  1  0.87575470  0.12444312  0.24875891  1
  Zn  Zn119  1  0.25033778  0.25301529  0.49554065  1
  Zn  Zn120  1  0.37451058  0.50088941  0.87599674  1
  Zn  Zn121  1  0.36842695  0.74597866  0.13091937  1
  Zn  Zn122  1  0.18793702  0.18529632  0.18592371  1
  Zn  Zn123  1  0.18697569  0.18668779  0.68963594  1
  Zn  Zn124  1  0.18169538  0.69061645  0.18894437  1
  Zn  Zn125  1  0.18893835  0.68680200  0.68825867  1
  Zn  Zn126  1  0.68778253  0.18611592  0.18594697  1
  Zn  Zn127  1  0.68681248  0.18802074  0.68498270  1
  Zn  Zn128  1  0.68318276  0.68797835  0.18648632  1
  Zn  Zn129  1  0.68574933  0.68886021  0.68785197  1
  Zn  Zn130  1  0.31709393  0.31341896  0.31211958  1
  Zn  Zn131  1  0.31311886  0.31268196  0.81273263  1
  Zn  Zn132  1  0.31218868  0.81225992  0.32033289  1
  Zn  Zn133  1  0.31125172  0.81112932  0.81488410  1
  Zn  Zn134  1  0.81460819  0.31599556  0.31325290  1
  Zn  Zn135  1  0.81392585  0.31134426  0.81036069  1
  Zn  Zn136  1  0.81062767  0.81560712  0.31324180  1
  Zn  Zn137  1  0.81098940  0.81314333  0.81398612  1
  Zn  Zn138  1  0.18939559  0.44106784  0.43789977  1
  Zn  Zn139  1  0.18900285  0.43765510  0.93739085  1
  Zn  Zn140  1  0.18816598  0.94031834  0.43691537  1
  Zn  Zn141  1  0.18759140  0.93681463  0.93678993  1
  Zn  Zn142  1  0.68788915  0.43806239  0.43520548  1
  Zn  Zn143  1  0.68692612  0.43718089  0.93654837  1
  Zn  Zn144  1  0.68577546  0.93675097  0.43583088  1
  Zn  Zn145  1  0.68562336  0.93760856  0.93906220  1
  Zn  Zn146  1  0.31069445  0.05993120  0.06199916  1
  Zn  Zn147  1  0.31410469  0.06545915  0.56403393  1
  Zn  Zn148  1  0.31065299  0.56046117  0.06138772  1
  Zn  Zn149  1  0.31449736  0.56171754  0.55944490  1
  Zn  Zn150  1  0.81273434  0.06380369  0.06407908  1
  Zn  Zn151  1  0.81255582  0.06389163  0.56158830  1
  Zn  Zn152  1  0.81217399  0.56227482  0.06232760  1
  Zn  Zn153  1  0.81289322  0.56307026  0.56045023  1
  Zn  Zn154  1  0.43867310  0.43808259  0.18808634  1
  Zn  Zn155  1  0.43794166  0.43924313  0.68690350  1
  Zn  Zn156  1  0.43716415  0.93610986  0.18595337  1
  Zn  Zn157  1  0.43879108  0.93898045  0.68505675  1
  Zn  Zn158  1  0.93819741  0.43462177  0.18852128  1
  Zn  Zn159  1  0.93738310  0.43709160  0.68714610  1
  Zn  Zn160  1  0.93486641  0.93580484  0.18699505  1
  Zn  Zn161  1  0.94139308  0.93878443  0.68915234  1
  Zn  Zn162  1  0.06356769  0.06069599  0.31211265  1
  Zn  Zn163  1  0.06434390  0.06233641  0.81515496  1
  Zn  Zn164  1  0.06823627  0.55787514  0.31364910  1
  Zn  Zn165  1  0.06314836  0.56253196  0.81306902  1
  Zn  Zn166  1  0.56254416  0.06244863  0.31381586  1
  Zn  Zn167  1  0.56284861  0.06368358  0.81224017  1
  Zn  Zn168  1  0.56501397  0.56220854  0.31165759  1
  Zn  Zn169  1  0.56075027  0.56248470  0.81175717  1
  Zn  Zn170  1  0.43400314  0.18871270  0.43940962  1
  Zn  Zn171  1  0.43775212  0.18851997  0.93631319  1
  Zn  Zn172  1  0.43593836  0.68909240  0.43751953  1
  Zn  Zn173  1  0.43736512  0.69003519  0.93752310  1
  Zn  Zn174  1  0.93673462  0.18728754  0.43695575  1
  Zn  Zn175  1  0.93933378  0.18521555  0.93823351  1
  Zn  Zn176  1  0.93712496  0.68874658  0.44026858  1
  Zn  Zn177  1  0.93928527  0.68788648  0.94090237  1
  Zn  Zn178  1  0.06376579  0.31086920  0.06274265  1
  Zn  Zn179  1  0.06558561  0.31235230  0.56326995  1
  Zn  Zn180  1  0.06000171  0.81186467  0.06607088  1
  Zn  Zn181  1  0.06367805  0.81272538  0.56141662  1
  Zn  Zn182  1  0.56407502  0.31133735  0.06214398  1
  Zn  Zn183  1  0.56472361  0.31503449  0.56029914  1
  Zn  Zn184  1  0.56024486  0.81232433  0.06391607  1
  Zn  Zn185  1  0.55862232  0.81377568  0.56204148  1
  O  O186  1  0.12428266  0.11259371  0.12403877  1
  O  O187  1  0.11802896  0.11673479  0.61903611  1
  O  O188  1  0.11497928  0.61764268  0.12017101  1
  O  O189  1  0.11904146  0.62004896  0.62104415  1
  O  O190  1  0.61463144  0.11971742  0.12396337  1
  O  O191  1  0.62395465  0.11780693  0.61688628  1
  O  O192  1  0.61647143  0.61899731  0.11773622  1
  O  O193  1  0.61951502  0.62080965  0.61954401  1
  O  O194  1  0.38396260  0.38409676  0.37419441  1
  O  O195  1  0.38282944  0.37556301  0.88273031  1
  O  O196  1  0.37688005  0.88358657  0.38600707  1
  O  O197  1  0.38701530  0.86889664  0.88343434  1
  O  O198  1  0.88676373  0.38447722  0.38030279  1
  O  O199  1  0.88012122  0.38057496  0.87979428  1
  O  O200  1  0.88128741  0.88079612  0.38258061  1
  O  O201  1  0.87497879  0.87908504  0.88398489  1
  O  O202  1  0.25525986  0.00941413  0.36683751  1
  O  O203  1  0.24245169  0.01010467  0.86536667  1
  O  O204  1  0.25942264  0.50754549  0.37483577  1
  O  O205  1  0.25272837  0.50173895  0.86624420  1
  O  O206  1  0.75435689  0.00538474  0.37033275  1
  O  O207  1  0.75370177  0.00489577  0.86935359  1
  O  O208  1  0.76039271  0.49999948  0.36735123  1
  O  O209  1  0.75518939  0.50594483  0.86957511  1
  O  O210  1  0.24425042  0.49224733  0.12763169  1
  O  O211  1  0.24427373  0.49292103  0.62951194  1
  O  O212  1  0.24260453  0.99772714  0.13446747  1
  O  O213  1  0.23630786  1.00775001  0.63416088  1
  O  O214  1  0.74642143  0.49446182  0.13088122  1
  O  O215  1  0.74456026  0.50083930  0.63110241  1
  O  O216  1  0.74182776  0.99986593  0.13125846  1
  O  O217  1  0.74503006  0.99508846  0.62978371  1
  O  O218  1  0.00877182  0.36794176  0.25660910  1
  O  O219  1  0.00654322  0.37515129  0.75665124  1
  O  O220  1  -0.00301505  0.87466531  0.26444129  1
  O  O221  1  0.01114116  0.86891999  0.75188603  1
  O  O222  1  0.51181886  0.38286875  0.25840648  1
  O  O223  1  0.50660651  0.36960666  0.75474532  1
  O  O224  1  0.50607390  0.86635814  0.25071868  1
  O  O225  1  0.50412918  0.87710917  0.75890749  1
  O  O226  1  0.48862064  0.11599653  0.23889771  1
  O  O227  1  0.49877664  0.13596811  0.74999925  1
  O  O228  1  0.50878546  0.63380979  0.23913437  1
  O  O229  1  0.49113830  0.62599198  0.74420942  1
  O  O230  1  1.00074948  0.13921986  0.25269708  1
  O  O231  1  0.99638494  0.12352393  0.74041037  1
  O  O232  1  1.00336103  0.61929242  0.23728152  1
  O  O233  1  0.99440221  0.63007727  0.74454157  1
  O  O234  1  0.37010601  0.25573890  0.00574516  1
  O  O235  1  0.36836289  0.25615443  0.50277198  1
  O  O236  1  0.37433275  0.75971783  0.00402997  1
  O  O237  1  0.36721238  0.75930676  0.50047175  1
  O  O238  1  0.86931246  0.25610136  0.00418474  1
  O  O239  1  0.86715163  0.25532504  0.50048851  1
  O  O240  1  0.86924755  0.75613298  0.00665458  1
  O  O241  1  0.86905912  0.75624768  0.50786180  1
  O  O242  1  0.12884710  0.23398089  0.50547312  1
  O  O243  1  0.13401339  0.25021323  0.99381670  1
  O  O244  1  0.13240432  0.74521170  0.49800392  1
  O  O245  1  0.12210539  0.74499044  0.99190704  1
  O  O246  1  0.63500607  0.24545021  0.49660679  1
  O  O247  1  0.63226087  0.24883019  0.99239148  1
  O  O248  1  0.62962710  0.74699313  0.49489841  1
  O  O249  1  0.62929002  0.74518162  0.99509487  1
  O  O250  1  0.49424882  0.23512925  0.11638959  1
  O  O251  1  0.50277161  0.25120679  0.63565818  1
  O  O252  1  0.49972972  0.74072192  0.13302383  1
  O  O253  1  0.49642580  0.74256348  0.62819053  1
  O  O254  1  0.99436889  0.25183056  0.13513970  1
  O  O255  1  1.00058482  0.23640859  0.62529793  1
  O  O256  1  0.99054533  0.73914585  0.12697471  1
  O  O257  1  0.99450864  0.74529714  0.63031132  1
  O  O258  1  -0.00520290  0.26267226  0.36677806  1
  O  O259  1  0.00673673  0.25699420  0.87459027  1
  O  O260  1  -0.00179806  0.76032329  0.37621579  1
  O  O261  1  0.00949092  0.74992231  0.86912529  1
  O  O262  1  0.49996170  0.26518690  0.37807845  1
  O  O263  1  0.50637158  0.25554229  0.86732440  1
  O  O264  1  0.50626542  0.74896343  0.36607850  1
  O  O265  1  0.50673881  0.76149967  0.87375776  1
  O  O266  1  0.24263574  0.12292482  0.49034884  1
  O  O267  1  0.25001639  0.12954476  0.99165450  1
  O  O268  1  0.24556242  0.63200889  0.49294492  1
  O  O269  1  0.24005205  0.62545069  0.99826958  1
  O  O270  1  0.74542082  0.13228837  0.49408332  1
  O  O271  1  0.74859983  0.13162922  0.99284774  1
  O  O272  1  0.74412559  0.63349057  0.49915930  1
  O  O273  1  0.74328234  0.62838952  0.99391152  1
  O  O274  1  0.25663370  0.36959105  0.00606064  1
  O  O275  1  0.24715323  0.37387566  0.51047653  1
  O  O276  1  0.26301291  0.87457080  -0.00178520  1
  O  O277  1  0.25784208  0.86645078  0.49218168  1
  O  O278  1  0.75498718  0.37019935  0.00483887  1
  O  O279  1  0.75621984  0.36699615  0.49799295  1
  O  O280  1  0.75848954  0.86801975  0.00090376  1
  O  O281  1  0.75516540  0.87077669  0.50626408  1
  O  O282  1  0.12704715  0.48555580  0.24301085  1
  O  O283  1  0.13011762  0.49544524  0.74459271  1
  O  O284  1  0.13384618  0.99812688  0.24333206  1
  O  O285  1  0.13075609  0.99228353  0.74413306  1
  O  O286  1  0.63421362  0.49052516  0.24463058  1
  O  O287  1  0.63053619  0.49648825  0.74463646  1
  O  O288  1  0.62806829  0.99460875  0.24519478  1
  O  O289  1  0.63051068  0.99510874  0.74434416  1
  O  O290  1  0.36716377  0.00818744  0.25275827  1
  O  O291  1  0.35803752  -0.00290915  0.74283669  1
  O  O292  1  0.37337582  0.49745190  0.26270639  1
  O  O293  1  0.37039670  0.50960251  0.75159543  1
  O  O294  1  0.86660626  0.00074291  0.25616240  1
  O  O295  1  0.86878384  0.00391881  0.75484095  1
  O  O296  1  0.86625066  0.49056903  0.25892299  1
  O  O297  1  0.87063125  0.50660225  0.75548504  1
  O  O298  1  0.11606087  0.38246403  0.36637262  1
  O  O299  1  0.12046497  0.37022482  0.87029434  1
  O  O300  1  0.11139658  0.87703150  0.37697500  1
  O  O301  1  0.12186367  0.86589540  0.86759228  1
  O  O302  1  0.61759383  0.37596352  0.36632981  1
  O  O303  1  0.62038878  0.36992217  0.86845476  1
  O  O304  1  0.62203934  0.86764342  0.36844321  1
  O  O305  1  0.61648752  0.87101124  0.87055076  1
  O  O306  1  0.38057899  0.12745528  0.13095378  1
  O  O307  1  0.37886562  0.12981710  0.63058664  1
  O  O308  1  0.38953326  0.62341379  0.12024445  1
  O  O309  1  0.38092625  0.62413701  0.63397799  1
  O  O310  1  0.87786230  0.13380699  0.12921395  1
  O  O311  1  0.88656507  0.12292344  0.62911980  1
  O  O312  1  0.88400511  0.63297681  0.11717811  1
  O  O313  1  0.88016608  0.63118505  0.63065109  1
  O  O314  1  0.25696027  0.25408498  0.11911454  1
  O  O315  1  0.24910899  0.26293097  0.62734753  1
  O  O316  1  0.25192252  0.75243540  0.12402978  1
  O  O317  1  0.25128128  0.74490379  0.61014648  1
  O  O318  1  0.75505034  0.25578742  0.11908923  1
  O  O319  1  0.75218235  0.25133372  0.61091451  1
  O  O320  1  0.75691488  0.74787120  0.11867996  1
  O  O321  1  0.75523792  0.75701419  0.62119771  1
  O  O322  1  0.25364381  0.23465797  0.37180924  1
  O  O323  1  0.24526627  0.24366771  0.87947979  1
  O  O324  1  0.24887015  0.74085637  0.38580586  1
  O  O325  1  0.23556266  0.74666971  0.87788491  1
  O  O326  1  0.75135369  0.24598944  0.38475271  1
  O  O327  1  0.74587069  0.24524620  0.87892961  1
  O  O328  1  0.74529729  0.74846321  0.38157033  1
  O  O329  1  0.74394415  0.74385422  0.88048915  1
  O  O330  1  0.00494163  0.12055663  0.00393712  1
  O  O331  1  0.00733516  0.12018169  0.50526922  1
  O  O332  1  0.00473519  0.61749079  0.00900096  1
  O  O333  1  0.00534524  0.62005559  0.50643849  1
  O  O334  1  0.49835940  0.11595210  0.00629760  1
  O  O335  1  0.50663391  0.11924099  0.49907093  1
  O  O336  1  0.50544203  0.61998999  0.00662100  1
  O  O337  1  0.50610446  0.62071636  0.50452905  1
  O  O338  1  0.50283980  0.38377009  0.48860584  1
  O  O339  1  0.49633740  0.37961613  0.99617878  1
  O  O340  1  0.49045662  0.88212369  0.49651937  1
  O  O341  1  0.49355962  0.88145023  0.99396171  1
  O  O342  1  0.99955053  0.37921427  0.49284697  1
  O  O343  1  0.99447204  0.37992604  0.99517391  1
  O  O344  1  0.99421902  0.88089434  0.49449419  1
  O  O345  1  0.98553353  0.87510319  0.99905036  1
  O  O346  1  0.49423912  0.49539246  0.37783154  1
  O  O347  1  0.50024890  0.49287144  0.88232750  1
  O  O348  1  0.49208120  0.99981599  0.38111171  1
  O  O349  1  0.50619900  0.99020344  0.88455158  1
  O  O350  1  0.99508234  0.49114774  0.37945299  1
  O  O351  1  0.99440661  0.49475101  0.88067524  1
  O  O352  1  0.99415575  0.99365741  0.38041986  1
  O  O353  1  0.99093592  0.99726719  0.87689520  1
  O  O354  1  0.00989100  0.00065229  0.12715995  1
  O  O355  1  0.00881941  0.00916477  0.62065829  1
  O  O356  1  0.00289797  0.50364192  0.11982419  1
  O  O357  1  0.00497307  0.50590145  0.61980040  1
  O  O358  1  0.50361878  0.00880947  0.11711848  1
  O  O359  1  0.50806673  0.00189708  0.61722425  1
  O  O360  1  0.50601624  0.50638097  0.12045106  1
  O  O361  1  0.50669943  0.50618581  0.61818926  1
  O  O362  1  0.24253683  0.37305285  0.24475971  1
  O  O363  1  0.24504735  0.38106169  0.74295932  1
  O  O364  1  0.25029868  0.88790079  0.25430040  1
  O  O365  1  0.23688602  0.88256219  0.75796854  1
  O  O366  1  0.74342457  0.38421817  0.24484152  1
  O  O367  1  0.74468512  0.38235331  0.74850829  1
  O  O368  1  0.74131037  0.88268099  0.24830345  1
  O  O369  1  0.74432197  0.88110105  0.74530838  1
  O  O370  1  0.25648710  0.11584144  0.25520085  1
  O  O371  1  0.24959762  0.11653221  0.75786350  1
  O  O372  1  0.24112343  0.62395907  0.26616006  1
  O  O373  1  0.25886576  0.61871233  0.75008466  1
  O  O374  1  0.75012374  0.11914896  0.25685024  1
  O  O375  1  0.75524744  0.11952192  0.75393555  1
  O  O376  1  0.74256760  0.60915189  0.25021194  1
  O  O377  1  0.75540120  0.62093171  0.75571238  1
  O  O378  1  0.36825581  0.11989472  0.36639013  1
  O  O379  1  0.36104560  0.13086947  0.87064206  1
  O  O380  1  0.36554073  0.61608951  0.38112944  1
  O  O381  1  0.37480843  0.62432781  0.86366675  1
  O  O382  1  0.86907043  0.11765747  0.37323364  1
  O  O383  1  0.86882109  0.11906373  0.86910288  1
  O  O384  1  0.87669486  0.61029690  0.37947512  1
  O  O385  1  0.86998941  0.62034393  0.87081008  1
  O  O386  1  0.13130321  0.37872949  0.13188421  1
  O  O387  1  0.13152489  0.38117891  0.63067636  1
  O  O388  1  0.12671213  0.88417866  0.12842109  1
  O  O389  1  0.11856439  0.88569265  0.63467639  1
  O  O390  1  0.62939050  0.38030402  0.13088586  1
  O  O391  1  0.62811887  0.38419093  0.63066859  1
  O  O392  1  0.62546037  0.88127335  0.13113125  1
  O  O393  1  0.63025684  0.88087366  0.62995610  1
  O  O394  1  0.11681620  0.26163159  0.24322813  1
  O  O395  1  0.12273108  0.25744685  0.75712834  1
  O  O396  1  0.11585140  0.75439959  0.25673393  1
  O  O397  1  0.12195270  0.75595576  0.75591782  1
  O  O398  1  0.63294282  0.26569750  0.25059364  1
  O  O399  1  0.61887453  0.25584966  0.75422892  1
  O  O400  1  0.61748589  0.75548633  0.25468623  1
  O  O401  1  0.62375815  0.75819742  0.75689913  1
  O  O402  1  0.36972855  0.23475238  0.24270707  1
  O  O403  1  0.38900476  0.25286343  0.74797657  1
  O  O404  1  0.38937638  0.75631366  0.25191711  1
  O  O405  1  0.37377533  0.74044269  0.74697975  1
  O  O406  1  0.88513607  0.25313790  0.24449330  1
  O  O407  1  0.87842914  0.24115661  0.74610967  1
  O  O408  1  0.87386166  0.75470196  0.23623710  1
  O  O409  1  0.87933398  0.74555961  0.74583735  1
  O  O410  1  0.38286435  0.49713463  0.48856586  1
  O  O411  1  0.38239895  0.49221981  0.99934873  1
  O  O412  1  0.37786401  0.99485213  0.49566277  1
  O  O413  1  0.38711540  0.99038507  1.00562266  1
  O  O414  1  0.88165597  0.49463885  0.49218673  1
  O  O415  1  0.87891820  0.49374433  0.99401030  1
  O  O416  1  0.88041128  0.99527127  0.49522154  1
  O  O417  1  0.87218305  0.98935338  0.99572502  1
  O  O418  1  0.12421886  -0.00170248  0.01151351  1
  O  O419  1  0.12112502  0.00713173  0.50897108  1
  O  O420  1  0.11849840  0.50294350  0.00573350  1
  O  O421  1  0.11921975  0.50599368  0.50653671  1
  O  O422  1  0.61306184  0.00026749  0.00633738  1
  O  O423  1  0.62029920  0.00504660  0.50362147  1
  O  O424  1  0.62051474  0.50459486  0.00560055  1
  O  O425  1  0.62152732  0.50678024  0.50365142  1
  O  O426  1  0.37205249  0.36888100  0.12129273  1
  O  O427  1  0.36312965  0.37725675  0.62309877  1
  O  O428  1  0.37336705  0.87184552  0.11458579  1
  O  O429  1  0.37721077  0.87533441  0.61049390  1
  O  O430  1  0.86947644  0.37002181  0.11860925  1
  O  O431  1  0.87447822  0.37351739  0.61570627  1
  O  O432  1  0.87217662  0.86482419  0.11602787  1
  O  O433  1  0.87063505  0.87153671  0.62145592  1
  O  O434  1  0.13417919  0.11591134  0.38542400  1
  O  O435  1  0.13586770  0.13188681  0.87583628  1
  O  O436  1  0.13337050  0.62236063  0.38433212  1
  O  O437  1  0.12353011  0.63358641  0.88119635  1
  O  O438  1  0.63131423  0.12835750  0.38001302  1
  O  O439  1  0.63241919  0.13171672  0.87616414  1
  O  O440  1  0.62832497  0.63136097  0.38177968  1
  O  O441  1  0.62910682  0.63031101  0.87972833  1
