# generated using pymatgen
data_V93Zn93O256
_symmetry_space_group_name_H-M   'P 1'
_cell_length_a   17.05372281
_cell_length_b   17.05322574
_cell_length_c   17.05388300
_cell_angle_alpha   90.05857502
_cell_angle_beta   90.11381373
_cell_angle_gamma   90.03947777
_symmetry_Int_Tables_number   1
_chemical_formula_structural   V93Zn93O256
_chemical_formula_sum   'V93 Zn93 O256'
_cell_volume   4959.61348623
_cell_formula_units_Z   1
loop_
 _symmetry_equiv_pos_site_id
 _symmetry_equiv_pos_as_xyz
  1  'x, y, z'
loop_
 _atom_site_type_symbol
 _atom_site_label
 _atom_site_symmetry_multiplicity
 _atom_site_fract_x
 _atom_site_fract_y
 _atom_site_fract_z
 _atom_site_occupancy
  V  V0  1  0.74982194  0.50028464  0.75091051  1
  V  V1  1  0.00053567  0.49852072  -0.00032087  1
  V  V2  1  0.87518463  0.12568799  0.25165005  1
  V  V3  1  -0.00052683  0.11911971  0.62125381  1
  V  V4  1  0.50139832  0.74901403  0.25005170  1
  V  V5  1  0.74933975  0.75050897  0.50001217  1
  V  V6  1  0.49905992  0.00121719  0.49933761  1
  V  V7  1  0.74881080  0.25151654  0.49894570  1
  V  V8  1  0.12202723  0.50024442  0.62198072  1
  V  V9  1  0.00084259  0.25029602  0.75150095  1
  V  V10  1  0.50084682  0.12456982  0.12420052  1
  V  V11  1  0.49634576  0.37883220  0.37052506  1
  V  V12  1  0.38043624  0.62918984  0.74980678  1
  V  V13  1  0.38321146  0.75143789  0.62968682  1
  V  V14  1  0.37389579  0.87329215  0.00019440  1
  V  V15  1  0.12859353  0.49853420  0.12613720  1
  V  V16  1  0.87480286  0.62481561  0.75227519  1
  V  V17  1  0.25493347  0.61903317  0.37273816  1
  V  V18  1  0.00014016  0.88083292  0.38195089  1
  V  V19  1  0.62363386  0.50052889  0.62339671  1
  V  V20  1  0.13168885  0.12946836  -0.00118234  1
  V  V21  1  0.62503324  0.12442552  -0.00047939  1
  V  V22  1  0.36846942  0.36663400  -0.00038981  1
  V  V23  1  0.37493776  0.74599380  0.12645918  1
  V  V24  1  0.37463813  0.87602146  0.50025012  1
  V  V25  1  0.62223958  0.74828437  0.87074977  1
  V  V26  1  0.50152354  -0.00093414  0.00010281  1
  V  V27  1  0.50049795  0.25392180  0.24714470  1
  V  V28  1  0.49916117  0.87110404  0.86961857  1
  V  V29  1  0.87411396  0.24986405  0.12638594  1
  V  V30  1  0.37394770  0.12474391  0.74887023  1
  V  V31  1  0.37326690  0.50116200  0.87317273  1
  V  V32  1  0.74729420  0.37494510  0.12735215  1
  V  V33  1  0.62452899  0.37538311  0.74907993  1
  V  V34  1  0.74893569  0.49582936  0.25185101  1
  V  V35  1  0.49991944  0.12522434  0.62339725  1
  V  V36  1  0.87743789  0.00162121  0.37962749  1
  V  V37  1  0.75007638  0.74953007  0.00097103  1
  V  V38  1  0.88123171  0.38169790  0.50040195  1
  V  V39  1  0.62583969  0.74942054  0.37527730  1
  V  V40  1  0.50106886  0.49885121  0.00017478  1
  V  V41  1  0.74969053  0.00028522  0.25125635  1
  V  V42  1  0.12442447  0.37539204  0.74869862  1
  V  V43  1  0.74999442  0.87619813  0.62488368  1
  V  V44  1  0.87723316  0.87913139  0.50122821  1
  V  V45  1  0.24932794  0.25004162  0.49920659  1
  V  V46  1  0.12572941  0.37450378  0.25005394  1
  V  V47  1  0.87450201  0.87424567  0.00038973  1
  V  V48  1  0.74966416  0.24948417  0.00051444  1
  V  V49  1  0.87525179  0.12514906  0.75038000  1
  V  V50  1  0.62437034  0.25616902  0.37092598  1
  V  V51  1  -0.00017500  0.37458494  0.87449742  1
  V  V52  1  0.12692411  0.62473287  -0.00028550  1
  V  V53  1  0.50073839  0.37483089  0.87245908  1
  V  V54  1  0.37538321  0.25140182  0.62296041  1
  V  V55  1  0.74951792  0.37486088  0.62464619  1
  V  V56  1  0.87450517  0.75070992  0.62600707  1
  V  V57  1  0.87521284  0.62379632  0.25154143  1
  V  V58  1  0.12119054  0.11964121  0.50061993  1
  V  V59  1  -0.00033371  0.12315817  0.12545980  1
  V  V60  1  0.87366468  0.25026947  0.62535968  1
  V  V61  1  0.87593422  0.37512990  0.00077129  1
  V  V62  1  0.37586939  -0.00059138  0.37500432  1
  V  V63  1  0.62256991  0.87244030  0.74941709  1
  V  V64  1  0.24923128  0.37654652  0.62392127  1
  V  V65  1  0.62619565  0.62455994  -0.00016567  1
  V  V66  1  0.12472517  0.25027988  0.37533897  1
  V  V67  1  0.49486951  0.50175482  0.49588376  1
  V  V68  1  0.24954281  0.87365124  0.62417631  1
  V  V69  1  0.87427762  -0.00092395  0.87634431  1
  V  V70  1  0.12146000  0.62308003  0.49863284  1
  V  V71  1  0.37599098  0.12393159  0.24999237  1
  V  V72  1  0.62644607  0.49545573  0.12704622  1
  V  V73  1  -0.00038351  0.62300140  0.62183334  1
  V  V74  1  0.12579989  0.74977219  0.87591681  1
  V  V75  1  0.24996757  -0.00174368  0.24925007  1
  V  V76  1  0.74953422  0.12539819  0.87578509  1
  V  V77  1  0.62530589  0.62567072  0.50022010  1
  V  V78  1  0.50077324  0.25093392  0.74731932  1
  V  V79  1  0.37433981  0.37808859  0.49641264  1
  V  V80  1  0.12462316  0.87554659  0.25055952  1
  V  V81  1  0.50101693  0.62328264  0.12537403  1
  V  V82  1  0.12377126  0.87459254  0.75110581  1
  V  V83  1  0.62587891  0.87546286  0.24938851  1
  V  V84  1  -0.00125756  -0.00041645  0.00081056  1
  V  V85  1  0.00042726  0.25065737  0.25197289  1
  V  V86  1  0.74909749  0.00043144  0.74996902  1
  V  V87  1  0.24943342  0.00346104  0.75194069  1
  V  V88  1  0.62421130  0.00068625  0.62376074  1
  V  V89  1  0.87454421  0.75044355  0.12533070  1
  V  V90  1  -0.00151919  0.75088460  0.25082510  1
  V  V91  1  0.12492077  0.75021357  0.37572452  1
  V  V92  1  0.75003804  0.12764321  0.37518554  1
  Zn  Zn93  1  0.38338712  0.61470400  0.26131851  1
  Zn  Zn94  1  0.24706095  0.87149176  0.12483474  1
  Zn  Zn95  1  0.11895418  -0.00438546  0.62055486  1
  Zn  Zn96  1  0.62547402  0.25030020  0.87399733  1
  Zn  Zn97  1  0.50168350  0.62868639  0.62690581  1
  Zn  Zn98  1  0.24952436  0.12512049  0.37562786  1
  Zn  Zn99  1  -0.00093770  0.87539045  0.87503349  1
  Zn  Zn100  1  0.25746631  0.49298223  0.25405061  1
  Zn  Zn101  1  0.25191389  0.74867156  0.49876360  1
  Zn  Zn102  1  0.25093257  0.62594397  0.87251062  1
  Zn  Zn103  1  -0.00044853  0.75053266  0.75105751  1
  Zn  Zn104  1  0.62675548  -0.00029975  0.12529780  1
  Zn  Zn105  1  0.24975693  0.74933202  0.00167085  1
  Zn  Zn106  1  0.00175189  0.62536480  0.12610536  1
  Zn  Zn107  1  0.62431664  0.12572109  0.49855478  1
  Zn  Zn108  1  0.24568682  0.36512830  0.11906163  1
  Zn  Zn109  1  0.36797034  0.24330118  0.11802055  1
  Zn  Zn110  1  0.37536209  0.00006004  0.87490889  1
  Zn  Zn111  1  0.75177120  0.62237602  0.37729737  1
  Zn  Zn112  1  0.25752706  0.13256267  0.88366294  1
  Zn  Zn113  1  0.00309825  0.38307987  0.38327076  1
  Zn  Zn114  1  0.88281661  0.50365955  0.38271556  1
  Zn  Zn115  1  0.87356931  0.50082635  0.87759941  1
  Zn  Zn116  1  0.12484034  -0.00265767  0.12376843  1
  Zn  Zn117  1  0.13255494  0.25459797  0.87913679  1
  Zn  Zn118  1  0.25040011  0.50163236  0.74773955  1
  Zn  Zn119  1  0.75033138  0.62398328  0.87580531  1
  Zn  Zn120  1  0.49893415  0.87488162  0.37471475  1
  Zn  Zn121  1  0.75005969  0.87603927  0.12533774  1
  Zn  Zn122  1  0.18931660  0.18652507  0.18429474  1
  Zn  Zn123  1  0.18619421  0.18954818  0.68662862  1
  Zn  Zn124  1  0.18762937  0.68793890  0.18917353  1
  Zn  Zn125  1  0.19286950  0.68723757  0.68955161  1
  Zn  Zn126  1  0.68543805  0.18785767  0.18777356  1
  Zn  Zn127  1  0.68644797  0.18757976  0.68701895  1
  Zn  Zn128  1  0.68932348  0.68528649  0.18719475  1
  Zn  Zn129  1  0.68756424  0.68722949  0.68688889  1
  Zn  Zn130  1  0.31266589  0.30996581  0.31112658  1
  Zn  Zn131  1  0.30970844  0.31136713  0.81091993  1
  Zn  Zn132  1  0.31210619  0.80938530  0.31303237  1
  Zn  Zn133  1  0.31049616  0.81092168  0.81244195  1
  Zn  Zn134  1  0.81499072  0.31582481  0.31481223  1
  Zn  Zn135  1  0.81284713  0.31266021  0.81390397  1
  Zn  Zn136  1  0.81188676  0.81260012  0.31446506  1
  Zn  Zn137  1  0.80927309  0.81153726  0.81392767  1
  Zn  Zn138  1  0.18456439  0.43835643  0.43829349  1
  Zn  Zn139  1  0.18767941  0.43835206  0.93458557  1
  Zn  Zn140  1  0.18888187  0.93876646  0.43615327  1
  Zn  Zn141  1  0.18713136  0.94122312  0.93745624  1
  Zn  Zn142  1  0.68808261  0.43796184  0.43619003  1
  Zn  Zn143  1  0.68897328  0.43728774  0.93722828  1
  Zn  Zn144  1  0.68805305  0.93822214  0.43660062  1
  Zn  Zn145  1  0.68742487  0.93645621  0.93814509  1
  Zn  Zn146  1  0.31469410  0.05804602  0.06598075  1
  Zn  Zn147  1  0.30960862  0.06259549  0.56316620  1
  Zn  Zn148  1  0.31245854  0.55845784  0.06332427  1
  Zn  Zn149  1  0.31088817  0.56496759  0.56182492  1
  Zn  Zn150  1  0.81119420  0.06131714  0.06467307  1
  Zn  Zn151  1  0.81174672  0.06360835  0.56081749  1
  Zn  Zn152  1  0.81284818  0.56323150  0.06479308  1
  Zn  Zn153  1  0.81048511  0.56278548  0.56507680  1
  Zn  Zn154  1  0.43631986  0.43753228  0.18580482  1
  Zn  Zn155  1  0.43764796  0.43983168  0.68480011  1
  Zn  Zn156  1  0.43934005  0.93678319  0.18637238  1
  Zn  Zn157  1  0.43675300  0.93909385  0.68748524  1
  Zn  Zn158  1  0.93923704  0.43866729  0.18793424  1
  Zn  Zn159  1  0.93731391  0.43874052  0.68675756  1
  Zn  Zn160  1  0.93647972  0.93730362  0.18940341  1
  Zn  Zn161  1  0.93645949  0.93833874  0.68925619  1
  Zn  Zn162  1  0.06357944  0.06275969  0.31335530  1
  Zn  Zn163  1  0.06179872  0.06217810  0.81418531  1
  Zn  Zn164  1  0.06152580  0.55999737  0.31322120  1
  Zn  Zn165  1  0.06050868  0.56087183  0.81150450  1
  Zn  Zn166  1  0.56268592  0.06452223  0.31343009  1
  Zn  Zn167  1  0.56156434  0.06074917  0.81286162  1
  Zn  Zn168  1  0.56682259  0.56282011  0.31259123  1
  Zn  Zn169  1  0.56084979  0.56232521  0.81174564  1
  Zn  Zn170  1  0.43672274  0.18788797  0.43555090  1
  Zn  Zn171  1  0.44046913  0.18607297  0.93209142  1
  Zn  Zn172  1  0.43815927  0.69160982  0.44096479  1
  Zn  Zn173  1  0.43926621  0.68676768  0.93882024  1
  Zn  Zn174  1  0.93809615  0.19321295  0.43832460  1
  Zn  Zn175  1  0.94033235  0.18769338  0.93797835  1
  Zn  Zn176  1  0.93713658  0.69057528  0.43725069  1
  Zn  Zn177  1  0.94109581  0.68858889  0.93800585  1
  Zn  Zn178  1  0.06078228  0.31049285  0.06456377  1
  Zn  Zn179  1  0.06172575  0.30745432  0.56465651  1
  Zn  Zn180  1  0.06025412  0.81322799  0.06421993  1
  Zn  Zn181  1  0.06221119  0.80739697  0.56294275  1
  Zn  Zn182  1  0.56145609  0.31251159  0.06098113  1
  Zn  Zn183  1  0.56253284  0.31410073  0.55870011  1
  Zn  Zn184  1  0.56217582  0.81143729  0.06178089  1
  Zn  Zn185  1  0.56210628  0.81516425  0.56049523  1
  O  O186  1  0.11798943  0.12075956  0.11520428  1
  O  O187  1  0.11546661  0.12483620  0.61769263  1
  O  O188  1  0.12502686  0.61722486  0.11762141  1
  O  O189  1  0.11988772  0.62102293  0.61966971  1
  O  O190  1  0.61829910  0.12376129  0.11771946  1
  O  O191  1  0.61843578  0.11836523  0.62305678  1
  O  O192  1  0.62011008  0.61803716  0.11883628  1
  O  O193  1  0.62214286  0.61993603  0.61900571  1
  O  O194  1  0.38757599  0.36912517  0.38123635  1
  O  O195  1  0.38034184  0.38307846  0.88020879  1
  O  O196  1  0.37558950  0.88014370  0.38214442  1
  O  O197  1  0.38312771  0.87173455  0.88256340  1
  O  O198  1  0.87757446  0.37597863  0.38845604  1
  O  O199  1  0.88152522  0.37644152  0.88266381  1
  O  O200  1  0.88260214  0.88004477  0.38069308  1
  O  O201  1  0.87514834  0.88070043  0.88090400  1
  O  O202  1  0.25682857  0.00111494  0.36487972  1
  O  O203  1  0.25184670  0.00355008  0.86177863  1
  O  O204  1  0.24350334  0.51586399  0.37626258  1
  O  O205  1  0.26340569  0.50222162  0.87271353  1
  O  O206  1  0.75608461  0.00761432  0.37039540  1
  O  O207  1  0.75440090  0.00544685  0.86929906  1
  O  O208  1  0.75417878  0.50072273  0.36441748  1
  O  O209  1  0.75317141  0.50360024  0.86700128  1
  O  O210  1  0.23594872  0.49300337  0.12202653  1
  O  O211  1  0.23924894  0.49505723  0.62371610  1
  O  O212  1  0.25057169  0.99374216  0.13916811  1
  O  O213  1  0.24809041  0.98797378  0.63351370  1
  O  O214  1  0.74554881  0.49452696  0.13132597  1
  O  O215  1  0.74258782  0.49424070  0.63165142  1
  O  O216  1  0.74740769  0.99733942  0.13549783  1
  O  O217  1  0.74473115  0.99568521  0.63049229  1
  O  O218  1  0.01246513  0.36805242  0.24690228  1
  O  O219  1  0.00382434  0.37057409  0.75385962  1
  O  O220  1  0.00399073  0.87020182  0.26085813  1
  O  O221  1  0.01261927  0.87430235  0.75023916  1
  O  O222  1  0.49352575  0.36506104  0.25768448  1
  O  O223  1  0.50480629  0.37105662  0.75236644  1
  O  O224  1  0.50979785  0.86849467  0.25121933  1
  O  O225  1  0.50528130  0.88087978  0.76194120  1
  O  O226  1  0.49561184  0.13242559  0.24459020  1
  O  O227  1  0.49479484  0.12950411  0.74301626  1
  O  O228  1  0.50122297  0.63077324  0.24381596  1
  O  O229  1  0.48551422  0.61988135  0.74597963  1
  O  O230  1  0.99466602  0.13014678  0.24593066  1
  O  O231  1  0.99449753  0.12971126  0.74343728  1
  O  O232  1  0.99093385  0.63238226  0.24985312  1
  O  O233  1  0.99107130  0.62676643  0.74098582  1
  O  O234  1  0.38219586  0.26446837  -0.00491705  1
  O  O235  1  0.36978727  0.25645958  0.50434465  1
  O  O236  1  0.37524476  0.75715885  0.00745440  1
  O  O237  1  0.37160590  0.75775522  0.51096796  1
  O  O238  1  0.86991311  0.25413109  0.00698006  1
  O  O239  1  0.86693577  0.25784203  0.50657329  1
  O  O240  1  0.87088511  0.75368832  0.00442342  1
  O  O241  1  0.86933352  0.75735218  0.50695579  1
  O  O242  1  0.13053457  0.24278349  0.49583600  1
  O  O243  1  0.11937157  0.23290844  1.00157913  1
  O  O244  1  0.12796141  0.73911578  0.49556260  1
  O  O245  1  0.12464294  0.74231602  0.99393409  1
  O  O246  1  0.63015709  0.24917416  0.48948066  1
  O  O247  1  0.63175518  0.24309399  0.99756179  1
  O  O248  1  0.62941435  0.74622870  0.49594792  1
  O  O249  1  0.62968161  0.74482054  0.99232204  1
  O  O250  1  0.49756524  0.24553609  0.13341153  1
  O  O251  1  0.49504727  0.24613433  0.62734680  1
  O  O252  1  0.49414798  0.74312499  0.12930995  1
  O  O253  1  0.48725595  0.75131234  0.62195627  1
  O  O254  1  0.99272907  0.24307355  0.13185536  1
  O  O255  1  0.99252254  0.24000293  0.63263757  1
  O  O256  1  0.99269334  0.74863923  0.13340061  1
  O  O257  1  0.99377225  0.73994151  0.62933439  1
  O  O258  1  0.00703165  0.25453303  0.36809918  1
  O  O259  1  0.00349693  0.25649529  0.86839511  1
  O  O260  1  0.00473096  0.75999484  0.37009688  1
  O  O261  1  0.01351080  0.75317132  0.87187488  1
  O  O262  1  0.50636687  0.25725420  0.36830100  1
  O  O263  1  0.50273641  0.25700305  0.86434036  1
  O  O264  1  0.50702726  0.75148682  0.36852510  1
  O  O265  1  0.51131936  0.75978644  0.88179182  1
  O  O266  1  0.24020017  0.13241556  0.50099167  1
  O  O267  1  0.23474151  0.11422979  1.00272479  1
  O  O268  1  0.23960218  0.62698481  0.49112200  1
  O  O269  1  0.23668549  0.62441023  0.99769672  1
  O  O270  1  0.74911536  0.13397804  0.49268160  1
  O  O271  1  0.74568708  0.12984050  0.99537006  1
  O  O272  1  0.74384382  0.63265790  0.50111914  1
  O  O273  1  0.74397168  0.63067151  0.99856182  1
  O  O274  1  0.26614516  0.37837971  -0.00478876  1
  O  O275  1  0.25418363  0.37057944  0.50395817  1
  O  O276  1  0.26268999  0.87529611  0.00084703  1
  O  O277  1  0.25432892  0.87609245  0.51052335  1
  O  O278  1  0.75640479  0.36912232  0.00591821  1
  O  O279  1  0.75566975  0.36970249  0.50646096  1
  O  O280  1  0.75611502  0.86791404  0.00179464  1
  O  O281  1  0.75549312  0.87032941  0.50654176  1
  O  O282  1  0.12734758  0.49200856  0.24069765  1
  O  O283  1  0.12645251  0.49553770  0.73878169  1
  O  O284  1  0.13444388  0.99484757  0.25060747  1
  O  O285  1  0.13201129  0.99098218  0.74839002  1
  O  O286  1  0.63966836  0.50743149  0.24170594  1
  O  O287  1  0.62892537  0.49522365  0.74375465  1
  O  O288  1  0.63008180  0.99101658  0.25179659  1
  O  O289  1  0.63020603  0.99365096  0.74372406  1
  O  O290  1  0.36944262  0.00253838  0.25462013  1
  O  O291  1  0.36512361  0.00498699  0.74953072  1
  O  O292  1  0.36707714  0.50697754  0.23623708  1
  O  O293  1  0.37506785  0.50621840  0.75847996  1
  O  O294  1  0.86968112  0.00637873  0.25875293  1
  O  O295  1  0.86810666  0.00543133  0.75579871  1
  O  O296  1  0.86702831  0.51044085  0.24579781  1
  O  O297  1  0.86923732  0.51036095  0.74896429  1
  O  O298  1  0.12386903  0.36928143  0.36723338  1
  O  O299  1  0.11771043  0.37616210  0.86745844  1
  O  O300  1  0.11772382  0.87114298  0.37239202  1
  O  O301  1  0.12583354  0.86775124  0.86688940  1
  O  O302  1  0.61372039  0.36398918  0.37929015  1
  O  O303  1  0.61862504  0.37499052  0.86723969  1
  O  O304  1  0.62405902  0.86896735  0.36493869  1
  O  O305  1  0.61806271  0.86746913  0.87062449  1
  O  O306  1  0.38399767  0.12438098  0.13080953  1
  O  O307  1  0.38041440  0.13138773  0.62876628  1
  O  O308  1  0.38198844  0.63552898  0.11841835  1
  O  O309  1  0.37467843  0.63499959  0.63106168  1
  O  O310  1  0.87896421  0.13063792  0.13214262  1
  O  O311  1  0.88018776  0.12990494  0.62993369  1
  O  O312  1  0.87812718  0.63161440  0.13500583  1
  O  O313  1  0.88181433  0.62961601  0.63151043  1
  O  O314  1  0.25718118  0.25397597  0.12937583  1
  O  O315  1  0.25571025  0.25719884  0.61889742  1
  O  O316  1  0.26133196  0.75090969  0.12389205  1
  O  O317  1  0.25768817  0.76215731  0.62464229  1
  O  O318  1  0.75486395  0.25444145  0.12104980  1
  O  O319  1  0.75437780  0.25521057  0.62025935  1
  O  O320  1  0.75655927  0.75118010  0.11838659  1
  O  O321  1  0.75470131  0.75738232  0.62014247  1
  O  O322  1  0.24306192  0.24758709  0.38162673  1
  O  O323  1  0.24363035  0.24258256  0.86602651  1
  O  O324  1  0.24153262  0.74099804  0.37709807  1
  O  O325  1  0.23770313  0.74804294  0.87898408  1
  O  O326  1  0.74153994  0.24832245  0.37688765  1
  O  O327  1  0.74926148  0.24317090  0.88202089  1
  O  O328  1  0.74378442  0.74910696  0.38337046  1
  O  O329  1  0.73856348  0.74782370  0.88209744  1
  O  O330  1  0.00600162  0.11822037  0.00626130  1
  O  O331  1  0.00847842  0.13438036  0.51066707  1
  O  O332  1  0.01207773  0.61903327  0.00145589  1
  O  O333  1  0.00863408  0.63233359  0.51109787  1
  O  O334  1  0.50478640  0.11937790  0.00333042  1
  O  O335  1  0.50006892  0.11935660  0.50631208  1
  O  O336  1  0.50665466  0.61831321  0.00554779  1
  O  O337  1  0.50550763  0.61637475  0.49975630  1
  O  O338  1  0.49471891  0.38298333  0.49137342  1
  O  O339  1  0.49245528  0.38083165  0.99193625  1
  O  O340  1  0.49246370  0.88373071  0.49840515  1
  O  O341  1  0.49315877  0.87819289  0.99177589  1
  O  O342  1  0.98570621  0.36716738  0.50439247  1
  O  O343  1  0.99534465  0.37849510  0.99527856  1
  O  O344  1  0.99496724  0.86824555  0.48948827  1
  O  O345  1  0.99270748  0.88171261  0.99816954  1
  O  O346  1  0.50900972  0.48986615  0.38343568  1
  O  O347  1  0.49120312  0.49512092  0.87942186  1
  O  O348  1  0.49335368  0.99944179  0.38105997  1
  O  O349  1  0.49925331  0.98766988  0.88130899  1
  O  O350  1  0.99548748  0.49515289  0.37213310  1
  O  O351  1  0.99742882  0.49288412  0.88170765  1
  O  O352  1  0.99423803  0.98807888  0.36991339  1
  O  O353  1  0.99108472  0.99850291  0.88158705  1
  O  O354  1  -0.00130511  0.00636066  0.11979298  1
  O  O355  1  -0.00062588  0.01474439  0.62969772  1
  O  O356  1  0.01269119  0.50113258  0.11878438  1
  O  O357  1  0.00979679  0.51228770  0.62978130  1
  O  O358  1  0.50297382  0.00628608  0.11818042  1
  O  O359  1  0.50457892  0.00527228  0.61958143  1
  O  O360  1  0.50785179  0.50383717  0.11949212  1
  O  O361  1  0.50659085  0.50017846  0.61225135  1
  O  O362  1  0.23570627  0.37480496  0.25108497  1
  O  O363  1  0.24300370  0.37839387  0.74012771  1
  O  O364  1  0.24406765  0.88244598  0.25166050  1
  O  O365  1  0.24277017  0.88226173  0.74371756  1
  O  O366  1  0.75906383  0.38668341  0.24217493  1
  O  O367  1  0.74520712  0.37962431  0.74426149  1
  O  O368  1  0.74130117  0.88059163  0.25110364  1
  O  O369  1  0.74403383  0.88123807  0.74410475  1
  O  O370  1  0.25591337  0.11328013  0.25133324  1
  O  O371  1  0.25472129  0.11390933  0.74186982  1
  O  O372  1  0.24669711  0.62452593  0.26662431  1
  O  O373  1  0.26363058  0.62097989  0.75200454  1
  O  O374  1  0.75578492  0.12153404  0.25616030  1
  O  O375  1  0.75542516  0.12006015  0.75457697  1
  O  O376  1  0.76039212  0.61688460  0.25061519  1
  O  O377  1  0.76033200  0.61963060  0.74883308  1
  O  O378  1  0.37283783  0.11779122  0.36815606  1
  O  O379  1  0.37482133  0.11987305  0.86520131  1
  O  O380  1  0.35822273  0.63241596  0.37882078  1
  O  O381  1  0.37627739  0.61823998  0.86911600  1
  O  O382  1  0.87089629  0.12259524  0.37084378  1
  O  O383  1  0.86949962  0.11973811  0.87001671  1
  O  O384  1  0.87313605  0.62580267  0.36466507  1
  O  O385  1  0.87578233  0.62532567  0.86316168  1
  O  O386  1  0.12462346  0.38124141  0.13154350  1
  O  O387  1  0.12745637  0.38341606  0.62686025  1
  O  O388  1  0.12674496  0.87664531  0.13416095  1
  O  O389  1  0.13182410  0.87368267  0.63229331  1
  O  O390  1  0.63336007  0.38363435  0.11753524  1
  O  O391  1  0.63009462  0.38030599  0.62902571  1
  O  O392  1  0.62629361  0.87467395  0.13788189  1
  O  O393  1  0.63016086  0.88026988  0.62986229  1
  O  O394  1  0.12002845  0.25565895  0.25480659  1
  O  O395  1  0.11598777  0.25890741  0.74628987  1
  O  O396  1  0.11864555  0.75565064  0.25610570  1
  O  O397  1  0.12735721  0.75850913  0.75751915  1
  O  O398  1  0.61250338  0.24560292  0.25918445  1
  O  O399  1  0.61871305  0.25766604  0.74942152  1
  O  O400  1  0.62206828  0.75627133  0.25445092  1
  O  O401  1  0.63162452  0.75599740  0.76192700  1
  O  O402  1  0.38762950  0.24241342  0.25155419  1
  O  O403  1  0.38175848  0.24586286  0.74103533  1
  O  O404  1  0.38172031  0.74645937  0.24037293  1
  O  O405  1  0.36953629  0.74229916  0.74136528  1
  O  O406  1  0.87973777  0.24496334  0.24584825  1
  O  O407  1  0.87950451  0.24429605  0.74486181  1
  O  O408  1  0.87769500  0.74283726  0.24651023  1
  O  O409  1  0.87397938  0.74146630  0.74454613  1
  O  O410  1  0.38733772  0.49586866  0.50503215  1
  O  O411  1  0.38139120  0.49344867  0.99063021  1
  O  O412  1  0.37851391  0.99560960  0.49589378  1
  O  O413  1  0.38167955  0.98832321  0.99890569  1
  O  O414  1  0.86779372  0.48683795  0.50327550  1
  O  O415  1  0.88239967  0.49394281  1.00187635  1
  O  O416  1  0.86899117  0.99184224  0.49234573  1
  O  O417  1  0.87830934  0.99487786  0.99531723  1
  O  O418  1  0.11646589  0.00710070  0.00224228  1
  O  O419  1  0.13032532  0.01483200  0.50154367  1
  O  O420  1  0.12063563  0.50565620  0.00536254  1
  O  O421  1  0.12700358  0.51123391  0.51112678  1
  O  O422  1  0.61961567  0.00560629  0.00167093  1
  O  O423  1  0.61876135  0.00135794  0.50595816  1
  O  O424  1  0.62071949  0.50516457  0.00505542  1
  O  O425  1  0.61791983  0.50515151  0.50420621  1
  O  O426  1  0.37661927  0.37524105  0.10505048  1
  O  O427  1  0.36954187  0.37083664  0.61751852  1
  O  O428  1  0.37854944  0.86306507  0.11582018  1
  O  O429  1  0.36774745  0.86941052  0.62265621  1
  O  O430  1  0.86995015  0.36855378  0.11992049  1
  O  O431  1  0.86880579  0.36970986  0.62085970  1
  O  O432  1  0.87339407  0.86789436  0.11933943  1
  O  O433  1  0.87005701  0.87092602  0.62194511  1
  O  O434  1  0.12464434  0.13147258  0.38443676  1
  O  O435  1  0.12371944  0.12391588  0.89124838  1
  O  O436  1  0.12964602  0.63016394  0.38301800  1
  O  O437  1  0.12525049  0.63166730  0.88140346  1
  O  O438  1  0.63092812  0.13702718  0.37628295  1
  O  O439  1  0.63175871  0.12571804  0.88045764  1
  O  O440  1  0.62893973  0.63224488  0.38259282  1
  O  O441  1  0.62319585  0.63350611  0.87987501  1
