# generated using pymatgen
data_V93Zn93O256
_symmetry_space_group_name_H-M   'P 1'
_cell_length_a   17.06689502
_cell_length_b   17.06110541
_cell_length_c   17.06057758
_cell_angle_alpha   89.95110619
_cell_angle_beta   89.98887520
_cell_angle_gamma   89.98501593
_symmetry_Int_Tables_number   1
_chemical_formula_structural   V93Zn93O256
_chemical_formula_sum   'V93 Zn93 O256'
_cell_volume   4967.69852625
_cell_formula_units_Z   1
loop_
 _symmetry_equiv_pos_site_id
 _symmetry_equiv_pos_as_xyz
  1  'x, y, z'
loop_
 _atom_site_type_symbol
 _atom_site_label
 _atom_site_symmetry_multiplicity
 _atom_site_fract_x
 _atom_site_fract_y
 _atom_site_fract_z
 _atom_site_occupancy
  V  V0  1  0.25038172  0.75143310  0.50042779  1
  V  V1  1  0.62380569  0.25006933  0.37448368  1
  V  V2  1  0.37128714  0.12433425  0.25300367  1
  V  V3  1  0.87467907  0.00001841  0.37505655  1
  V  V4  1  0.62368292  0.50022102  0.12468436  1
  V  V5  1  0.50301162  0.49850135  0.50322566  1
  V  V6  1  0.75129496  0.74985095  0.50005708  1
  V  V7  1  0.12500443  0.75012406  0.37482273  1
  V  V8  1  0.50221754  0.62344413  0.62454141  1
  V  V9  1  0.87890591  0.37863924  0.00066526  1
  V  V10  1  0.74581160  0.50075484  0.74698079  1
  V  V11  1  0.37696770  0.12509126  0.75022952  1
  V  V12  1  0.62405518  0.37463359  0.25088709  1
  V  V13  1  -0.00572903  0.74008176  0.24420811  1
  V  V14  1  0.11739070  0.61819346  0.00527686  1
  V  V15  1  0.37588453  0.74937177  0.62472690  1
  V  V16  1  0.37522193  0.62335096  0.75007792  1
  V  V17  1  0.50045419  0.87407304  0.37443421  1
  V  V18  1  0.87622707  0.62646172  0.74928688  1
  V  V19  1  0.25092566  0.62524264  0.37497954  1
  V  V20  1  0.12439985  0.00111787  0.12395958  1
  V  V21  1  0.62474507  0.74944732  0.37480936  1
  V  V22  1  0.37408542  0.25016157  0.12491102  1
  V  V23  1  0.74916518  0.12421115  0.37520536  1
  V  V24  1  0.00010909  0.37502842  0.87544504  1
  V  V25  1  0.87472434  0.24903319  0.12552042  1
  V  V26  1  0.50154530  0.12515202  0.62565215  1
  V  V27  1  0.37380428  0.62432499  0.25072276  1
  V  V28  1  0.87727715  0.50003915  0.87673870  1
  V  V29  1  0.24332101  0.23901722  0.49453177  1
  V  V30  1  0.24936253  0.00138609  0.25138854  1
  V  V31  1  0.37482656  0.87492413  -0.00005533  1
  V  V32  1  0.25070406  0.87488687  0.62410077  1
  V  V33  1  0.87566215  0.37712025  0.49710357  1
  V  V34  1  0.24846560  0.37506199  0.62569912  1
  V  V35  1  0.87540943  0.00067058  0.87535775  1
  V  V36  1  0.37521326  0.37456489  0.49781885  1
  V  V37  1  0.50072940  0.87430249  0.87436952  1
  V  V38  1  0.12594390  0.49978751  0.62576653  1
  V  V39  1  0.25040232  0.75081429  0.00035599  1
  V  V40  1  0.00067583  0.62635920  0.62530351  1
  V  V41  1  0.50328145  0.12486166  0.11962983  1
  V  V42  1  0.49968881  0.49929416  0.00042870  1
  V  V43  1  0.62559205  0.87410797  0.75070168  1
  V  V44  1  0.75658625  0.50266019  0.24997041  1
  V  V45  1  0.12505903  0.87444827  0.74997902  1
  V  V46  1  0.87328689  0.12543092  0.24871652  1
  V  V47  1  0.87530015  0.25005582  0.62496022  1
  V  V48  1  0.37591532  0.24851345  0.62552199  1
  V  V49  1  0.50084609  0.00049392  0.49951095  1
  V  V50  1  -0.00006965  0.00077523  0.00053770  1
  V  V51  1  0.37550764  -0.00015694  0.87495768  1
  V  V52  1  0.74932399  0.37475901  0.12469832  1
  V  V53  1  0.12550668  0.62552499  0.50032450  1
  V  V54  1  0.74803251  -0.00122468  0.24933344  1
  V  V55  1  0.37350003  0.37511342  0.00022148  1
  V  V56  1  0.62404684  0.37459746  0.75164313  1
  V  V57  1  0.75161161  0.87448436  0.62431305  1
  V  V58  1  0.25033836  -0.00027625  0.74948388  1
  V  V59  1  0.75024168  0.00019105  0.74943468  1
  V  V60  1  0.37536255  0.49879611  0.87476154  1
  V  V61  1  0.24810767  0.12660594  0.87717616  1
  V  V62  1  0.00285348  0.12503349  0.62330301  1
  V  V63  1  0.74345555  0.12591460  0.87819612  1
  V  V64  1  0.49997046  0.25016513  0.25068127  1
  V  V65  1  0.12487455  0.37214356  0.25547656  1
  V  V66  1  0.62675301  0.61924748  0.50538609  1
  V  V67  1  0.00531665  0.00560055  0.49888371  1
  V  V68  1  0.87207471  0.87049052  0.00302170  1
  V  V69  1  0.74475140  0.37897645  0.62452349  1
  V  V70  1  0.00009138  0.25069614  0.75028059  1
  V  V71  1  0.00060831  0.87579630  0.87437429  1
  V  V72  1  0.50240632  0.00171492  -0.00060698  1
  V  V73  1  0.25092712  0.87595791  0.12445222  1
  V  V74  1  0.25065725  0.62414427  0.87543302  1
  V  V75  1  0.24832055  0.37602283  0.12661493  1
  V  V76  1  0.00159081  0.87514272  0.37410827  1
  V  V77  1  0.37082723  0.00267598  0.37492829  1
  V  V78  1  0.75591394  0.62342038  0.37142580  1
  V  V79  1  0.12478990  0.75023016  0.87493614  1
  V  V80  1  0.62539428  0.00098365  0.12155986  1
  V  V81  1  0.12529641  0.00337742  0.62308985  1
  V  V82  1  -0.00157028  0.12492349  0.12438457  1
  V  V83  1  0.50107633  0.74988955  0.75049611  1
  V  V84  1  -0.00018828  0.49944429  0.49966857  1
  V  V85  1  0.50005409  0.62428014  0.12540188  1
  V  V86  1  0.62462525  0.12504049  0.50042401  1
  V  V87  1  0.74965786  0.25012728  0.50012825  1
  V  V88  1  0.50025293  0.74926691  0.25066654  1
  V  V89  1  0.37531064  0.87430666  0.50028926  1
  V  V90  1  0.87448181  0.12564830  0.74999434  1
  V  V91  1  0.74363459  0.24725259  -0.00104855  1
  V  V92  1  0.12489891  0.87433206  0.24868204  1
  Zn  Zn93  1  0.37505707  0.49996304  0.37517126  1
  Zn  Zn94  1  0.11861983  0.49505013  0.12598297  1
  Zn  Zn95  1  0.62457148  0.62665012  -0.00352484  1
  Zn  Zn96  1  0.50013079  0.37650468  0.37475981  1
  Zn  Zn97  1  0.62004613  0.24717955  0.87837086  1
  Zn  Zn98  1  0.24983605  0.49927725  0.75020134  1
  Zn  Zn99  1  0.87693293  0.87438492  0.50115883  1
  Zn  Zn100  1  0.00410641  0.37212035  0.37637860  1
  Zn  Zn101  1  0.86571920  0.74242693  0.12949650  1
  Zn  Zn102  1  0.12422791  0.37579994  0.75145111  1
  Zn  Zn103  1  0.24671061  0.25032720  -0.00007782  1
  Zn  Zn104  1  0.74452637  0.74539763  0.00241012  1
  Zn  Zn105  1  0.49993297  0.37235168  0.87518084  1
  Zn  Zn106  1  0.37591228  0.75061541  0.12464571  1
  Zn  Zn107  1  0.12458327  0.25096384  0.87602248  1
  Zn  Zn108  1  0.88033832  0.50335929  0.37014699  1
  Zn  Zn109  1  0.62573932  0.87418196  0.24965823  1
  Zn  Zn110  1  0.74667155  0.62775191  0.87662585  1
  Zn  Zn111  1  0.62701912  0.74753604  0.87755690  1
  Zn  Zn112  1  0.00011586  0.75132195  0.74831576  1
  Zn  Zn113  1  0.74808562  0.87229161  0.12599590  1
  Zn  Zn114  1  0.00005303  0.24933715  0.25422394  1
  Zn  Zn115  1  0.12351745  0.12776288  0.00023608  1
  Zn  Zn116  1  0.24863424  0.50014723  0.25241704  1
  Zn  Zn117  1  0.87783062  0.75057051  0.62349007  1
  Zn  Zn118  1  0.50185357  0.24984412  0.75244677  1
  Zn  Zn119  1  0.62595488  0.00074639  0.62418886  1
  Zn  Zn120  1  -0.01644235  0.60621764  0.12502068  1
  Zn  Zn121  1  0.12099996  0.23459544  0.37622721  1
  Zn  Zn122  1  0.18566742  0.18838677  0.18878633  1
  Zn  Zn123  1  0.18602209  0.18933992  0.68904475  1
  Zn  Zn124  1  0.18692560  0.68988526  0.18665803  1
  Zn  Zn125  1  0.18829505  0.68729454  0.68854139  1
  Zn  Zn126  1  0.68697467  0.18675214  0.18685598  1
  Zn  Zn127  1  0.68728797  0.18959252  0.68826361  1
  Zn  Zn128  1  0.68701691  0.68707965  0.18547124  1
  Zn  Zn129  1  0.68838186  0.68909929  0.68874675  1
  Zn  Zn130  1  0.31053760  0.30996430  0.31323777  1
  Zn  Zn131  1  0.31458992  0.31088706  0.81220930  1
  Zn  Zn132  1  0.31262021  0.81337157  0.31312721  1
  Zn  Zn133  1  0.31307315  0.81104895  0.81259611  1
  Zn  Zn134  1  0.81082294  0.31244827  0.31175532  1
  Zn  Zn135  1  0.81187139  0.31182090  0.81310147  1
  Zn  Zn136  1  0.81248304  0.81312442  0.31265300  1
  Zn  Zn137  1  0.81093109  0.81140491  0.81624218  1
  Zn  Zn138  1  0.18852075  0.43796436  0.43661922  1
  Zn  Zn139  1  0.18858663  0.43810087  0.93772037  1
  Zn  Zn140  1  0.18666943  1.06227559  0.43780512  1
  Zn  Zn141  1  0.18675812  0.93916218  0.93793518  1
  Zn  Zn142  1  0.68751058  0.43812858  0.43507102  1
  Zn  Zn143  1  0.68842597  0.43848432  0.93606999  1
  Zn  Zn144  1  0.68658356  0.93686293  0.43749986  1
  Zn  Zn145  1  0.68707773  0.93678256  0.93797868  1
  Zn  Zn146  1  0.31443411  0.06219778  0.06297688  1
  Zn  Zn147  1  0.31738766  0.06028008  0.56641037  1
  Zn  Zn148  1  0.31053927  0.56180026  0.06258992  1
  Zn  Zn149  1  0.31386989  0.56151777  0.56185830  1
  Zn  Zn150  1  0.81206641  0.06119804  0.06115355  1
  Zn  Zn151  1  0.81559994  0.06104255  0.56144401  1
  Zn  Zn152  1  0.80972996  0.56573829  0.06193052  1
  Zn  Zn153  1  0.81383946  0.56253292  0.56276235  1
  Zn  Zn154  1  0.43638248  0.43821870  0.18751885  1
  Zn  Zn155  1  0.43787740  0.43818042  0.68592694  1
  Zn  Zn156  1  0.43874888  0.93682619  0.18734158  1
  Zn  Zn157  1  0.43887248  0.93806792  0.68729649  1
  Zn  Zn158  1  0.94188054  0.43475784  0.18684263  1
  Zn  Zn159  1  0.93639273  0.43848905  0.68722096  1
  Zn  Zn160  1  0.93654352  0.93552081  0.18687201  1
  Zn  Zn161  1  0.93728900  0.93849134  0.68761372  1
  Zn  Zn162  1  0.05945477  0.06272952  0.30779741  1
  Zn  Zn163  1  0.06297508  0.06245803  0.81030471  1
  Zn  Zn164  1  0.06490441  0.55764439  0.31309930  1
  Zn  Zn165  1  0.06361222  0.56111717  0.81290171  1
  Zn  Zn166  1  0.56090467  0.06268909  0.31026577  1
  Zn  Zn167  1  0.56343823  0.05993353  0.81027885  1
  Zn  Zn168  1  0.56434790  0.56159635  0.31525700  1
  Zn  Zn169  1  0.56182777  0.56088104  0.81417345  1
  Zn  Zn170  1  0.43709399  0.18839459  0.43818884  1
  Zn  Zn171  1  0.43577138  0.19040196  0.93715173  1
  Zn  Zn172  1  0.43851403  0.68634949  0.43724225  1
  Zn  Zn173  1  0.43890634  0.68720154  0.93789029  1
  Zn  Zn174  1  0.93765788  0.18806358  0.43610883  1
  Zn  Zn175  1  0.93362123  0.18922508  0.93861195  1
  Zn  Zn176  1  0.93749063  0.68921838  0.43784239  1
  Zn  Zn177  1  0.93728930  0.68858910  0.93574065  1
  Zn  Zn178  1  0.06375844  0.30877002  0.06279334  1
  Zn  Zn179  1  0.06308819  0.31146981  0.56259810  1
  Zn  Zn180  1  0.06282008  0.81178347  0.06146381  1
  Zn  Zn181  1  0.06331792  0.81486008  0.56225103  1
  Zn  Zn182  1  0.56079095  0.31461448  0.06395224  1
  Zn  Zn183  1  0.56235473  0.31136203  0.56440319  1
  Zn  Zn184  1  0.56287345  0.81255114  0.06319247  1
  Zn  Zn185  1  0.56496046  0.81099860  0.56214199  1
  O  O186  1  0.11761230  0.11796860  0.12526143  1
  O  O187  1  0.11562570  0.11591302  0.63434334  1
  O  O188  1  0.12800374  0.62541125  0.11040412  1
  O  O189  1  0.12142532  0.62015949  0.61927576  1
  O  O190  1  0.61201503  0.11622274  0.13153958  1
  O  O191  1  0.62042531  0.12475510  0.61812673  1
  O  O192  1  0.61555850  0.61555623  0.12622253  1
  O  O193  1  0.62034070  0.63087976  0.61183776  1
  O  O194  1  0.37635288  0.37428778  0.38802609  1
  O  O195  1  0.37397632  0.38111756  0.88155010  1
  O  O196  1  0.38052302  0.88319290  0.38008186  1
  O  O197  1  0.37994557  0.88139195  0.87918415  1
  O  O198  1  0.87158804  0.37541157  0.38986655  1
  O  O199  1  0.88038903  0.38022167  0.88064202  1
  O  O200  1  0.88675519  0.88098969  0.37520949  1
  O  O201  1  0.88108669  0.88233004  0.88069297  1
  O  O202  1  0.26590273  0.00171743  0.37072650  1
  O  O203  1  0.25585896  0.00627948  0.86907915  1
  O  O204  1  0.25447175  0.51040797  0.37515994  1
  O  O205  1  0.25764457  0.50576279  0.87252539  1
  O  O206  1  0.75434721  0.00537729  0.37067146  1
  O  O207  1  0.75543350  0.00775672  0.87028720  1
  O  O208  1  0.75032349  0.50721204  0.36689046  1
  O  O209  1  0.76240305  0.49700400  0.86257905  1
  O  O210  1  0.24704344  0.48618364  0.12726989  1
  O  O211  1  0.24544806  0.49009527  0.62323367  1
  O  O212  1  0.24522053  0.99508202  0.13090037  1
  O  O213  1  0.24619968  0.99471041  0.63009499  1
  O  O214  1  0.74395661  0.49383003  0.13316950  1
  O  O215  1  0.75777053  0.48876831  0.63503543  1
  O  O216  1  0.73938193  1.00291655  0.13023911  1
  O  O217  1  0.75018674  0.99136913  0.62976891  1
  O  O218  1  0.01173071  0.37085662  0.25359184  1
  O  O219  1  -0.00312847  0.36872084  0.75847046  1
  O  O220  1  0.00482063  0.86876228  0.25737590  1
  O  O221  1  0.00687594  0.87573947  0.75597595  1
  O  O222  1  0.50498725  0.36808718  0.25091179  1
  O  O223  1  0.51307507  0.37584712  0.74671296  1
  O  O224  1  0.49923594  0.86775164  0.25754584  1
  O  O225  1  0.50488162  0.87043078  0.75408775  1
  O  O226  1  0.49068548  0.12929197  0.24040137  1
  O  O227  1  0.49426064  0.12432853  0.74360658  1
  O  O228  1  0.49241241  0.62874809  0.24749185  1
  O  O229  1  0.49470124  0.62880848  0.74315020  1
  O  O230  1  0.98929795  0.12530972  0.24122729  1
  O  O231  1  0.99260805  0.13013529  0.74488377  1
  O  O232  1  1.00767173  0.63873625  0.25114440  1
  O  O233  1  0.99119525  0.62402049  0.74425105  1
  O  O234  1  0.37171858  0.25719041  0.00845959  1
  O  O235  1  0.36741809  0.25640057  0.50564858  1
  O  O236  1  0.36857736  0.75739218  0.00075301  1
  O  O237  1  0.37160076  0.75384163  0.50566957  1
  O  O238  1  0.86440559  0.25915884  0.00536863  1
  O  O239  1  0.86861659  0.25786716  0.50543471  1
  O  O240  1  0.87768434  0.76435398  -0.00156632  1
  O  O241  1  0.86708132  0.75393227  0.50231448  1
  O  O242  1  0.14106378  0.25200221  0.50100051  1
  O  O243  1  0.12899292  0.24482199  0.99400053  1
  O  O244  1  0.13035820  0.74501824  0.49504772  1
  O  O245  1  0.13160829  0.74327217  0.99399052  1
  O  O246  1  0.63052233  0.24500550  0.49478583  1
  O  O247  1  0.64012277  0.25813148  0.99978101  1
  O  O248  1  0.63084853  0.74020711  0.49398256  1
  O  O249  1  0.62368756  0.74733974  0.99622435  1
  O  O250  1  0.49541665  0.24237866  0.13012853  1
  O  O251  1  0.49324030  0.24250851  0.62602487  1
  O  O252  1  0.49732585  0.74294905  0.13317544  1
  O  O253  1  0.49461929  0.74413493  0.62961277  1
  O  O254  1  0.99080424  0.24271275  0.12639174  1
  O  O255  1  0.99445114  0.24509452  0.62930972  1
  O  O256  1  1.00305389  0.75101511  0.14083308  1
  O  O257  1  0.99875165  0.74327685  0.62730099  1
  O  O258  1  0.00368449  0.25376813  0.37351938  1
  O  O259  1  -0.00397563  0.25938144  0.86830020  1
  O  O260  1  0.00421895  0.75606768  0.36708689  1
  O  O261  1  0.00747921  0.75836458  0.87138751  1
  O  O262  1  0.50639563  0.25115536  0.36870109  1
  O  O263  1  0.50327200  0.25363658  0.87163505  1
  O  O264  1  0.50517773  0.75440971  0.37123397  1
  O  O265  1  0.49756154  0.75805683  0.86636309  1
  O  O266  1  0.25371651  0.13469907  0.50439736  1
  O  O267  1  0.25108711  0.12380125  0.98815569  1
  O  O268  1  0.24557133  0.63214989  0.49624867  1
  O  O269  1  0.24375653  0.63168705  0.99428422  1
  O  O270  1  0.74576829  0.13021169  0.49510753  1
  O  O271  1  0.75817736  0.13529668  0.98953593  1
  O  O272  1  0.74280106  0.62724273  0.49491640  1
  O  O273  1  0.74302849  0.62490630  0.99416848  1
  O  O274  1  0.25506083  0.37429973  0.00987848  1
  O  O275  1  0.25790967  0.36712764  0.50864467  1
  O  O276  1  0.25512118  0.87152378  0.00433997  1
  O  O277  1  0.26083481  0.86601690  0.50961435  1
  O  O278  1  0.75898103  0.36792977  0.00443800  1
  O  O279  1  0.75500635  0.37199578  0.50717594  1
  O  O280  1  0.76288753  0.87792439  0.00155735  1
  O  O281  1  0.75006276  0.86974683  0.50851137  1
  O  O282  1  0.13027365  0.48716251  0.24909954  1
  O  O283  1  0.12915924  0.49655217  0.74154500  1
  O  O284  1  0.13053388  0.99276133  0.24293114  1
  O  O285  1  0.13151859  0.99316458  0.74417403  1
  O  O286  1  0.63186085  0.49323667  0.24572437  1
  O  O287  1  0.63835827  0.49071746  0.75373671  1
  O  O288  1  0.62975738  0.99970335  0.24151073  1
  O  O289  1  0.63300210  0.99261147  0.74620958  1
  O  O290  1  0.37142712  0.00573079  0.25655337  1
  O  O291  1  0.36967015  0.00465650  0.75519842  1
  O  O292  1  0.37390589  0.51242848  0.25340694  1
  O  O293  1  0.37411890  0.50614847  0.75529691  1
  O  O294  1  0.86860270  0.00553565  0.25518573  1
  O  O295  1  0.86955322  0.00589235  0.75575890  1
  O  O296  1  0.85930797  0.48944931  0.25183113  1
  O  O297  1  0.86744321  0.50695557  0.75579933  1
  O  O298  1  0.12850935  0.36996649  0.36595604  1
  O  O299  1  0.11143120  0.37679489  0.87515463  1
  O  O300  1  0.11042407  0.86780821  0.36648590  1
  O  O301  1  0.12096193  0.87105517  0.86967630  1
  O  O302  1  0.62405250  0.36718572  0.36933332  1
  O  O303  1  0.62533913  0.37299716  0.86321814  1
  O  O304  1  0.61778360  0.86758901  0.37485538  1
  O  O305  1  0.61683195  0.87676943  0.86718708  1
  O  O306  1  0.38375683  0.12826992  0.13371044  1
  O  O307  1  0.38189417  0.12873845  0.63147290  1
  O  O308  1  0.37953073  0.62570436  0.13552302  1
  O  O309  1  0.38088680  0.63048429  0.62911774  1
  O  O310  1  0.87792835  0.12910225  0.12977747  1
  O  O311  1  0.88050708  0.13059014  0.63058235  1
  O  O312  1  0.87721043  0.63172086  0.11837070  1
  O  O313  1  0.88145955  0.62441317  0.63415224  1
  O  O314  1  0.25686312  0.25938078  0.12516117  1
  O  O315  1  0.25490652  0.25622688  0.61605142  1
  O  O316  1  0.25215159  0.75912913  0.11884014  1
  O  O317  1  0.25637978  0.75443909  0.62052931  1
  O  O318  1  0.75405963  0.25386117  0.11799976  1
  O  O319  1  0.75620744  0.25842492  0.61939710  1
  O  O320  1  0.74989605  0.75606105  0.12234319  1
  O  O321  1  0.75170856  0.75952982  0.61953505  1
  O  O322  1  0.25242818  0.25112375  0.39360893  1
  O  O323  1  0.25021577  0.23771849  0.87469011  1
  O  O324  1  0.24455626  0.74588060  0.38087784  1
  O  O325  1  0.24488728  0.74475287  0.88048455  1
  O  O326  1  0.74395213  0.24366419  0.38058209  1
  O  O327  1  0.75103449  0.24210420  0.88262458  1
  O  O328  1  0.74533130  0.74213022  0.37883763  1
  O  O329  1  0.74637779  0.74685421  0.88008329  1
  O  O330  1  -0.00281374  0.11812950  0.00621975  1
  O  O331  1  -0.00809096  0.11338250  0.50705722  1
  O  O332  1  0.01640738  0.63199320  -0.00035006  1
  O  O333  1  0.00613609  0.62017809  0.50476804  1
  O  O334  1  0.49098445  0.11922739  0.01306867  1
  O  O335  1  0.50493340  0.12036666  0.50522181  1
  O  O336  1  0.49756536  0.61596348  0.00838172  1
  O  O337  1  0.50768973  0.61831551  0.50369781  1
  O  O338  1  0.49234240  0.38112516  0.50229633  1
  O  O339  1  0.49067617  0.38172998  1.00172305  1
  O  O340  1  0.49459412  0.87932984  0.49535801  1
  O  O341  1  0.49326500  0.88207413  0.99397119  1
  O  O342  1  0.98999305  0.37991597  0.50268894  1
  O  O343  1  0.98627552  0.36627875  0.99024028  1
  O  O344  1  1.00031318  0.88475325  0.49067730  1
  O  O345  1  0.99395725  0.88131663  0.99422822  1
  O  O346  1  0.49722479  0.49773136  0.38896312  1
  O  O347  1  0.49178660  0.49572202  0.88193235  1
  O  O348  1  0.49148996  0.99477520  0.37933681  1
  O  O349  1  0.49458769  0.99572270  0.87952750  1
  O  O350  1  0.99732432  0.49556178  0.38370666  1
  O  O351  1  0.98667502  0.48828377  0.86731328  1
  O  O352  1  0.99573473  0.99321502  0.38057629  1
  O  O353  1  0.99473081  0.99602757  0.87969407  1
  O  O354  1  0.00492083  0.00490151  0.12041141  1
  O  O355  1  0.00407346  0.00373452  0.61684393  1
  O  O356  1  0.00662591  0.49806494  0.12456038  1
  O  O357  1  0.00579633  0.50551477  0.61948378  1
  O  O358  1  0.50554892  0.00731391  0.12104201  1
  O  O359  1  0.50123622  0.00642403  0.61696884  1
  O  O360  1  0.50424355  0.50441749  0.12070743  1
  O  O361  1  0.49506540  0.50722835  0.61089953  1
  O  O362  1  0.24526862  0.37443646  0.24272037  1
  O  O363  1  0.25067372  0.37378511  0.73502356  1
  O  O364  1  0.24556062  0.88125864  0.24523778  1
  O  O365  1  0.24618402  0.88008848  0.74398032  1
  O  O366  1  0.74313819  0.38108397  0.24461907  1
  O  O367  1  0.74621178  0.38058497  0.74250971  1
  O  O368  1  0.74772315  0.88461850  0.24914776  1
  O  O369  1  0.74633878  0.88009848  0.74276065  1
  O  O370  1  0.26557855  0.11884075  0.24123009  1
  O  O371  1  0.25648993  0.11921438  0.75681384  1
  O  O372  1  0.25833594  0.62677248  0.25519541  1
  O  O373  1  0.25775700  0.62420723  0.75674504  1
  O  O374  1  0.75386584  0.11923383  0.25619016  1
  O  O375  1  0.75610766  0.12095791  0.75629145  1
  O  O376  1  0.74154849  0.61367338  0.26096532  1
  O  O377  1  0.75887581  0.61551042  0.74698607  1
  O  O378  1  0.38521328  0.11509887  0.36330710  1
  O  O379  1  0.36768186  0.11881634  0.87003612  1
  O  O380  1  0.36949771  0.62635658  0.36634337  1
  O  O381  1  0.37037872  0.61909821  0.86965684  1
  O  O382  1  0.86779811  0.11951163  0.36952314  1
  O  O383  1  0.86655020  0.11995535  0.86881512  1
  O  O384  1  0.85952732  0.62248510  0.38241578  1
  O  O385  1  0.87767600  0.61460855  0.86628558  1
  O  O386  1  0.13449904  0.37104268  0.13336459  1
  O  O387  1  0.13437974  0.38071730  0.62366201  1
  O  O388  1  0.13110324  0.88091500  0.12922222  1
  O  O389  1  0.13119945  0.88209489  0.63013975  1
  O  O390  1  0.63045958  0.37977000  0.13190738  1
  O  O391  1  0.63858069  0.36941078  0.63209061  1
  O  O392  1  0.62322520  0.88941497  0.12954766  1
  O  O393  1  0.63618409  0.87605633  0.62991551  1
  O  O394  1  0.12518314  0.26019402  0.25317932  1
  O  O395  1  0.11572897  0.25514969  0.75412705  1
  O  O396  1  0.11685661  0.75538151  0.25539374  1
  O  O397  1  0.12521077  0.75691428  0.75673476  1
  O  O398  1  0.61997779  0.25455960  0.25456599  1
  O  O399  1  0.62543374  0.26161996  0.75285221  1
  O  O400  1  0.61732115  0.74976630  0.25810910  1
  O  O401  1  0.61707174  0.75718205  0.74975540  1
  O  O402  1  0.37955775  0.24201809  0.24615256  1
  O  O403  1  0.37713158  0.24277670  0.74224939  1
  O  O404  1  0.38061914  0.74001252  0.25017879  1
  O  O405  1  0.38087266  0.74397522  0.74374031  1
  O  O406  1  0.87219401  0.24352019  0.24249771  1
  O  O407  1  0.87923952  0.24545303  0.74355742  1
  O  O408  1  0.89204863  0.75414607  0.25187679  1
  O  O409  1  0.87582740  0.73590642  0.74992933  1
  O  O410  1  0.38274029  0.49017960  0.49925372  1
  O  O411  1  0.37948887  0.49446662  0.99527176  1
  O  O412  1  0.38070856  0.99563289  0.49244592  1
  O  O413  1  0.38137159  0.99426649  0.99406340  1
  O  O414  1  0.88048306  0.49062478  0.50052287  1
  O  O415  1  0.86595410  0.48701902  0.98836956  1
  O  O416  1  0.88488990  0.99682746  0.49298357  1
  O  O417  1  0.88082650  0.99242621  0.99463674  1
  O  O418  1  0.11774709  0.00197765  0.00676711  1
  O  O419  1  0.11337733  0.00289545  0.50651535  1
  O  O420  1  0.12955405  0.51656380  -0.00082092  1
  O  O421  1  0.11996124  0.50601544  0.50551045  1
  O  O422  1  0.61751466  -0.00346646  0.01132194  1
  O  O423  1  0.61834556  0.00760052  0.50008070  1
  O  O424  1  0.61721207  0.49604922  0.00812248  1
  O  O425  1  0.61715305  0.50925096  0.49523206  1
  O  O426  1  0.36681247  0.37012055  0.12221733  1
  O  O427  1  0.36794614  0.37024243  0.61599004  1
  O  O428  1  0.36882191  0.87568313  0.11798774  1
  O  O429  1  0.37147631  0.86898235  0.62086981  1
  O  O430  1  0.86891851  0.36963773  0.11722527  1
  O  O431  1  0.86642392  0.37018847  0.61645169  1
  O  O432  1  0.87429138  0.87255725  0.11426846  1
  O  O433  1  0.86309141  0.87357688  0.62537657  1
  O  O434  1  0.13290992  0.12292748  0.36307395  1
  O  O435  1  0.13745401  0.12344785  0.87443703  1
  O  O436  1  0.13098213  0.63097625  0.38119486  1
  O  O437  1  0.12992121  0.62947830  0.88351634  1
  O  O438  1  0.62943975  0.13027041  0.37999044  1
  O  O439  1  0.64017305  0.12518190  0.86917932  1
  O  O440  1  0.63369591  0.62951359  0.38571796  1
  O  O441  1  0.62672384  0.62712778  0.87588193  1
