# generated using pymatgen
data_V93Zn93O256
_symmetry_space_group_name_H-M   'P 1'
_cell_length_a   17.05538283
_cell_length_b   17.04993384
_cell_length_c   17.05389917
_cell_angle_alpha   90.08685864
_cell_angle_beta   89.99869669
_cell_angle_gamma   89.99275162
_symmetry_Int_Tables_number   1
_chemical_formula_structural   V93Zn93O256
_chemical_formula_sum   'V93 Zn93 O256'
_cell_volume   4959.15129967
_cell_formula_units_Z   1
loop_
 _symmetry_equiv_pos_site_id
 _symmetry_equiv_pos_as_xyz
  1  'x, y, z'
loop_
 _atom_site_type_symbol
 _atom_site_label
 _atom_site_symmetry_multiplicity
 _atom_site_fract_x
 _atom_site_fract_y
 _atom_site_fract_z
 _atom_site_occupancy
  V  V0  1  0.74692495  0.49600848  0.75180879  1
  V  V1  1  0.12565943  0.25096249  0.87372196  1
  V  V2  1  0.49690086  0.62747344  0.62762639  1
  V  V3  1  0.50001222  -0.00789378  0.49529180  1
  V  V4  1  0.87033565  0.12085955  0.24774983  1
  V  V5  1  0.12436830  0.12537483  -0.00062877  1
  V  V6  1  -0.00018996  0.50195145  0.00044832  1
  V  V7  1  0.25024081  -0.00005780  0.24948921  1
  V  V8  1  0.25227893  0.12439048  0.87126673  1
  V  V9  1  0.62456884  0.62732253  0.00244828  1
  V  V10  1  0.12527349  0.74877510  0.37528698  1
  V  V11  1  0.87446889  0.24868433  0.62407531  1
  V  V12  1  0.62555299  0.75141774  0.87682004  1
  V  V13  1  0.37941312  -0.00878084  0.37334409  1
  V  V14  1  0.87500864  0.37571230  0.00157362  1
  V  V15  1  -0.00127678  0.37378820  0.37555777  1
  V  V16  1  0.87639497  0.87390842  0.50028100  1
  V  V17  1  0.49962163  0.37461244  0.37527891  1
  V  V18  1  0.87574245  0.74912643  0.62737857  1
  V  V19  1  0.62562073  -0.00022526  0.62367370  1
  V  V20  1  0.25659081  0.74998708  0.50362281  1
  V  V21  1  0.12444336  0.62355920  0.50093071  1
  V  V22  1  0.00026865  0.74906047  0.75003463  1
  V  V23  1  0.00167627  0.12392184  0.62356046  1
  V  V24  1  0.75029821  0.62256000  0.37632555  1
  V  V25  1  0.62571996  0.87501805  0.75053933  1
  V  V26  1  0.37282155  0.62870245  0.75018737  1
  V  V27  1  0.87511237  0.24932352  0.12498220  1
  V  V28  1  0.62484851  0.12384851  0.49847247  1
  V  V29  1  0.00099100  0.87624075  0.87523940  1
  V  V30  1  0.25001245  0.87502529  0.12404465  1
  V  V31  1  0.62569495  0.25523212  0.87152548  1
  V  V32  1  -0.00107594  0.87335378  0.37554082  1
  V  V33  1  0.12327712  0.49971633  0.62427645  1
  V  V34  1  0.63229033  0.00044916  0.13004399  1
  V  V35  1  0.00035990  0.74865380  0.25067107  1
  V  V36  1  0.87480086  0.87719479  0.00033480  1
  V  V37  1  0.25062656  0.74652080  -0.00534541  1
  V  V38  1  0.12713670  0.87402729  0.74859745  1
  V  V39  1  0.37768036  0.74723021  0.12405173  1
  V  V40  1  0.50371612  0.37865566  0.87228018  1
  V  V41  1  0.62417310  0.50064455  0.12567541  1
  V  V42  1  0.49989962  0.24835101  0.24801083  1
  V  V43  1  0.75157313  0.87411386  0.62681114  1
  V  V44  1  0.00011194  0.62487449  0.12546673  1
  V  V45  1  0.24992106  0.12285681  0.37340802  1
  V  V46  1  0.49989900  0.50304780  0.00050664  1
  V  V47  1  0.37904442  0.88409320  -0.00411445  1
  V  V48  1  0.12665794  -0.00199178  0.62375959  1
  V  V49  1  0.74968215  0.12144514  0.37276112  1
  V  V50  1  0.12655046  0.37527995  0.24692326  1
  V  V51  1  0.75131828  0.00109802  0.74934951  1
  V  V52  1  0.37469530  0.37352522  0.49869438  1
  V  V53  1  0.25017642  0.62348699  0.37477293  1
  V  V54  1  0.87497967  0.62468072  0.75062187  1
  V  V55  1  0.87530258  0.12479609  0.74963024  1
  V  V56  1  0.86962698  -0.00360062  0.36950775  1
  V  V57  1  0.74977735  0.12733212  0.87247210  1
  V  V58  1  0.37285464  0.50415160  0.87599011  1
  V  V59  1  0.74728900  0.37434292  0.62655237  1
  V  V60  1  0.00037370  0.37494546  0.87448455  1
  V  V61  1  0.00042436  0.25080880  0.74938723  1
  V  V62  1  0.24978350  0.50395405  0.75341190  1
  V  V63  1  0.25089817  0.24751129  0.49985161  1
  V  V64  1  0.87407128  0.75083182  0.12585093  1
  V  V65  1  0.50229453  0.25492618  0.74830578  1
  V  V66  1  0.87498489  0.62425642  0.25234765  1
  V  V67  1  0.87462394  0.50069868  0.87508877  1
  V  V68  1  0.74926022  0.75195055  0.00255797  1
  V  V69  1  0.12705912  0.74918118  0.87499165  1
  V  V70  1  0.12476656  0.87502942  0.24991555  1
  V  V71  1  0.25054437  0.37466695  0.62501200  1
  V  V72  1  0.49915025  0.12042265  0.11946719  1
  V  V73  1  0.12678748  0.62622339  -0.00305266  1
  V  V74  1  0.62284277  0.49484776  0.63158242  1
  V  V75  1  0.37384742  0.49980604  0.37360864  1
  V  V76  1  0.62069158  0.11980174  -0.00452471  1
  V  V77  1  0.62480997  0.62293751  0.50347597  1
  V  V78  1  0.49968103  0.12612785  0.62388731  1
  V  V79  1  0.74918490  0.37574857  0.12589926  1
  V  V80  1  0.37587111  0.24940745  0.62460975  1
  V  V81  1  0.12506674  0.24838158  0.37411662  1
  V  V82  1  0.62470810  0.37569674  0.24975637  1
  V  V83  1  0.49779010  0.75331766  0.75042881  1
  V  V84  1  0.61731227  0.75328831  0.37409716  1
  V  V85  1  0.75047363  0.74778654  0.50315670  1
  V  V86  1  0.12510954  0.12279616  0.49910919  1
  V  V87  1  0.62500151  0.24935791  0.37464274  1
  V  V88  1  0.12459832  0.00131382  0.12403343  1
  V  V89  1  0.37562424  0.12454194  0.24741247  1
  V  V90  1  0.25837643  0.87089333  0.62375574  1
  V  V91  1  0.87440717  0.37335111  0.49880913  1
  V  V92  1  0.74898444  0.24854712  0.50036254  1
  Zn  Zn93  1  0.12690182  0.49932266  0.12486995  1
  Zn  Zn94  1  0.74870774  0.25182944  -0.00188601  1
  Zn  Zn95  1  0.38294031  0.00531095  0.87136173  1
  Zn  Zn96  1  0.37366808  0.25344036  0.12128778  1
  Zn  Zn97  1  0.49896630  0.49886266  0.50257339  1
  Zn  Zn98  1  0.49432861  0.75739050  0.25540616  1
  Zn  Zn99  1  0.24893337  0.50152818  0.24697998  1
  Zn  Zn100  1  -0.00358289  0.50014780  0.50156104  1
  Zn  Zn101  1  0.50727350  0.88783537  0.88181528  1
  Zn  Zn102  1  0.12534254  0.37593813  0.75025093  1
  Zn  Zn103  1  0.62483051  0.88384745  0.26005654  1
  Zn  Zn104  1  0.87447599  0.49818805  0.37603163  1
  Zn  Zn105  1  0.37506035  0.62737674  0.25047672  1
  Zn  Zn106  1  -0.00084582  0.62402441  0.62430272  1
  Zn  Zn107  1  0.25433131  -0.00211090  0.74877065  1
  Zn  Zn108  1  0.37557454  0.12323781  0.74926674  1
  Zn  Zn109  1  0.74990517  0.49940000  0.25148973  1
  Zn  Zn110  1  0.75002342  0.62526829  0.87681312  1
  Zn  Zn111  1  -0.00007223  0.00045009  -0.00059861  1
  Zn  Zn112  1  0.37239521  0.37543336  0.00235125  1
  Zn  Zn113  1  0.00025859  -0.00099410  0.49856018  1
  Zn  Zn114  1  0.00007118  0.24763654  0.24880547  1
  Zn  Zn115  1  -0.00153058  0.12320852  0.12434715  1
  Zn  Zn116  1  0.25369723  0.37661102  0.12138524  1
  Zn  Zn117  1  0.87687283  0.00254397  0.87591768  1
  Zn  Zn118  1  0.38115870  0.86880973  0.49913650  1
  Zn  Zn119  1  0.50089684  0.62635432  0.13159484  1
  Zn  Zn120  1  0.75616727  0.88429300  0.13781669  1
  Zn  Zn121  1  0.25298050  0.25496811  0.00026135  1
  Zn  Zn122  1  0.18908668  0.19145815  0.18484095  1
  Zn  Zn123  1  0.18697284  0.18701274  0.68820252  1
  Zn  Zn124  1  0.19009980  0.68640868  0.18597383  1
  Zn  Zn125  1  0.18745537  0.68733120  0.68619043  1
  Zn  Zn126  1  0.68810033  0.18687001  0.18591579  1
  Zn  Zn127  1  0.68561073  0.18717557  0.68755727  1
  Zn  Zn128  1  0.68961116  0.68863084  0.18889093  1
  Zn  Zn129  1  0.68689898  0.68457194  0.69052310  1
  Zn  Zn130  1  0.31220790  0.31080562  0.30956795  1
  Zn  Zn131  1  0.31378514  0.31410841  0.81335938  1
  Zn  Zn132  1  0.30956943  0.81121144  0.31191260  1
  Zn  Zn133  1  0.31234244  0.81265911  0.81332494  1
  Zn  Zn134  1  0.81121805  0.30932798  0.31083425  1
  Zn  Zn135  1  0.81400013  0.31397142  0.81154489  1
  Zn  Zn136  1  0.80586599  0.81171218  0.31057390  1
  Zn  Zn137  1  0.81208579  0.81244029  0.81578415  1
  Zn  Zn138  1  0.18735504  0.43580375  0.43684128  1
  Zn  Zn139  1  0.18677718  0.43825709  0.93783097  1
  Zn  Zn140  1  0.18896260  0.93597536  0.43810338  1
  Zn  Zn141  1  0.19110930  0.93901245  0.93652944  1
  Zn  Zn142  1  0.68501665  0.43792686  0.44122384  1
  Zn  Zn143  1  0.68765385  0.43852947  0.94015452  1
  Zn  Zn144  1  0.69051987  0.93555968  0.44013318  1
  Zn  Zn145  1  0.69041382  0.93930474  0.93789998  1
  Zn  Zn146  1  0.30926493  0.06690315  0.06184461  1
  Zn  Zn147  1  0.31391641  0.05954310  0.56197429  1
  Zn  Zn148  1  0.30968040  0.56047498  0.06445908  1
  Zn  Zn149  1  0.31205882  0.56188215  0.56291066  1
  Zn  Zn150  1  0.80855929  0.06587897  0.05740356  1
  Zn  Zn151  1  0.81440171  0.06061712  0.55974586  1
  Zn  Zn152  1  0.81045953  0.56371141  0.06395604  1
  Zn  Zn153  1  0.81291275  0.56022935  0.56400237  1
  Zn  Zn154  1  0.43816764  0.43761374  0.18721832  1
  Zn  Zn155  1  0.43568267  0.43747413  0.68929168  1
  Zn  Zn156  1  0.44481540  0.93412490  0.18739814  1
  Zn  Zn157  1  0.43792712  0.94073065  0.68788363  1
  Zn  Zn158  1  0.93824970  0.43929891  0.18984908  1
  Zn  Zn159  1  0.93509513  0.43587699  0.68759318  1
  Zn  Zn160  1  0.94041962  0.93836700  0.18681255  1
  Zn  Zn161  1  0.93989090  0.93795572  0.68830276  1
  Zn  Zn162  1  0.05753163  0.06122984  0.31112994  1
  Zn  Zn163  1  0.06450630  0.06025012  0.81130842  1
  Zn  Zn164  1  0.06218014  0.55919071  0.31415498  1
  Zn  Zn165  1  0.06182368  0.56355008  0.81347777  1
  Zn  Zn166  1  0.56028184  0.06331996  0.31035528  1
  Zn  Zn167  1  0.56070408  0.06395778  0.81071161  1
  Zn  Zn168  1  0.55806315  0.56611602  0.31023201  1
  Zn  Zn169  1  0.56309510  0.56651306  0.81454813  1
  Zn  Zn170  1  0.43715756  0.18299344  0.43531324  1
  Zn  Zn171  1  0.43631761  0.19016331  0.93808736  1
  Zn  Zn172  1  0.43765841  0.68219300  0.44066701  1
  Zn  Zn173  1  0.43954514  0.68928020  0.93645078  1
  Zn  Zn174  1  0.93773874  0.18592231  0.43600998  1
  Zn  Zn175  1  0.93854841  0.18899546  0.93727639  1
  Zn  Zn176  1  0.93829567  0.68610055  0.44017063  1
  Zn  Zn177  1  0.93773171  0.68903621  0.93685192  1
  Zn  Zn178  1  0.06188752  0.31051394  0.06124635  1
  Zn  Zn179  1  0.06336837  0.31190065  0.56197277  1
  Zn  Zn180  1  0.06142458  0.81241491  0.06335893  1
  Zn  Zn181  1  0.06479603  0.81105865  0.56274000  1
  Zn  Zn182  1  0.55936702  0.31205287  0.05938905  1
  Zn  Zn183  1  0.56243669  0.31386802  0.56071358  1
  Zn  Zn184  1  0.56040979  0.81572360  0.06435182  1
  Zn  Zn185  1  0.56426340  0.80998303  0.56467303  1
  O  O186  1  0.12492573  0.12065100  0.11501184  1
  O  O187  1  0.12133167  0.11923957  0.61852088  1
  O  O188  1  0.11750203  0.62784773  0.11390000  1
  O  O189  1  0.12473007  0.61424292  0.62001004  1
  O  O190  1  0.62084291  0.11970906  0.11588468  1
  O  O191  1  0.62029807  0.11947165  0.61772032  1
  O  O192  1  0.62473704  0.61978278  0.11980981  1
  O  O193  1  0.61687912  0.61584506  0.62376155  1
  O  O194  1  0.37908110  0.38066850  0.37934748  1
  O  O195  1  0.38602001  0.38889875  0.87255277  1
  O  O196  1  0.36904743  0.88808700  0.37633540  1
  O  O197  1  0.37201245  0.87594877  0.88964000  1
  O  O198  1  0.88234531  0.37182365  0.37954655  1
  O  O199  1  0.88052516  0.38025004  0.88141280  1
  O  O200  1  0.87787292  0.87898301  0.37905163  1
  O  O201  1  0.88138689  0.87542154  0.88505472  1
  O  O202  1  0.25762908  0.00409503  0.36924012  1
  O  O203  1  0.25270297  0.01239759  0.87234082  1
  O  O204  1  0.25857410  0.50475190  0.37621218  1
  O  O205  1  0.25911621  0.49642369  0.86245034  1
  O  O206  1  0.76193110  0.00478492  0.38152619  1
  O  O207  1  0.75166701  0.00900455  0.86633634  1
  O  O208  1  0.74851062  0.51230544  0.37649903  1
  O  O209  1  0.75514557  0.49962133  0.86691380  1
  O  O210  1  0.24395685  0.49599165  0.13006414  1
  O  O211  1  0.24289681  0.49487758  0.63242439  1
  O  O212  1  0.24423072  0.99531448  0.13102669  1
  O  O213  1  0.24347450  0.98913626  0.62265553  1
  O  O214  1  0.74265503  0.49339367  0.12749208  1
  O  O215  1  0.74182002  0.49540170  0.63291831  1
  O  O216  1  0.73597398  1.00442468  0.12189217  1
  O  O217  1  0.74536404  0.99449480  0.62841174  1
  O  O218  1  0.00605448  0.37217319  0.26051854  1
  O  O219  1  -0.00025412  0.36854699  0.75639470  1
  O  O220  1  0.00540299  0.86794079  0.25596656  1
  O  O221  1  0.00661848  0.86820575  0.75494911  1
  O  O222  1  0.50625776  0.36846418  0.25702319  1
  O  O223  1  0.49693345  0.36642468  0.75904726  1
  O  O224  1  0.51395688  0.86836161  0.24437529  1
  O  O225  1  0.50664622  0.86462874  0.74473329  1
  O  O226  1  0.49486076  0.12980127  0.24086836  1
  O  O227  1  0.49967769  0.13846119  0.74154153  1
  O  O228  1  0.49270436  0.63640878  0.24903294  1
  O  O229  1  0.49409865  0.63305391  0.74516752  1
  O  O230  1  0.98495063  0.12721393  0.24794466  1
  O  O231  1  0.99550053  0.13064578  0.74345968  1
  O  O232  1  0.99593651  0.63017690  0.24669917  1
  O  O233  1  0.99327241  0.63144529  0.74887697  1
  O  O234  1  0.37283982  0.25609892  0.00165043  1
  O  O235  1  0.37011813  0.25328294  0.50362954  1
  O  O236  1  0.36634934  0.75481537  0.00385339  1
  O  O237  1  0.36130480  0.75121038  0.49270548  1
  O  O238  1  0.87354120  0.25633959  0.00852938  1
  O  O239  1  0.86785206  0.25235302  0.50508314  1
  O  O240  1  0.87098990  0.75801529  0.00562150  1
  O  O241  1  0.86979244  0.75419364  0.50731789  1
  O  O242  1  0.13221677  0.24317438  0.49481607  1
  O  O243  1  0.12348618  0.24019610  0.99151743  1
  O  O244  1  0.13324005  0.74351253  0.49386485  1
  O  O245  1  0.13160961  0.74573392  0.99634702  1
  O  O246  1  0.62954095  0.24362420  0.49470775  1
  O  O247  1  0.62535931  0.24333680  0.98666076  1
  O  O248  1  0.63109966  0.74195894  0.49606334  1
  O  O249  1  0.62936720  0.74819695  0.99710269  1
  O  O250  1  0.50320158  0.23851556  0.13157003  1
  O  O251  1  0.49724075  0.24795536  0.63064401  1
  O  O252  1  0.48614153  0.74836424  0.12108565  1
  O  O253  1  0.50732182  0.73781622  0.63702900  1
  O  O254  1  0.98537145  0.24705700  0.12526694  1
  O  O255  1  0.99460630  0.24440530  0.62905172  1
  O  O256  1  0.99434946  0.74495292  0.13177595  1
  O  O257  1  0.99397617  0.74897177  0.63264473  1
  O  O258  1  0.00563269  0.25857467  0.37480095  1
  O  O259  1  0.00486321  0.25559935  0.86842596  1
  O  O260  1  0.00577062  0.75344111  0.37003682  1
  O  O261  1  0.00629151  0.75688977  0.86930474  1
  O  O262  1  0.50600852  0.25313353  0.36985697  1
  O  O263  1  0.50639207  0.25875404  0.86688155  1
  O  O264  1  0.51532770  0.74421748  0.38318203  1
  O  O265  1  0.50672169  0.75519720  0.86426437  1
  O  O266  1  0.24511395  0.12847600  0.49357521  1
  O  O267  1  0.23876854  0.12685089  0.99000270  1
  O  O268  1  0.24510136  0.63191217  0.49683807  1
  O  O269  1  0.23842265  0.63612676  1.00573579  1
  O  O270  1  0.74417975  0.12927962  0.49439126  1
  O  O271  1  0.74006708  0.13181003  0.98998102  1
  O  O272  1  0.74577225  0.62852333  0.49574630  1
  O  O273  1  0.74337003  0.63313282  0.99917032  1
  O  O274  1  0.25264471  0.37409248  0.00032481  1
  O  O275  1  0.25496682  0.36677473  0.50481550  1
  O  O276  1  0.25676063  0.86559828  0.00493476  1
  O  O277  1  0.25010360  0.86537479  0.50663495  1
  O  O278  1  0.75732697  0.37403091  0.00715983  1
  O  O279  1  0.75368584  0.36737308  0.50572362  1
  O  O280  1  0.76178588  0.87081727  0.00241312  1
  O  O281  1  0.75711384  0.86785754  0.50830993  1
  O  O282  1  0.12473346  0.48825065  0.24951846  1
  O  O283  1  0.13374422  0.50213641  0.74300661  1
  O  O284  1  0.13003453  0.99483060  0.24547099  1
  O  O285  1  0.12885128  0.99134579  0.74162608  1
  O  O286  1  0.62426251  0.49334165  0.24422995  1
  O  O287  1  0.63454084  0.50721867  0.74224806  1
  O  O288  1  0.62319391  1.00571131  0.23348266  1
  O  O289  1  0.63155977  0.99560850  0.74189326  1
  O  O290  1  0.37112888  0.00323248  0.25510994  1
  O  O291  1  0.37077015  0.00557521  0.75108725  1
  O  O292  1  0.37376809  0.49978055  0.26513093  1
  O  O293  1  0.36850292  0.50772576  0.75602765  1
  O  O294  1  0.87828979  0.00668508  0.25921984  1
  O  O295  1  0.86900361  0.00710527  0.75010770  1
  O  O296  1  0.87162268  0.50834678  0.25491123  1
  O  O297  1  0.86721196  0.50481761  0.75445710  1
  O  O298  1  0.11723357  0.36838121  0.37021734  1
  O  O299  1  0.11701024  0.37006475  0.87227917  1
  O  O300  1  0.12002884  0.86925775  0.36931446  1
  O  O301  1  0.12173006  0.86891037  0.86935059  1
  O  O302  1  0.61990365  0.36916527  0.37160169  1
  O  O303  1  0.61541453  0.36747617  0.87968333  1
  O  O304  1  0.63221728  0.85552329  0.38253452  1
  O  O305  1  0.62602417  0.86993570  0.86858718  1
  O  O306  1  0.38419253  0.12385348  0.12920487  1
  O  O307  1  0.38194759  0.13296526  0.62277644  1
  O  O308  1  0.37358903  0.63682592  0.12499981  1
  O  O309  1  0.38701991  0.61582205  0.63658589  1
  O  O310  1  0.87243254  0.13166215  0.13050611  1
  O  O311  1  0.88056966  0.12987406  0.62869235  1
  O  O312  1  0.88031244  0.63102825  0.13115410  1
  O  O313  1  0.87589009  0.63120181  0.63189865  1
  O  O314  1  0.25403556  0.25564314  0.12073941  1
  O  O315  1  0.25542098  0.25439684  0.61966810  1
  O  O316  1  0.25645382  0.75590180  0.11536514  1
  O  O317  1  0.24363262  0.75773920  0.61358305  1
  O  O318  1  0.76010045  0.25623643  0.12334296  1
  O  O319  1  0.75355229  0.25398003  0.62032080  1
  O  O320  1  0.75732454  0.75252016  0.11878908  1
  O  O321  1  0.75490378  0.75408308  0.62306384  1
  O  O322  1  0.24551927  0.24200379  0.38024045  1
  O  O323  1  0.24302494  0.24208076  0.87257360  1
  O  O324  1  0.24354465  0.74461003  0.38294430  1
  O  O325  1  0.24370647  0.75410105  0.88742446  1
  O  O326  1  0.74403169  0.24289402  0.38145805  1
  O  O327  1  0.73996435  0.24783012  0.87106614  1
  O  O328  1  0.74289483  0.73764733  0.38402693  1
  O  O329  1  0.74310741  0.74876148  0.88325641  1
  O  O330  1  0.01217885  0.12268178  -0.00109571  1
  O  O331  1  0.00715797  0.12410297  0.50568686  1
  O  O332  1  0.00614054  0.62259674  0.00603438  1
  O  O333  1  0.00822911  0.62084386  0.50327335  1
  O  O334  1  0.51070364  0.13336527  0.00766307  1
  O  O335  1  0.50634885  0.11620484  0.50417776  1
  O  O336  1  0.50755474  0.61985329  0.00099954  1
  O  O337  1  0.50400265  0.62209168  0.51403370  1
  O  O338  1  0.49253562  0.37573719  0.49310880  1
  O  O339  1  0.49895395  0.38426693  0.98745020  1
  O  O340  1  0.49913130  0.88810072  0.50915323  1
  O  O341  1  0.48164549  0.87010190  0.99906881  1
  O  O342  1  0.99386968  0.37265552  0.49128160  1
  O  O343  1  0.99469917  0.38180800  0.99447945  1
  O  O344  1  0.99380668  0.87275831  0.49292198  1
  O  O345  1  0.99050145  0.87397099  0.99451785  1
  O  O346  1  0.49104010  0.49420449  0.37874437  1
  O  O347  1  0.49507494  0.49479346  0.87686207  1
  O  O348  1  0.49197521  1.00562732  0.38400722  1
  O  O349  1  0.49657860  0.99894558  0.87205832  1
  O  O350  1  0.99856694  0.48568814  0.37956034  1
  O  O351  1  0.99375716  0.49515009  0.88011530  1
  O  O352  1  0.98844627  0.99164639  0.37589448  1
  O  O353  1  0.99803668  0.99124869  0.87674564  1
  O  O354  1  0.00966748  0.00282945  0.12159335  1
  O  O355  1  0.00747875  0.00588553  0.62252243  1
  O  O356  1  0.00115400  0.50737435  0.11760188  1
  O  O357  1  0.01212772  0.49884014  0.62569055  1
  O  O358  1  0.51047045  0.01531020  0.12532699  1
  O  O359  1  0.50654763  0.00659434  0.61627955  1
  O  O360  1  0.50651947  0.50301644  0.11791933  1
  O  O361  1  0.50794679  0.50743038  0.62981602  1
  O  O362  1  0.23547094  0.37570202  0.25361077  1
  O  O363  1  0.25034993  0.38684572  0.74315188  1
  O  O364  1  0.24296907  0.88062012  0.24424813  1
  O  O365  1  0.24464559  0.87105533  0.73992305  1
  O  O366  1  0.74221539  0.37571160  0.24491371  1
  O  O367  1  0.75657294  0.38839766  0.74296595  1
  O  O368  1  0.73695329  0.87097143  0.24746764  1
  O  O369  1  0.74568792  0.88036391  0.74527896  1
  O  O370  1  0.25494568  0.11854952  0.25424561  1
  O  O371  1  0.25067079  0.12389688  0.75951025  1
  O  O372  1  0.25271205  0.62385746  0.26032734  1
  O  O373  1  0.26100112  0.61545951  0.74105831  1
  O  O374  1  0.76246459  0.13071435  0.25696384  1
  O  O375  1  0.75536557  0.12068532  0.75240672  1
  O  O376  1  0.75606442  0.62506040  0.26151064  1
  O  O377  1  0.75626896  0.61313633  0.75211623  1
  O  O378  1  0.36945167  0.11423572  0.36798175  1
  O  O379  1  0.36350382  0.12702081  0.87427688  1
  O  O380  1  0.36858516  0.61428700  0.37829503  1
  O  O381  1  0.38301591  0.61382798  0.86282020  1
  O  O382  1  0.87049794  0.11646092  0.36810420  1
  O  O383  1  0.86842833  0.12687211  0.86762197  1
  O  O384  1  0.86557928  0.62510148  0.37245758  1
  O  O385  1  0.87345841  0.61829378  0.86937589  1
  O  O386  1  0.11930384  0.37455981  0.13802217  1
  O  O387  1  0.13133232  0.38344817  0.62606156  1
  O  O388  1  0.12996728  0.87961252  0.13040225  1
  O  O389  1  0.13332342  0.87856701  0.62929432  1
  O  O390  1  0.62878715  0.37920709  0.12949757  1
  O  O391  1  0.62993349  0.38677835  0.62046348  1
  O  O392  1  0.62454924  0.89754960  0.11291956  1
  O  O393  1  0.63282573  0.87983018  0.63023589  1
  O  O394  1  0.12143350  0.25647884  0.25688655  1
  O  O395  1  0.11743472  0.25271918  0.75487778  1
  O  O396  1  0.12053174  0.75501374  0.25511422  1
  O  O397  1  0.12068714  0.75307677  0.75540795  1
  O  O398  1  0.62044727  0.25449248  0.25599286  1
  O  O399  1  0.61487833  0.24621855  0.75994778  1
  O  O400  1  0.62530663  0.74244139  0.27062449  1
  O  O401  1  0.61855286  0.75456623  0.75578715  1
  O  O402  1  0.38322114  0.24114247  0.25095823  1
  O  O403  1  0.38601908  0.24991983  0.74326824  1
  O  O404  1  0.37204673  0.75265785  0.23673344  1
  O  O405  1  0.38480740  0.73967833  0.75836692  1
  O  O406  1  0.87590534  0.24121579  0.24080921  1
  O  O407  1  0.88001469  0.24454103  0.74299726  1
  O  O408  1  0.88130525  0.74425250  0.24620350  1
  O  O409  1  0.87931219  0.74526573  0.74663026  1
  O  O410  1  0.37497443  0.49238015  0.49148734  1
  O  O411  1  0.38057029  0.50527232  0.98791851  1
  O  O412  1  0.38432711  0.99922789  0.49023469  1
  O  O413  1  0.36665756  0.98483249  1.00186320  1
  O  O414  1  0.87581279  0.48922877  0.49869317  1
  O  O415  1  0.87983311  0.49604612  0.99526412  1
  O  O416  1  0.87780297  0.99219154  0.48996742  1
  O  O417  1  0.87597403  0.98979890  0.99866502  1
  O  O418  1  0.12630416  0.00865460  0.00541384  1
  O  O419  1  0.12318449  0.00534897  0.50419734  1
  O  O420  1  0.11811483  0.51145885  -0.00121603  1
  O  O421  1  0.12681706  0.50380757  0.51092288  1
  O  O422  1  0.62931570  0.01529693  0.00437204  1
  O  O423  1  0.61866366  0.00388082  0.50309890  1
  O  O424  1  0.61983809  0.50676589  0.00552859  1
  O  O425  1  0.62250245  0.50558255  0.51346173  1
  O  O426  1  0.37481438  0.37305267  0.12209954  1
  O  O427  1  0.37039775  0.36963873  0.61892479  1
  O  O428  1  0.36959151  0.86822048  0.11389567  1
  O  O429  1  0.36175591  0.87869671  0.62157814  1
  O  O430  1  0.87061361  0.36797921  0.12204956  1
  O  O431  1  0.86830349  0.36736119  0.61909396  1
  O  O432  1  0.87626001  0.87007280  0.11662216  1
  O  O433  1  0.87052559  0.86927861  0.62134073  1
  O  O434  1  0.12958325  0.12775532  0.37816176  1
  O  O435  1  0.13146948  0.12973397  0.88029324  1
  O  O436  1  0.13027101  0.62885701  0.38108611  1
  O  O437  1  0.11739161  0.63296551  0.88924824  1
  O  O438  1  0.62967771  0.12919596  0.37925143  1
  O  O439  1  0.62859466  0.13492734  0.87865450  1
  O  O440  1  0.63231940  0.62989667  0.38389910  1
  O  O441  1  0.62698884  0.63345300  0.88330721  1
