# generated using pymatgen
data_V93Zn93O256
_symmetry_space_group_name_H-M   'P 1'
_cell_length_a   17.04874806
_cell_length_b   17.04822209
_cell_length_c   17.05032577
_cell_angle_alpha   89.99071623
_cell_angle_beta   89.92170568
_cell_angle_gamma   90.02164605
_symmetry_Int_Tables_number   1
_chemical_formula_structural   V93Zn93O256
_chemical_formula_sum   'V93 Zn93 O256'
_cell_volume   4955.68651795
_cell_formula_units_Z   1
loop_
 _symmetry_equiv_pos_site_id
 _symmetry_equiv_pos_as_xyz
  1  'x, y, z'
loop_
 _atom_site_type_symbol
 _atom_site_label
 _atom_site_symmetry_multiplicity
 _atom_site_fract_x
 _atom_site_fract_y
 _atom_site_fract_z
 _atom_site_occupancy
  V  V0  1  0.12550318  0.74839153  0.37405874  1
  V  V1  1  0.00281735  0.00009702  0.49880898  1
  V  V2  1  0.37366581  0.49992569  0.87862781  1
  V  V3  1  0.49761444  0.49985222  0.00166714  1
  V  V4  1  0.37542974  0.25624043  0.62019063  1
  V  V5  1  0.00111027  0.49815035  0.50027048  1
  V  V6  1  0.87686316  0.24811913  0.12434628  1
  V  V7  1  0.49965378  0.24975282  0.25034030  1
  V  V8  1  0.25068173  -0.00327149  0.24432007  1
  V  V9  1  0.75076809  0.37367408  0.12510711  1
  V  V10  1  0.62598565  0.87386260  0.25090608  1
  V  V11  1  0.12486435  0.62408038  0.50122673  1
  V  V12  1  0.25149545  0.24708989  -0.00175908  1
  V  V13  1  -0.00021467  0.75039250  0.74941890  1
  V  V14  1  0.36993383  0.12743732  0.75351862  1
  V  V15  1  0.50176394  0.12520219  0.12454335  1
  V  V16  1  0.13074930  0.24682879  0.87317219  1
  V  V17  1  0.00526704  0.12007465  0.12326076  1
  V  V18  1  0.74997118  0.37547977  0.62615708  1
  V  V19  1  0.25154249  0.37573514  0.62380521  1
  V  V20  1  0.75098215  0.12444012  0.37450839  1
  V  V21  1  0.00027465  0.37606330  0.87538886  1
  V  V22  1  0.37378349  0.62694145  0.75221934  1
  V  V23  1  0.87727161  0.74289858  0.12458862  1
  V  V24  1  0.25126432  0.25301260  0.49914603  1
  V  V25  1  0.14488983  -0.02479095  0.10116290  1
  V  V26  1  0.36860303  0.76262749  0.11817485  1
  V  V27  1  0.62303534  0.87501596  0.75335766  1
  V  V28  1  0.12864867  0.62683227  0.00163972  1
  V  V29  1  0.12469381  0.12883870  -0.00241612  1
  V  V30  1  0.75104505  0.87445265  0.12361729  1
  V  V31  1  0.75078164  0.49956770  0.25112934  1
  V  V32  1  0.62360827  0.62147068  0.50146805  1
  V  V33  1  -0.00240910  0.87676738  0.87303788  1
  V  V34  1  0.37424382  0.75037387  0.62596863  1
  V  V35  1  0.74783016  0.62673506  0.87639102  1
  V  V36  1  0.75530764  0.12661529  0.87052441  1
  V  V37  1  0.37558839  0.49547507  0.38193036  1
  V  V38  1  0.62462289  0.50063962  0.12627458  1
  V  V39  1  0.87497037  0.62570959  0.74896857  1
  V  V40  1  0.50049410  0.12512396  0.62455858  1
  V  V41  1  0.12582480  0.37364498  0.24842010  1
  V  V42  1  0.12644496  0.24733558  0.37418513  1
  V  V43  1  0.25016165  0.75039138  0.49939991  1
  V  V44  1  0.75132449  0.87223984  0.62374491  1
  V  V45  1  0.62594608  0.74806660  0.37550883  1
  V  V46  1  0.24869815  0.50284807  0.75338413  1
  V  V47  1  0.00062842  0.50429231  0.00415074  1
  V  V48  1  0.49707353  0.37419038  0.38314846  1
  V  V49  1  0.12438343  0.37615878  0.75011264  1
  V  V50  1  0.37465650  -0.00057988  0.37432013  1
  V  V51  1  -0.00150002  0.00153458  -0.00283595  1
  V  V52  1  0.00267347  0.24709563  0.24889425  1
  V  V53  1  0.00000723  0.74203599  0.24586083  1
  V  V54  1  0.87799667  0.12182795  0.24837976  1
  V  V55  1  0.12626833  0.75239262  0.87720899  1
  V  V56  1  0.37509738  0.87480322  0.49963131  1
  V  V57  1  0.62434145  0.62604361  0.00097186  1
  V  V58  1  0.87466833  0.87522673  -0.00129778  1
  V  V59  1  0.49680057  -0.00459004  -0.00108897  1
  V  V60  1  0.62405168  0.00030935  0.62409553  1
  V  V61  1  0.49955415  0.00031836  0.50102853  1
  V  V62  1  -0.00518910  0.12441971  0.62664527  1
  V  V63  1  0.62496459  0.37472241  0.25126258  1
  V  V64  1  0.49960650  0.62453286  0.62562066  1
  V  V65  1  0.24969641  0.87649255  0.62456563  1
  V  V66  1  0.62482566  -0.00019162  0.12403847  1
  V  V67  1  0.74863104  0.24934712  -0.00051496  1
  V  V68  1  0.49901758  0.75222829  0.75175991  1
  V  V69  1  0.62687824  0.24788195  0.37543281  1
  V  V70  1  0.12438299  0.87657116  0.74754279  1
  V  V71  1  0.37521162  0.62497608  0.24910814  1
  V  V72  1  0.12431909  0.50048630  0.62604846  1
  V  V73  1  0.12893043  0.87379448  0.24634804  1
  V  V74  1  0.75571278  0.00503881  0.74942648  1
  V  V75  1  0.87474249  0.87272847  0.49850737  1
  V  V76  1  0.37560756  -0.00165160  0.87532711  1
  V  V77  1  0.87450263  0.49931252  0.37517357  1
  V  V78  1  0.49816322  0.62537663  0.12663008  1
  V  V79  1  0.37474740  0.25115584  0.12482628  1
  V  V80  1  0.50131777  0.87452025  0.37579819  1
  V  V81  1  0.12182230  0.50523301  0.12696008  1
  V  V82  1  0.50167618  0.25264779  0.75285833  1
  V  V83  1  0.00048155  0.37301645  0.37510226  1
  V  V84  1  0.87709286  -0.00201006  0.37220805  1
  V  V85  1  0.75223249  -0.00151908  0.24816041  1
  V  V86  1  0.87627098  0.50159877  0.87657717  1
  V  V87  1  -0.00032146  0.87349229  0.37416620  1
  V  V88  1  0.24904142  0.49866433  0.25084665  1
  V  V89  1  0.24916771  0.00550855  0.75078035  1
  V  V90  1  0.37449947  0.12429395  0.25055953  1
  V  V91  1  0.25142434  0.62372779  0.37586830  1
  V  V92  1  -0.00712191  0.24633558  0.74917995  1
  Zn  Zn93  1  0.62394440  0.37934587  0.75374120  1
  Zn  Zn94  1  0.49773034  0.75067682  0.24859512  1
  Zn  Zn95  1  0.87612376  0.37613427  0.00094420  1
  Zn  Zn96  1  0.87613108  0.00353926  0.87066842  1
  Zn  Zn97  1  0.49604754  0.87288069  0.88096381  1
  Zn  Zn98  1  0.75018066  0.62278332  0.37576779  1
  Zn  Zn99  1  0.87718151  0.74738651  0.62129111  1
  Zn  Zn100  1  0.25290445  0.63684345  0.88000534  1
  Zn  Zn101  1  0.87292617  0.24627172  0.62377242  1
  Zn  Zn102  1  0.62152775  0.75077906  0.87851421  1
  Zn  Zn103  1  0.24929585  0.12368664  0.37670592  1
  Zn  Zn104  1  0.75256649  0.74562034  0.49974852  1
  Zn  Zn105  1  0.62515155  0.12392501  -0.00331064  1
  Zn  Zn106  1  0.12612495  0.00272384  0.62178586  1
  Zn  Zn107  1  0.87618134  0.62167388  0.24657718  1
  Zn  Zn108  1  0.25108801  0.37525195  0.12448668  1
  Zn  Zn109  1  0.49537632  0.49468617  0.50580791  1
  Zn  Zn110  1  0.62478116  0.25153616  0.87498212  1
  Zn  Zn111  1  0.74580211  0.49966419  0.75137670  1
  Zn  Zn112  1  0.75247343  0.24694603  0.50089242  1
  Zn  Zn113  1  0.87555111  0.37167308  0.50207358  1
  Zn  Zn114  1  -0.00113973  0.62474105  0.62474654  1
  Zn  Zn115  1  0.50247520  0.37397597  0.87843382  1
  Zn  Zn116  1  0.37515501  0.37413514  0.00166942  1
  Zn  Zn117  1  0.24079586  0.78844348  0.01162129  1
  Zn  Zn118  1  0.62132018  0.49801384  0.62844922  1
  Zn  Zn119  1  0.74793737  0.75162727  0.00101641  1
  Zn  Zn120  1  0.12546222  0.12347748  0.49877234  1
  Zn  Zn121  1  0.62729586  0.12386279  0.49895455  1
  Zn  Zn122  1  0.18917484  0.18244812  0.18378508  1
  Zn  Zn123  1  0.18256615  0.18754078  0.68340943  1
  Zn  Zn124  1  0.19041872  0.68689149  0.18657882  1
  Zn  Zn125  1  0.18709723  0.68786302  0.68872024  1
  Zn  Zn126  1  0.68784445  0.18618560  0.18840446  1
  Zn  Zn127  1  0.68670580  0.18833497  0.68650323  1
  Zn  Zn128  1  0.69008869  0.68638023  0.18932948  1
  Zn  Zn129  1  0.68631577  0.68790250  0.68872061  1
  Zn  Zn130  1  0.31265428  0.31304866  0.31245104  1
  Zn  Zn131  1  0.31315555  0.31635264  0.81169514  1
  Zn  Zn132  1  0.31375876  0.81151790  0.30941389  1
  Zn  Zn133  1  0.30988564  0.81589926  0.81479914  1
  Zn  Zn134  1  0.81395268  0.31135204  0.31209928  1
  Zn  Zn135  1  0.81248033  0.31561416  0.81351461  1
  Zn  Zn136  1  0.81254532  0.81007929  0.31055359  1
  Zn  Zn137  1  0.81177795  0.81177070  0.81217435  1
  Zn  Zn138  1  0.18723561  0.43434377  0.43808959  1
  Zn  Zn139  1  0.18883857  0.43513559  0.93898818  1
  Zn  Zn140  1  0.18773231  0.93704930  0.43391123  1
  Zn  Zn141  1  0.18774856  0.94217089  0.92762031  1
  Zn  Zn142  1  0.68647887  0.43549803  0.44080892  1
  Zn  Zn143  1  0.68524158  0.43667736  0.93695784  1
  Zn  Zn144  1  0.68827042  0.93804904  0.43776353  1
  Zn  Zn145  1  0.68762171  0.94047144  0.93764219  1
  Zn  Zn146  1  0.31473897  0.06600813  0.05973009  1
  Zn  Zn147  1  0.31336464  0.06657269  0.56396531  1
  Zn  Zn148  1  0.31026065  0.56537047  0.06517355  1
  Zn  Zn149  1  0.31129507  0.56352607  0.56467573  1
  Zn  Zn150  1  0.81343201  0.06307268  0.05980480  1
  Zn  Zn151  1  0.81460163  0.06040190  0.56017916  1
  Zn  Zn152  1  0.81050152  0.56217519  0.06151343  1
  Zn  Zn153  1  0.81077591  0.55852892  0.56171842  1
  Zn  Zn154  1  0.43668540  0.43633933  0.19053209  1
  Zn  Zn155  1  0.43667289  0.43857262  0.69080599  1
  Zn  Zn156  1  0.44030482  0.93799028  0.18851409  1
  Zn  Zn157  1  0.43637458  0.93831293  0.68785362  1
  Zn  Zn158  1  0.93789265  0.43510818  0.18791012  1
  Zn  Zn159  1  0.93589606  0.43750474  0.68839967  1
  Zn  Zn160  1  0.94354450  0.93361657  0.18261649  1
  Zn  Zn161  1  0.93760344  0.93816662  0.68415073  1
  Zn  Zn162  1  0.06748440  0.06004970  0.31007580  1
  Zn  Zn163  1  0.06206861  0.06456837  0.81080317  1
  Zn  Zn164  1  0.06256773  0.56141289  0.31466331  1
  Zn  Zn165  1  0.06286730  0.56603131  0.81636034  1
  Zn  Zn166  1  0.56329521  0.06162561  0.31191981  1
  Zn  Zn167  1  0.56501793  0.06608163  0.81343050  1
  Zn  Zn168  1  0.56059741  0.56138329  0.31311041  1
  Zn  Zn169  1  0.56158375  0.56173773  0.81257911  1
  Zn  Zn170  1  0.43750020  0.18595965  0.43752213  1
  Zn  Zn171  1  0.43713173  0.18285559  0.93781535  1
  Zn  Zn172  1  0.43903547  0.68590374  0.43741899  1
  Zn  Zn173  1  0.43578239  0.69018615  0.94103108  1
  Zn  Zn174  1  0.93681404  0.18668866  0.44045413  1
  Zn  Zn175  1  0.93660640  0.18881438  0.93568553  1
  Zn  Zn176  1  0.93845452  0.68559328  0.43630666  1
  Zn  Zn177  1  0.93923737  0.68817578  0.93818221  1
  Zn  Zn178  1  0.06354841  0.31552715  0.06288826  1
  Zn  Zn179  1  0.06385841  0.31097458  0.56227116  1
  Zn  Zn180  1  0.05696822  0.81018196  0.05991375  1
  Zn  Zn181  1  0.06201342  0.81209438  0.56360416  1
  Zn  Zn182  1  0.56239927  0.31455273  0.06219500  1
  Zn  Zn183  1  0.56828285  0.30870039  0.56334442  1
  Zn  Zn184  1  0.56007825  0.81086036  0.06446948  1
  Zn  Zn185  1  0.56318870  0.81075106  0.56297883  1
  O  O186  1  0.12114250  0.11790475  0.11397517  1
  O  O187  1  0.11244639  0.12239211  0.62005289  1
  O  O188  1  0.12807596  0.61317617  0.11891480  1
  O  O189  1  0.12492705  0.61819079  0.61896840  1
  O  O190  1  0.61894125  0.11669834  0.12642546  1
  O  O191  1  0.61800109  0.11740121  0.62351391  1
  O  O192  1  0.61970989  0.61977982  0.12157170  1
  O  O193  1  0.61866576  0.62703076  0.61640917  1
  O  O194  1  0.38535690  0.38396860  0.36878520  1
  O  O195  1  0.37680437  0.38907449  0.87689530  1
  O  O196  1  0.38071755  0.87876758  0.38017697  1
  O  O197  1  0.37914391  0.89328199  0.86592543  1
  O  O198  1  0.88206927  0.38450137  0.37328626  1
  O  O199  1  0.88207585  0.38404471  0.87798742  1
  O  O200  1  0.87969898  0.87899077  0.37827678  1
  O  O201  1  0.88037420  0.87537591  0.88078088  1
  O  O202  1  0.25656033  0.00039656  0.36365955  1
  O  O203  1  0.25932757  -0.00141540  0.85852656  1
  O  O204  1  0.25638541  0.50315670  0.37140844  1
  O  O205  1  0.25819130  0.50132541  0.87098642  1
  O  O206  1  0.75709139  0.00261594  0.36700253  1
  O  O207  1  0.74992699  0.00857263  0.86610276  1
  O  O208  1  0.75943068  0.49591777  0.37012696  1
  O  O209  1  0.75676936  0.51150131  0.87694171  1
  O  O210  1  0.23962453  0.49847337  0.13262195  1
  O  O211  1  0.24526369  0.49575565  0.63211361  1
  O  O212  1  0.25048698  1.00631822  0.13656189  1
  O  O213  1  0.25145906  0.99479551  0.63393221  1
  O  O214  1  0.74477598  0.49373970  0.13009062  1
  O  O215  1  0.74763123  0.48658870  0.62737790  1
  O  O216  1  0.74581468  0.99466624  0.12937019  1
  O  O217  1  0.74528459  0.99202558  0.63078596  1
  O  O218  1  0.00664696  0.36679681  0.25466933  1
  O  O219  1  0.00647375  0.36820335  0.75501329  1
  O  O220  1  0.00783893  0.86554312  0.25662863  1
  O  O221  1  0.00412840  0.87101064  0.75308787  1
  O  O222  1  0.50622903  0.36904297  0.25943316  1
  O  O223  1  0.49803816  0.36281490  0.75249893  1
  O  O224  1  0.50878103  0.87452592  0.25842739  1
  O  O225  1  0.51047447  0.87168158  0.74764703  1
  O  O226  1  0.49432581  0.12967235  0.24518265  1
  O  O227  1  0.49096458  0.13259449  0.74382331  1
  O  O228  1  0.49337522  0.62586147  0.24416351  1
  O  O229  1  0.49304648  0.63258699  0.74535786  1
  O  O230  1  0.99763106  0.12675978  0.24256305  1
  O  O231  1  1.00672517  0.13580671  0.74044847  1
  O  O232  1  1.00025073  0.63860019  0.25509227  1
  O  O233  1  0.99017284  0.63112660  0.75192824  1
  O  O234  1  0.36688122  0.24782075  0.00436993  1
  O  O235  1  0.36749771  0.24427771  0.51216954  1
  O  O236  1  0.37031538  0.75107255  0.01425176  1
  O  O237  1  0.36951388  0.75462314  0.50487937  1
  O  O238  1  0.86550208  0.25137396  0.00613160  1
  O  O239  1  0.87103956  0.25476316  0.50311543  1
  O  O240  1  0.87608657  0.75623059  0.00866969  1
  O  O241  1  0.87237843  0.75600164  0.50007434  1
  O  O242  1  0.13443562  0.24880066  0.49267254  1
  O  O243  1  0.13071000  0.24815358  0.99242031  1
  O  O244  1  0.13050228  0.74539777  0.49362537  1
  O  O245  1  0.12301945  0.74116721  0.99772291  1
  O  O246  1  0.62934880  0.24396535  0.48991009  1
  O  O247  1  0.63875534  0.24821032  1.00247950  1
  O  O248  1  0.62567427  0.74165189  0.49147154  1
  O  O249  1  0.62597558  0.74224102  0.99904802  1
  O  O250  1  0.49569485  0.24532287  0.13098870  1
  O  O251  1  0.49196294  0.24672433  0.63073558  1
  O  O252  1  0.48787665  0.74342584  0.12677093  1
  O  O253  1  0.49271244  0.74563666  0.63122265  1
  O  O254  1  0.99765531  0.24291095  0.12923620  1
  O  O255  1  1.00079737  0.24354381  0.63337241  1
  O  O256  1  0.98866691  0.75572051  0.13559044  1
  O  O257  1  0.99789437  0.74606161  0.63331578  1
  O  O258  1  0.00573891  0.25308761  0.36781692  1
  O  O259  1  0.00803776  0.25556683  0.86872320  1
  O  O260  1  0.00603491  0.75428210  0.36675734  1
  O  O261  1  0.00604159  0.75703732  0.86919715  1
  O  O262  1  0.50384155  0.25587456  0.36990863  1
  O  O263  1  0.49808512  0.24890937  0.86444816  1
  O  O264  1  0.51006759  0.75577372  0.37438105  1
  O  O265  1  0.49977164  0.75480535  0.86829060  1
  O  O266  1  0.24832406  0.13806026  0.49961485  1
  O  O267  1  0.24211727  0.13925930  1.00276931  1
  O  O268  1  0.24478663  0.63137714  0.49534726  1
  O  O269  1  0.23429659  0.62211370  0.99861971  1
  O  O270  1  0.74887060  0.12301144  0.48953915  1
  O  O271  1  0.74903195  0.13371801  0.99285550  1
  O  O272  1  0.73809396  0.62553886  0.49823789  1
  O  O273  1  0.74343350  0.62645337  0.99181138  1
  O  O274  1  0.25177794  0.36121471  0.00321358  1
  O  O275  1  0.24579527  0.36208468  0.50763724  1
  O  O276  1  0.20817106  0.89746213  0.02676011  1
  O  O277  1  0.25562065  0.86943986  0.50334544  1
  O  O278  1  0.75199687  0.36625743  0.00658742  1
  O  O279  1  0.75042973  0.37281289  0.51401495  1
  O  O280  1  0.75570004  0.87416991  0.00548614  1
  O  O281  1  0.75495427  0.87543258  0.50969546  1
  O  O282  1  0.12762555  0.49580576  0.24418589  1
  O  O283  1  0.12865156  0.49642339  0.74684308  1
  O  O284  1  0.13425596  0.98975328  0.24216439  1
  O  O285  1  0.13471457  0.99613099  0.74942747  1
  O  O286  1  0.63001622  0.49407488  0.24571743  1
  O  O287  1  0.62755490  0.49840275  0.74605262  1
  O  O288  1  0.63176018  0.99320142  0.24473456  1
  O  O289  1  0.63195386  0.99205314  0.74393180  1
  O  O290  1  0.36874202  0.00319674  0.25408817  1
  O  O291  1  0.36918496  0.00956347  0.75279974  1
  O  O292  1  0.36892834  0.50515715  0.25965627  1
  O  O293  1  0.36926414  0.50724043  0.75946779  1
  O  O294  1  0.87307488  0.00197740  0.25207014  1
  O  O295  1  0.85899453  -0.00759287  0.75014313  1
  O  O296  1  0.87149093  0.49984186  0.25759715  1
  O  O297  1  0.87525438  0.51155845  0.75842460  1
  O  O298  1  0.11962964  0.36860539  0.36768203  1
  O  O299  1  0.11952200  0.36740753  0.86987530  1
  O  O300  1  0.12013562  0.86789903  0.36500877  1
  O  O301  1  0.11657097  0.87173601  0.86568313  1
  O  O302  1  0.61777467  0.36915017  0.36951909  1
  O  O303  1  0.62088294  0.36934917  0.87182936  1
  O  O304  1  0.62151441  0.86690298  0.37181424  1
  O  O305  1  0.62438464  0.87509022  0.86260805  1
  O  O306  1  0.38241785  0.13124316  0.13143208  1
  O  O307  1  0.38071779  0.13519827  0.63430408  1
  O  O308  1  0.37985292  0.62977344  0.13146331  1
  O  O309  1  0.37848149  0.63166024  0.63154108  1
  O  O310  1  0.88381744  0.12763563  0.12964738  1
  O  O311  1  0.88971334  0.12488895  0.62094092  1
  O  O312  1  0.86925526  0.63875467  0.12556926  1
  O  O313  1  0.87412018  0.62451834  0.63701497  1
  O  O314  1  0.25592999  0.25066097  0.11646914  1
  O  O315  1  0.25636369  0.25508201  0.61928133  1
  O  O316  1  0.26333570  0.74834547  0.12392971  1
  O  O317  1  0.25496621  0.75601622  0.61925520  1
  O  O318  1  0.75621468  0.25259154  0.11893312  1
  O  O319  1  0.75229541  0.26063949  0.62602772  1
  O  O320  1  0.75915326  0.75722384  0.12561076  1
  O  O321  1  0.75113900  0.76299112  0.62449921  1
  O  O322  1  0.24676635  0.25001164  0.38397067  1
  O  O323  1  0.23887710  0.25727318  0.88154351  1
  O  O324  1  0.24555246  0.74400109  0.37977481  1
  O  O325  1  0.24237630  0.75946822  0.88895880  1
  O  O326  1  0.74402625  0.24202988  0.37156293  1
  O  O327  1  0.75162921  0.24445613  0.88308952  1
  O  O328  1  0.73747822  0.74779622  0.37599874  1
  O  O329  1  0.74771906  0.73766477  0.87725685  1
  O  O330  1  0.00415640  0.12220012  0.00437897  1
  O  O331  1  0.00211499  0.11714507  0.50672676  1
  O  O332  1  0.01236077  0.61298423  -0.00631860  1
  O  O333  1  0.00781654  0.61718626  0.50056373  1
  O  O334  1  0.50371275  0.11626058  0.00685339  1
  O  O335  1  0.50025367  0.11732595  0.50697309  1
  O  O336  1  0.50467947  0.61935019  0.00712020  1
  O  O337  1  0.50781344  0.62479752  0.50741955  1
  O  O338  1  0.50642147  0.37426160  0.48641425  1
  O  O339  1  0.49600962  0.38420420  0.99947832  1
  O  O340  1  0.49413921  0.87999433  0.49629621  1
  O  O341  1  0.50352044  0.89106357  1.00048763  1
  O  O342  1  1.00144397  0.38108221  0.49246461  1
  O  O343  1  1.00039715  0.38637422  0.99418560  1
  O  O344  1  0.99533152  0.87873075  0.49340246  1
  O  O345  1  0.99516605  0.88159134  0.99211237  1
  O  O346  1  0.49153634  0.49080223  0.37592708  1
  O  O347  1  0.48795237  0.50284322  0.88260713  1
  O  O348  1  0.49481459  0.99387923  0.38037703  1
  O  O349  1  0.49433403  1.00124306  0.88185719  1
  O  O350  1  0.99383537  0.49318540  0.37911237  1
  O  O351  1  0.99724661  0.49558255  0.88408480  1
  O  O352  1  0.99602843  0.99293970  0.37679869  1
  O  O353  1  0.99687857  0.99553572  0.87794694  1
  O  O354  1  0.01173947  0.00090523  0.11407122  1
  O  O355  1  0.00192601  0.00676551  0.61853935  1
  O  O356  1  0.00965262  0.49445396  0.11623477  1
  O  O357  1  0.00694116  0.50068376  0.61905646  1
  O  O358  1  0.50357929  0.00532748  0.11816855  1
  O  O359  1  0.50362413  0.00485828  0.62032587  1
  O  O360  1  0.50502771  0.50512436  0.12225445  1
  O  O361  1  0.49804825  0.50796357  0.62317352  1
  O  O362  1  0.24243079  0.38136163  0.24999855  1
  O  O363  1  0.24352588  0.38234229  0.74433929  1
  O  O364  1  0.23999363  0.88344673  0.25512182  1
  O  O365  1  0.24497217  0.88440545  0.74308229  1
  O  O366  1  0.74446752  0.37904457  0.24435803  1
  O  O367  1  0.74876580  0.37624747  0.73904476  1
  O  O368  1  0.74562871  0.88022654  0.24414119  1
  O  O369  1  0.74169939  0.88101398  0.74276099  1
  O  O370  1  0.25614429  0.11448336  0.25212513  1
  O  O371  1  0.25880509  0.11732215  0.73986983  1
  O  O372  1  0.25416149  0.61785496  0.25776715  1
  O  O373  1  0.25593834  0.62121007  0.75468048  1
  O  O374  1  0.75842192  0.11735622  0.25326536  1
  O  O375  1  0.74359622  0.11484578  0.75633997  1
  O  O376  1  0.75252009  0.61444485  0.25474379  1
  O  O377  1  0.75814663  0.62552518  0.75881644  1
  O  O378  1  0.37465761  0.11686359  0.36779260  1
  O  O379  1  0.37817963  0.11648522  0.85971312  1
  O  O380  1  0.37058987  0.61762674  0.36964299  1
  O  O381  1  0.37211006  0.61795926  0.87166399  1
  O  O382  1  0.87225667  0.11703348  0.36666408  1
  O  O383  1  0.86080729  0.12340587  0.87769162  1
  O  O384  1  0.87418183  0.61005875  0.37345911  1
  O  O385  1  0.86797618  0.62226181  0.86927114  1
  O  O386  1  0.12680349  0.38609112  0.13120830  1
  O  O387  1  0.13110014  0.38132932  0.63114416  1
  O  O388  1  0.11374512  0.87186701  0.14159666  1
  O  O389  1  0.13217347  0.87732090  0.63049506  1
  O  O390  1  0.63052636  0.38096360  0.13188846  1
  O  O391  1  0.63704170  0.37514399  0.62772775  1
  O  O392  1  0.63034162  0.87968373  0.13113495  1
  O  O393  1  0.63251560  0.87936985  0.63226713  1
  O  O394  1  0.12152761  0.25270526  0.25293965  1
  O  O395  1  0.11984974  0.25628916  0.75716006  1
  O  O396  1  0.12042024  0.75446523  0.25403375  1
  O  O397  1  0.12060709  0.75657298  0.75588768  1
  O  O398  1  0.61914917  0.25501190  0.25490849  1
  O  O399  1  0.60959790  0.24949779  0.74895734  1
  O  O400  1  0.62327612  0.75472549  0.25941247  1
  O  O401  1  0.61846419  0.76001445  0.75109990  1
  O  O402  1  0.38022629  0.24406397  0.24563571  1
  O  O403  1  0.37881880  0.24402634  0.74284805  1
  O  O404  1  0.37563225  0.74228593  0.24108512  1
  O  O405  1  0.37765562  0.74723379  0.74571994  1
  O  O406  1  0.88285237  0.24189390  0.24416082  1
  O  O407  1  0.89083625  0.25536912  0.75010724  1
  O  O408  1  0.88359219  0.74839719  0.24311628  1
  O  O409  1  0.88040160  0.74059508  0.74948774  1
  O  O410  1  0.37449629  0.50563225  0.48575897  1
  O  O411  1  0.37788509  0.50191854  0.99332846  1
  O  O412  1  0.37896595  0.99420376  0.49530447  1
  O  O413  1  0.38378347  1.01136999  0.98664064  1
  O  O414  1  0.88180334  0.49660061  0.49046291  1
  O  O415  1  0.88579497  0.50147670  0.99664332  1
  O  O416  1  0.88240749  0.99204380  0.49119170  1
  O  O417  1  0.88161786  0.99279206  0.99801264  1
  O  O418  1  0.11622972  0.01320682  -0.00649416  1
  O  O419  1  0.11807525  -0.00020804  0.49954053  1
  O  O420  1  0.11941879  0.50512724  0.00716967  1
  O  O421  1  0.12181594  0.50463125  0.50524894  1
  O  O422  1  0.61647185  0.00241774  0.00648806  1
  O  O423  1  0.61707074  -0.00071042  0.50616207  1
  O  O424  1  0.61878137  0.50594340  0.00756316  1
  O  O425  1  0.61983570  0.51143434  0.50127246  1
  O  O426  1  0.37264010  0.36659934  0.12482606  1
  O  O427  1  0.36825276  0.36310107  0.63247688  1
  O  O428  1  0.37891862  0.86082315  0.13160129  1
  O  O429  1  0.36976227  0.86959585  0.61931574  1
  O  O430  1  0.86903979  0.36639472  0.12440831  1
  O  O431  1  0.86216220  0.37431126  0.62523981  1
  O  O432  1  0.87024668  0.86707871  0.11901299  1
  O  O433  1  0.86532861  0.87440993  0.61801608  1
  O  O434  1  0.12843840  0.13240271  0.37557401  1
  O  O435  1  0.11881056  0.14002030  0.88065825  1
  O  O436  1  0.13201465  0.62863654  0.38123205  1
  O  O437  1  0.12844078  0.63438452  0.88316243  1
  O  O438  1  0.63258015  0.12979351  0.37272020  1
  O  O439  1  0.63837352  0.13040019  0.87687658  1
  O  O440  1  0.62256807  0.63212349  0.38343224  1
  O  O441  1  0.63331886  0.62521813  0.88124220  1
