# generated using pymatgen
data_V93Zn93O256
_symmetry_space_group_name_H-M   'P 1'
_cell_length_a   17.04910525
_cell_length_b   17.04859313
_cell_length_c   17.04781521
_cell_angle_alpha   89.98765663
_cell_angle_beta   90.01098765
_cell_angle_gamma   89.97447440
_symmetry_Int_Tables_number   1
_chemical_formula_structural   V93Zn93O256
_chemical_formula_sum   'V93 Zn93 O256'
_cell_volume   4955.17282276
_cell_formula_units_Z   1
loop_
 _symmetry_equiv_pos_site_id
 _symmetry_equiv_pos_as_xyz
  1  'x, y, z'
loop_
 _atom_site_type_symbol
 _atom_site_label
 _atom_site_symmetry_multiplicity
 _atom_site_fract_x
 _atom_site_fract_y
 _atom_site_fract_z
 _atom_site_occupancy
  V  V0  1  0.74888033  0.87574373  0.12545332  1
  V  V1  1  0.25213953  0.74990878  0.50227326  1
  V  V2  1  0.50080071  0.62505131  0.62654540  1
  V  V3  1  0.12469492  0.49933256  0.12535538  1
  V  V4  1  0.62481216  0.74958928  0.87486289  1
  V  V5  1  0.62558410  0.12637912  0.49801955  1
  V  V6  1  0.75138869  0.74901230  0.50025030  1
  V  V7  1  0.12534001  0.37515228  0.75018908  1
  V  V8  1  0.49952427  0.37386522  0.87424811  1
  V  V9  1  0.62574628  0.87427812  0.75173876  1
  V  V10  1  0.37506471  0.49911873  0.87516204  1
  V  V11  1  0.62553842  -0.00014941  0.62470888  1
  V  V12  1  0.87219902  0.25531561  0.12276495  1
  V  V13  1  0.62525558  0.74918758  0.37496168  1
  V  V14  1  0.12498548  0.75015787  0.87609899  1
  V  V15  1  0.49984748  0.37277406  0.36900353  1
  V  V16  1  0.74983036  0.12510969  0.87468928  1
  V  V17  1  0.00093645  0.87931927  0.87956271  1
  V  V18  1  0.25044222  0.12310689  0.87412206  1
  V  V19  1  0.37459455  0.74964336  0.12579781  1
  V  V20  1  0.24944793  0.87588526  0.12695942  1
  V  V21  1  0.75075195  -0.00001939  0.75046860  1
  V  V22  1  0.62719057  0.49985247  0.62366616  1
  V  V23  1  0.00044926  0.50126246  0.50075835  1
  V  V24  1  0.25097374  0.62352611  0.37573802  1
  V  V25  1  0.62578106  0.62061707  0.00383720  1
  V  V26  1  0.62444469  -0.00021938  0.12646778  1
  V  V27  1  0.49747907  0.12831924  0.13028358  1
  V  V28  1  0.74954557  0.25048567  -0.00013484  1
  V  V29  1  0.12387508  0.37451661  0.24892447  1
  V  V30  1  0.12835484  0.12566719  0.49171547  1
  V  V31  1  0.37605230  0.25028703  0.12959006  1
  V  V32  1  -0.00106887  0.25178226  0.24917350  1
  V  V33  1  -0.00006284  0.00061277  0.50015102  1
  V  V34  1  0.87600852  0.37601351  0.49762732  1
  V  V35  1  0.12518924  0.24913685  0.87789224  1
  V  V36  1  0.75534445  0.62064935  0.87715606  1
  V  V37  1  0.37362522  0.37418090  0.00064663  1
  V  V38  1  0.12602589  0.75031264  0.37494525  1
  V  V39  1  0.87639550  0.87611071  0.50129095  1
  V  V40  1  0.12397034  0.87519662  0.25059757  1
  V  V41  1  0.25078912  0.37413581  0.62426316  1
  V  V42  1  0.87386200  0.00107880  0.37492088  1
  V  V43  1  0.87531905  0.12484282  0.74965855  1
  V  V44  1  0.24996693  0.62460180  0.87634541  1
  V  V45  1  0.50079949  0.00041552  0.49910566  1
  V  V46  1  0.24916039  0.37474535  0.12494576  1
  V  V47  1  0.37523786  0.62442389  0.25069579  1
  V  V48  1  0.25075189  0.49947000  0.75018185  1
  V  V49  1  0.50311199  0.62053738  0.12596944  1
  V  V50  1  0.75004873  0.37562030  0.62347240  1
  V  V51  1  0.37595297  0.24867360  0.62424419  1
  V  V52  1  0.36758791  0.12550354  0.25188969  1
  V  V53  1  0.12543825  0.50009423  0.62497098  1
  V  V54  1  0.62196684  0.25065761  0.36760755  1
  V  V55  1  -0.00688956  0.50050603  -0.00339222  1
  V  V56  1  0.12517273  0.87475534  0.75097368  1
  V  V57  1  0.49757802  -0.00122317  -0.00054462  1
  V  V58  1  0.87793789  0.87820516  0.00224012  1
  V  V59  1  0.50138211  0.49890925  0.49948917  1
  V  V60  1  0.62344663  0.12495239  0.00019983  1
  V  V61  1  -0.00603476  0.37891561  0.87569409  1
  V  V62  1  0.37472204  0.87465020  0.00056102  1
  V  V63  1  0.37797728  0.62503074  0.75028432  1
  V  V64  1  0.00126409  0.12560163  0.62473516  1
  V  V65  1  0.75322009  0.50638978  0.24350504  1
  V  V66  1  0.36898374  0.00383670  0.37411621  1
  V  V67  1  -0.00005649  0.25085962  0.74947562  1
  V  V68  1  0.87214815  0.12519517  0.24945381  1
  V  V69  1  0.74937260  0.25132496  0.49776462  1
  V  V70  1  0.00012203  0.37475613  0.37396522  1
  V  V71  1  0.87754992  -0.00004096  0.87745950  1
  V  V72  1  -0.00123553  0.12083560  0.11705158  1
  V  V73  1  0.37567071  0.37455724  0.49830400  1
  V  V74  1  0.87715721  0.75003519  0.62597629  1
  V  V75  1  0.49984414  0.12532782  0.62485013  1
  V  V76  1  0.87486261  0.24977298  0.62311405  1
  V  V77  1  0.62385356  0.25036912  0.87405298  1
  V  V78  1  -0.00599421  0.62593349  0.12868894  1
  V  V79  1  0.50145585  0.49970935  0.00095671  1
  V  V80  1  0.49991159  0.24974606  0.74905156  1
  V  V81  1  0.62397002  0.37959924  0.24344596  1
  V  V82  1  0.25220251  0.87478219  0.62659492  1
  V  V83  1  0.87724731  0.62475497  0.75195685  1
  V  V84  1  0.12636363  0.00000472  0.62489091  1
  V  V85  1  0.24950375  0.24627046  0.49262494  1
  V  V86  1  -0.00606251  0.74512339  0.25114631  1
  V  V87  1  0.49969294  0.87497549  0.37396309  1
  V  V88  1  0.75464791  0.49923614  0.75165570  1
  V  V89  1  0.12510326  0.62524437  0.00033311  1
  V  V90  1  0.12027666  -0.00005929  0.11896140  1
  V  V91  1  0.75157353  0.87506969  0.62613083  1
  V  V92  1  0.62694279  0.62491513  0.49966203  1
  Zn  Zn93  1  0.12203860  0.12012587  -0.00252478  1
  Zn  Zn94  1  0.62539674  0.37578934  0.74928731  1
  Zn  Zn95  1  0.74763132  0.12677402  0.37317962  1
  Zn  Zn96  1  0.75831164  0.62639862  0.37010396  1
  Zn  Zn97  1  0.75140513  0.74825201  0.00288773  1
  Zn  Zn98  1  0.87191595  0.74915082  0.12902705  1
  Zn  Zn99  1  0.73940903  0.38201815  0.11917227  1
  Zn  Zn100  1  -0.00061201  0.87283171  0.37574803  1
  Zn  Zn101  1  0.37511956  0.12204887  0.75022018  1
  Zn  Zn102  1  0.87731876  0.50856129  0.36814666  1
  Zn  Zn103  1  0.25337403  0.00003989  0.74999103  1
  Zn  Zn104  1  0.24908921  0.24733068  0.00073940  1
  Zn  Zn105  1  0.00054787  0.74968580  0.75010422  1
  Zn  Zn106  1  0.37857680  0.75100678  0.62768656  1
  Zn  Zn107  1  0.12813426  0.24653058  0.36966881  1
  Zn  Zn108  1  0.86896958  0.38014023  -0.00585561  1
  Zn  Zn109  1  0.37571472  0.49916524  0.37499141  1
  Zn  Zn110  1  0.50192361  0.74940959  0.24960267  1
  Zn  Zn111  1  0.24820884  0.49895726  0.25173307  1
  Zn  Zn112  1  0.37337401  -0.00107358  0.87298784  1
  Zn  Zn113  1  0.62500375  0.87565790  0.24927590  1
  Zn  Zn114  1  0.24973643  0.74903584  0.00137837  1
  Zn  Zn115  1  0.49902492  0.87438079  0.87364917  1
  Zn  Zn116  1  0.37591478  0.87678940  0.50144431  1
  Zn  Zn117  1  0.00321153  0.62683935  0.62651750  1
  Zn  Zn118  1  0.24415556  0.00503119  0.25540104  1
  Zn  Zn119  1  0.12552008  0.62497197  0.50271896  1
  Zn  Zn120  1  0.74687659  -0.00008218  0.25159939  1
  Zn  Zn121  1  0.50000200  0.75194187  0.74849054  1
  Zn  Zn122  1  0.18692452  0.18771349  0.18576208  1
  Zn  Zn123  1  0.18852865  0.18736242  0.68615012  1
  Zn  Zn124  1  0.18561478  0.68819890  0.18699330  1
  Zn  Zn125  1  0.18762762  0.68715027  0.68979813  1
  Zn  Zn126  1  0.68673044  0.18959368  0.18640840  1
  Zn  Zn127  1  0.68621700  0.18802410  0.68686768  1
  Zn  Zn128  1  0.68683511  0.68991904  0.18789328  1
  Zn  Zn129  1  0.68901066  0.68712878  0.68781956  1
  Zn  Zn130  1  0.31282302  0.31221985  0.30984217  1
  Zn  Zn131  1  0.31319719  0.30992651  0.81140659  1
  Zn  Zn132  1  0.31334112  0.81280929  0.31277243  1
  Zn  Zn133  1  0.31287951  0.81005318  0.81353388  1
  Zn  Zn134  1  0.80923060  0.31927433  0.31129024  1
  Zn  Zn135  1  0.81153874  0.31140131  0.81075860  1
  Zn  Zn136  1  0.81145100  0.81472903  0.31358817  1
  Zn  Zn137  1  0.81249739  0.80968859  0.81487947  1
  Zn  Zn138  1  0.18575786  0.43551592  0.43624858  1
  Zn  Zn139  1  0.18517386  0.43747151  0.93946922  1
  Zn  Zn140  1  0.18678418  0.93585071  0.43961625  1
  Zn  Zn141  1  0.18845132  0.93718303  0.93872072  1
  Zn  Zn142  1  0.68937177  0.43929965  0.43143881  1
  Zn  Zn143  1  0.68613454  0.43760086  0.93642524  1
  Zn  Zn144  1  0.68861359  0.93652712  0.43814195  1
  Zn  Zn145  1  0.68895875  0.93757748  0.93977546  1
  Zn  Zn146  1  0.30649311  0.06156730  0.06311445  1
  Zn  Zn147  1  0.31337852  0.06260539  0.56052310  1
  Zn  Zn148  1  0.31250383  0.56063481  0.06317601  1
  Zn  Zn149  1  0.31557878  0.56165707  0.56325074  1
  Zn  Zn150  1  0.81158601  0.06123769  0.06175879  1
  Zn  Zn151  1  0.81112987  0.06419751  0.56143667  1
  Zn  Zn152  1  0.81212225  0.56225073  0.06545963  1
  Zn  Zn153  1  0.81499071  0.56434774  0.56211123  1
  Zn  Zn154  1  0.43645497  0.43967042  0.18797611  1
  Zn  Zn155  1  0.43840538  0.43675021  0.68673301  1
  Zn  Zn156  1  0.43659792  0.93930471  0.18997615  1
  Zn  Zn157  1  0.43763312  0.93835664  0.69032186  1
  Zn  Zn158  1  0.93638418  0.43962853  0.18590485  1
  Zn  Zn159  1  0.93721130  0.43781042  0.68596556  1
  Zn  Zn160  1  0.93791772  0.93688540  0.18856462  1
  Zn  Zn161  1  0.94024147  0.93714813  0.69006500  1
  Zn  Zn162  1  0.05737226  0.06204561  0.30907264  1
  Zn  Zn163  1  0.06410543  0.06055343  0.81077475  1
  Zn  Zn164  1  0.06330601  0.56220289  0.31368351  1
  Zn  Zn165  1  0.06345695  0.56192912  0.81372350  1
  Zn  Zn166  1  0.55929780  0.06240169  0.31098670  1
  Zn  Zn167  1  0.56192306  0.06262662  0.81211180  1
  Zn  Zn168  1  0.56629387  0.55918972  0.31225452  1
  Zn  Zn169  1  0.56532430  0.56163468  0.81281684  1
  Zn  Zn170  1  0.43867722  0.18790484  0.43617003  1
  Zn  Zn171  1  0.43486456  0.18795085  0.93912616  1
  Zn  Zn172  1  0.43805809  0.68765706  0.44027937  1
  Zn  Zn173  1  0.43844124  0.68789385  0.93752118  1
  Zn  Zn174  1  0.93941625  0.18843106  0.43595884  1
  Zn  Zn175  1  0.93619530  0.18961824  0.93692116  1
  Zn  Zn176  1  0.93746935  0.68577327  0.43659000  1
  Zn  Zn177  1  0.93813385  0.69283653  0.94048642  1
  Zn  Zn178  1  0.05922806  0.31268248  0.06210168  1
  Zn  Zn179  1  0.06409502  0.31264505  0.56095494  1
  Zn  Zn180  1  0.06151266  0.81103845  0.06299600  1
  Zn  Zn181  1  0.06302531  0.81203663  0.56333259  1
  Zn  Zn182  1  0.55912526  0.31034926  0.06076852  1
  Zn  Zn183  1  0.56361150  0.31323342  0.56006524  1
  Zn  Zn184  1  0.56254913  0.80856058  0.06264148  1
  Zn  Zn185  1  0.56292910  0.81243688  0.56238129  1
  O  O186  1  0.11579344  0.11742053  0.12567020  1
  O  O187  1  0.11964222  0.12042834  0.61651375  1
  O  O188  1  0.11679943  0.61991120  0.11963519  1
  O  O189  1  0.12443127  0.61613460  0.62433234  1
  O  O190  1  0.61568230  0.12274118  0.12055084  1
  O  O191  1  0.62032260  0.11930193  0.61868852  1
  O  O192  1  0.61453973  0.63320923  0.11444453  1
  O  O193  1  0.62155772  0.61941233  0.61968802  1
  O  O194  1  0.38417077  0.37476822  0.37802189  1
  O  O195  1  0.37958359  0.37906457  0.88012142  1
  O  O196  1  0.38456180  0.88240523  0.37575592  1
  O  O197  1  0.37693851  0.87542376  0.88826212  1
  O  O198  1  0.88264326  0.37766099  0.38131993  1
  O  O199  1  0.89016648  0.36762402  0.87482225  1
  O  O200  1  0.87582774  0.88529762  0.38190513  1
  O  O201  1  0.88110818  0.87878048  0.88154938  1
  O  O202  1  0.26512341  -0.00704346  0.37580927  1
  O  O203  1  0.24847071  0.01064528  0.87397901  1
  O  O204  1  0.25197134  0.51159276  0.37534588  1
  O  O205  1  0.25477485  0.50366542  0.86981484  1
  O  O206  1  0.76172560  0.00312186  0.37458059  1
  O  O207  1  0.75533061  0.00619986  0.86965288  1
  O  O208  1  0.75238233  0.50208466  0.36102449  1
  O  O209  1  0.74495247  0.51063269  0.86528730  1
  O  O210  1  0.24286962  0.49306244  0.12662584  1
  O  O211  1  0.24620014  0.49336561  0.63011578  1
  O  O212  1  0.23852410  0.99410368  0.13088046  1
  O  O213  1  0.24504454  0.98939442  0.62235904  1
  O  O214  1  0.75111952  0.49788447  0.13649114  1
  O  O215  1  0.74646217  0.49526497  0.63168846  1
  O  O216  1  0.74272760  0.99206428  0.12505156  1
  O  O217  1  0.74558781  0.99530905  0.63039176  1
  O  O218  1  0.00412315  0.37057095  0.25289516  1
  O  O219  1  0.00481169  0.37154391  0.75646880  1
  O  O220  1  0.01064189  0.86662767  0.25071518  1
  O  O221  1  0.00612415  0.87273573  0.76069810  1
  O  O222  1  0.50712179  0.38465684  0.26135422  1
  O  O223  1  0.50183478  0.36865692  0.75632650  1
  O  O224  1  0.50139087  0.87254579  0.26151346  1
  O  O225  1  0.51004742  0.87367510  0.75405953  1
  O  O226  1  0.48847571  0.11832892  0.23541232  1
  O  O227  1  0.50033373  0.13157954  0.74249829  1
  O  O228  1  0.49324151  0.62348808  0.24311228  1
  O  O229  1  0.49594276  0.62356098  0.74424590  1
  O  O230  1  0.98879729  0.13126517  0.24134498  1
  O  O231  1  0.99492163  0.13053914  0.74446996  1
  O  O232  1  1.00883033  0.63398515  0.24040246  1
  O  O233  1  0.98778255  0.62433081  0.75232204  1
  O  O234  1  0.37257881  0.25635955  0.01073448  1
  O  O235  1  0.36809440  0.25372325  0.50384207  1
  O  O236  1  0.37576785  0.75951764  0.00639540  1
  O  O237  1  0.36280402  0.75268704  0.50241609  1
  O  O238  1  0.86808687  0.25051488  0.00785994  1
  O  O239  1  0.87044231  0.25487126  0.50442041  1
  O  O240  1  0.87149006  0.76430529  0.00384116  1
  O  O241  1  0.87119669  0.75714225  0.50613029  1
  O  O242  1  0.13255446  0.24227887  0.49871384  1
  O  O243  1  0.12399364  0.24949708  0.98694271  1
  O  O244  1  0.13646909  0.74913794  0.49498441  1
  O  O245  1  0.12639065  0.74342108  0.99437769  1
  O  O246  1  0.62990661  0.24613961  0.49009542  1
  O  O247  1  0.62897724  0.24376808  0.99402431  1
  O  O248  1  0.63126150  0.74609495  0.49277809  1
  O  O249  1  0.62656413  0.73857690  0.99170983  1
  O  O250  1  0.48792150  0.23808595  0.11791115  1
  O  O251  1  0.49621854  0.24542424  0.62802145  1
  O  O252  1  0.49366621  0.73803024  0.12691406  1
  O  O253  1  0.49955008  0.74173216  0.62655627  1
  O  O254  1  0.99093790  0.24214257  0.12919476  1
  O  O255  1  0.99509328  0.24611250  0.62991073  1
  O  O256  1  1.00076771  0.74187700  0.13384425  1
  O  O257  1  0.99368887  0.74757141  0.62868767  1
  O  O258  1  0.00151153  0.25665820  0.36681303  1
  O  O259  1  0.00753393  0.25645450  0.86950545  1
  O  O260  1  0.00826212  0.75025191  0.36790139  1
  O  O261  1  0.00620346  0.76139240  0.87357748  1
  O  O262  1  0.51003859  0.26192769  0.38029617  1
  O  O263  1  0.50407208  0.25382420  0.87056292  1
  O  O264  1  0.50800051  0.75847828  0.37778282  1
  O  O265  1  0.51403264  0.74995388  0.87396726  1
  O  O266  1  0.23959629  0.13464853  0.50647383  1
  O  O267  1  0.24391083  0.12745267  0.98937677  1
  O  O268  1  0.25133474  0.63247695  0.49257464  1
  O  O269  1  0.24374337  0.62411104  0.99413414  1
  O  O270  1  0.74303110  0.13272087  0.49744945  1
  O  O271  1  0.74350077  0.12961078  0.99397915  1
  O  O272  1  0.74296422  0.63246589  0.50109042  1
  O  O273  1  0.74361186  0.62357021  0.99400688  1
  O  O274  1  0.25616768  0.37374999  0.00639391  1
  O  O275  1  0.25473082  0.36723474  0.50488831  1
  O  O276  1  0.26035891  0.87467213  0.00749109  1
  O  O277  1  0.25029110  0.86622329  0.50927307  1
  O  O278  1  0.75128619  0.36951261  0.00154119  1
  O  O279  1  0.75550513  0.37106179  0.50398860  1
  O  O280  1  0.75710089  0.87353837  0.00994410  1
  O  O281  1  0.75648229  0.86992524  0.50706295  1
  O  O282  1  0.12516858  0.49283189  0.24267076  1
  O  O283  1  0.13136934  0.49416304  0.74592097  1
  O  O284  1  0.12405563  0.99095948  0.24452977  1
  O  O285  1  0.12833595  0.99274170  0.74167737  1
  O  O286  1  0.63612267  0.48855073  0.25366208  1
  O  O287  1  0.63824956  0.50000975  0.74340633  1
  O  O288  1  0.62650344  0.99813749  0.24241813  1
  O  O289  1  0.63166884  0.99542665  0.74507871  1
  O  O290  1  0.37109653  0.00739832  0.25702217  1
  O  O291  1  0.37174305  0.00385942  0.75559399  1
  O  O292  1  0.37085813  0.51327579  0.25230086  1
  O  O293  1  0.36981086  0.50363221  0.75591533  1
  O  O294  1  0.87557407  0.00857420  0.25834261  1
  O  O295  1  0.86988786  0.00602839  0.75562696  1
  O  O296  1  0.85839642  0.49207020  0.24994296  1
  O  O297  1  0.86372041  0.50982136  0.74363197  1
  O  O298  1  0.11825519  0.37212646  0.36676985  1
  O  O299  1  0.11731248  0.36710773  0.86980048  1
  O  O300  1  0.12403119  0.87044683  0.36625438  1
  O  O301  1  0.11880240  0.87160105  0.87259792  1
  O  O302  1  0.61772147  0.36821756  0.36744375  1
  O  O303  1  0.61729766  0.36806316  0.87365119  1
  O  O304  1  0.61676963  0.86752236  0.37618816  1
  O  O305  1  0.62725256  0.86532819  0.87221185  1
  O  O306  1  0.37853708  0.13053257  0.13017444  1
  O  O307  1  0.38258632  0.13124279  0.62403958  1
  O  O308  1  0.38105273  0.62938963  0.13197127  1
  O  O309  1  0.38245212  0.62487776  0.63245304  1
  O  O310  1  0.87974863  0.13079006  0.13056907  1
  O  O311  1  0.88067527  0.13010944  0.62955469  1
  O  O312  1  0.89065129  0.62907389  0.11928981  1
  O  O313  1  0.87610013  0.63160339  0.63607503  1
  O  O314  1  0.25865240  0.25558549  0.12196904  1
  O  O315  1  0.25513804  0.25568690  0.61624008  1
  O  O316  1  0.25610449  0.75669356  0.12345920  1
  O  O317  1  0.24982570  0.75786503  0.61795773  1
  O  O318  1  0.75829703  0.24991277  0.11791886  1
  O  O319  1  0.75496064  0.25518162  0.61889226  1
  O  O320  1  0.75228252  0.76070508  0.12455812  1
  O  O321  1  0.75618788  0.75616044  0.62029350  1
  O  O322  1  0.24934485  0.25433754  0.38883023  1
  O  O323  1  0.23962797  0.24343402  0.87452928  1
  O  O324  1  0.24724940  0.74338466  0.38310347  1
  O  O325  1  0.24328441  0.74241289  0.87864153  1
  O  O326  1  0.74017605  0.25091310  0.38022381  1
  O  O327  1  0.74483106  0.24420860  0.87910111  1
  O  O328  1  0.74002971  0.75216709  0.38087073  1
  O  O329  1  0.74057269  0.73941572  0.87725647  1
  O  O330  1  -0.00006452  0.12935544  0.01319545  1
  O  O331  1  0.00762918  0.12129954  0.50600163  1
  O  O332  1  0.00513652  0.61893122  0.00529105  1
  O  O333  1  0.00410005  0.61270538  0.50306115  1
  O  O334  1  0.50245559  0.11705667  0.00871686  1
  O  O335  1  0.50682278  0.12040339  0.50494711  1
  O  O336  1  0.50619628  0.62023366  0.00652477  1
  O  O337  1  0.50629259  0.61895951  0.50568000  1
  O  O338  1  0.49558459  0.37938394  0.49086871  1
  O  O339  1  0.49383623  0.37991444  0.99450974  1
  O  O340  1  0.49940743  0.88116919  0.49077451  1
  O  O341  1  0.49191277  0.88301442  1.00286166  1
  O  O342  1  0.99648851  0.38158473  0.49515431  1
  O  O343  1  0.99890082  0.38341210  0.99194876  1
  O  O344  1  0.99476567  0.88264513  0.49874171  1
  O  O345  1  0.99108782  0.87112673  0.99098543  1
  O  O346  1  0.50051178  0.49025970  0.38208193  1
  O  O347  1  0.49468924  0.49437462  0.88000355  1
  O  O348  1  0.49360553  0.99177136  0.37914007  1
  O  O349  1  0.49968038  0.99989215  0.88989522  1
  O  O350  1  1.00085777  0.49393224  0.38476753  1
  O  O351  1  1.00757013  0.48962234  0.88458505  1
  O  O352  1  0.98824606  0.99930925  0.38060462  1
  O  O353  1  0.99443712  0.98803487  0.86975059  1
  O  O354  1  0.00785290  0.01048705  0.13317770  1
  O  O355  1  0.00564232  0.00556171  0.61974350  1
  O  O356  1  0.00491395  0.50716764  0.11825583  1
  O  O357  1  0.00714055  0.49883564  0.61654969  1
  O  O358  1  0.50305464  0.00711973  0.11633504  1
  O  O359  1  0.50679674  0.00448007  0.61901616  1
  O  O360  1  0.49343475  0.51325968  0.11780196  1
  O  O361  1  0.50736691  0.50374802  0.61928743  1
  O  O362  1  0.24309710  0.37611753  0.24316973  1
  O  O363  1  0.24554337  0.37970260  0.74461260  1
  O  O364  1  0.23775603  0.87328056  0.24586989  1
  O  O365  1  0.24472531  0.87404879  0.74088293  1
  O  O366  1  0.73997772  0.38331944  0.24465959  1
  O  O367  1  0.75103864  0.38395453  0.74423930  1
  O  O368  1  0.74917306  0.87826075  0.23778495  1
  O  O369  1  0.74663509  0.88081485  0.74586732  1
  O  O370  1  0.26242158  0.12380566  0.24690884  1
  O  O371  1  0.25014003  0.12427804  0.76043009  1
  O  O372  1  0.25758790  0.62690744  0.25924736  1
  O  O373  1  0.25664989  0.61814022  0.75666360  1
  O  O374  1  0.76188165  0.12352298  0.24962666  1
  O  O375  1  0.75541213  0.12017421  0.75466559  1
  O  O376  1  0.74143539  0.61004955  0.24861197  1
  O  O377  1  0.75741916  0.61832391  0.75700380  1
  O  O378  1  0.38667884  0.11539502  0.36315524  1
  O  O379  1  0.36279236  0.12510701  0.87501305  1
  O  O380  1  0.36819852  0.62587416  0.36795062  1
  O  O381  1  0.37070441  0.61810503  0.87176731  1
  O  O382  1  0.87481708  0.11882806  0.36622642  1
  O  O383  1  0.87023776  0.12112364  0.86945792  1
  O  O384  1  0.87087109  0.62164363  0.37746855  1
  O  O385  1  0.86375194  0.63393496  0.86775517  1
  O  O386  1  0.12846583  0.37870652  0.12915897  1
  O  O387  1  0.13087056  0.37902174  0.63117660  1
  O  O388  1  0.12695218  0.88090039  0.13245304  1
  O  O389  1  0.13346370  0.87955441  0.62961486  1
  O  O390  1  0.62077029  0.36466588  0.13860774  1
  O  O391  1  0.63260611  0.38128884  0.62529944  1
  O  O392  1  0.63256630  0.87936186  0.12384658  1
  O  O393  1  0.63215317  0.88064579  0.63005910  1
  O  O394  1  0.11755359  0.25505704  0.24943319  1
  O  O395  1  0.11935689  0.25523108  0.75761177  1
  O  O396  1  0.11757519  0.75802393  0.25439200  1
  O  O397  1  0.12392417  0.75634056  0.75824292  1
  O  O398  1  0.63086619  0.25818759  0.26190879  1
  O  O399  1  0.61919558  0.25197139  0.75634996  1
  O  O400  1  0.62251299  0.75238991  0.26307299  1
  O  O401  1  0.62721534  0.75492421  0.75934565  1
  O  O402  1  0.37178702  0.24207246  0.23806534  1
  O  O403  1  0.38206895  0.24783325  0.74183171  1
  O  O404  1  0.37751500  0.73893633  0.24623530  1
  O  O405  1  0.37918514  0.74074343  0.74972794  1
  O  O406  1  0.87694227  0.24367037  0.24180276  1
  O  O407  1  0.87993671  0.24390855  0.74318702  1
  O  O408  1  0.89088571  0.75913759  0.24982689  1
  O  O409  1  0.87432895  0.74043623  0.74482077  1
  O  O410  1  0.38240087  0.49192790  0.49826243  1
  O  O411  1  0.38092221  0.49408831  0.99412559  1
  O  O412  1  0.38271559  1.00061575  0.49044407  1
  O  O413  1  0.38201153  0.99134119  1.00281741  1
  O  O414  1  0.88697105  0.49270503  0.50406252  1
  O  O415  1  0.88933664  0.49861505  1.00510472  1
  O  O416  1  0.87969536  0.99740441  0.49378315  1
  O  O417  1  0.86886104  0.98770243  0.99258251  1
  O  O418  1  0.12561549  -0.00142853  0.01542472  1
  O  O419  1  0.12068996  0.00714945  0.50430943  1
  O  O420  1  0.11470327  0.50501247  0.00581632  1
  O  O421  1  0.11629093  0.49844231  0.50608867  1
  O  O422  1  0.61664699  0.00541748  0.00562743  1
  O  O423  1  0.62118708  0.00562571  0.50472072  1
  O  O424  1  0.61843254  0.51347918  -0.00651933  1
  O  O425  1  0.62159290  0.50467095  0.50411803  1
  O  O426  1  0.37175452  0.36792141  0.12223907  1
  O  O427  1  0.37061061  0.36894631  0.61805438  1
  O  O428  1  0.37079994  0.87062676  0.12018697  1
  O  O429  1  0.36440267  0.87360192  0.62343847  1
  O  O430  1  0.87563862  0.36090590  0.12197263  1
  O  O431  1  0.86989919  0.36815935  0.61908890  1
  O  O432  1  0.86768017  0.87777774  0.11791092  1
  O  O433  1  0.87055967  0.87159554  0.62147140  1
  O  O434  1  0.11797308  0.12475892  0.38786025  1
  O  O435  1  0.12895436  0.13330333  0.87518812  1
  O  O436  1  0.13711469  0.63097439  0.37601135  1
  O  O437  1  0.13027927  0.62951110  0.88017980  1
  O  O438  1  0.62303398  0.13406793  0.37791566  1
  O  O439  1  0.63007986  0.13006443  0.88063927  1
  O  O440  1  0.62451180  0.63614407  0.38119744  1
  O  O441  1  0.63383050  0.63125539  0.88202027  1
