# generated using pymatgen
data_V93Zn93O256
_symmetry_space_group_name_H-M   'P 1'
_cell_length_a   17.05536323
_cell_length_b   17.05446555
_cell_length_c   17.06771417
_cell_angle_alpha   90.02355205
_cell_angle_beta   90.00817811
_cell_angle_gamma   90.08753735
_symmetry_Int_Tables_number   1
_chemical_formula_structural   V93Zn93O256
_chemical_formula_sum   'V93 Zn93 O256'
_cell_volume   4964.48154129
_cell_formula_units_Z   1
loop_
 _symmetry_equiv_pos_site_id
 _symmetry_equiv_pos_as_xyz
  1  'x, y, z'
loop_
 _atom_site_type_symbol
 _atom_site_label
 _atom_site_symmetry_multiplicity
 _atom_site_fract_x
 _atom_site_fract_y
 _atom_site_fract_z
 _atom_site_occupancy
  V  V0  1  0.24366828  -0.00415907  0.74914657  1
  V  V1  1  0.00094026  0.75780064  0.25445282  1
  V  V2  1  0.88322242  0.87518333  0.49628991  1
  V  V3  1  0.24837347  0.87629927  0.12475772  1
  V  V4  1  0.00387644  0.87504136  0.86680280  1
  V  V5  1  0.87504028  0.87543449  -0.00168291  1
  V  V6  1  0.37699502  0.37367012  0.50030477  1
  V  V7  1  0.24646634  0.12479931  0.37672499  1
  V  V8  1  0.50055237  0.00083491  -0.00008311  1
  V  V9  1  0.87819820  0.62492412  0.74900650  1
  V  V10  1  0.37396055  0.12422881  0.74958144  1
  V  V11  1  0.62353167  0.87360016  0.25185243  1
  V  V12  1  0.24999072  0.37670726  0.62713559  1
  V  V13  1  0.62366023  0.12373646  0.00084636  1
  V  V14  1  0.12672955  0.37943824  0.25070243  1
  V  V15  1  0.12820464  0.50248950  0.13002372  1
  V  V16  1  0.24975563  0.37977203  0.12985042  1
  V  V17  1  0.50055189  -0.00027392  0.50005047  1
  V  V18  1  0.49730585  0.37593996  0.87873883  1
  V  V19  1  0.24653506  0.24328978  0.50001977  1
  V  V20  1  0.49844023  0.62470985  0.62513595  1
  V  V21  1  0.62563292  -0.00015659  0.62403245  1
  V  V22  1  0.49956687  0.24972554  0.75006564  1
  V  V23  1  0.24890016  0.00019145  0.24966094  1
  V  V24  1  0.50038836  0.87527011  0.87347310  1
  V  V25  1  0.12502118  -0.00001009  0.12472878  1
  V  V26  1  0.12485165  0.00780715  0.62132567  1
  V  V27  1  0.24371776  0.87473860  0.62540549  1
  V  V28  1  0.12061001  0.50031990  0.62357176  1
  V  V29  1  0.87647182  0.75114643  0.12525998  1
  V  V30  1  0.24844594  0.12550288  0.87458924  1
  V  V31  1  0.74941797  0.62541855  0.37603298  1
  V  V32  1  0.74921027  0.37663513  0.12727034  1
  V  V33  1  0.50003583  0.24830847  0.25153533  1
  V  V34  1  0.50113920  0.37374190  0.37596871  1
  V  V35  1  0.37434160  0.87361578  0.50046722  1
  V  V36  1  0.75329159  0.24961946  0.50532105  1
  V  V37  1  0.12274903  0.75808521  0.37560817  1
  V  V38  1  0.00021079  0.50144358  0.00163979  1
  V  V39  1  0.75097882  0.12493323  0.87446777  1
  V  V40  1  0.24893878  0.75053313  -0.00120280  1
  V  V41  1  0.12593145  0.24726518  0.37561574  1
  V  V42  1  0.87969165  -0.00245984  0.37453712  1
  V  V43  1  0.87498192  0.12487077  0.25035911  1
  V  V44  1  0.87536393  0.37688795  0.00239004  1
  V  V45  1  0.87534337  0.50242942  0.87619511  1
  V  V46  1  0.12474117  0.62673029  -0.00049458  1
  V  V47  1  0.62638937  0.62528374  0.49977435  1
  V  V48  1  0.75156712  0.74950235  0.49901223  1
  V  V49  1  0.12479692  0.75278161  0.86804139  1
  V  V50  1  0.37219900  0.50138082  0.87437795  1
  V  V51  1  0.75242192  0.37332917  0.62786308  1
  V  V52  1  0.74816570  0.50021569  0.24959935  1
  V  V53  1  0.37430759  -0.00111147  0.37508095  1
  V  V54  1  0.36762515  0.50292686  0.37004860  1
  V  V55  1  0.37391534  -0.00032922  0.87403722  1
  V  V56  1  -0.00001216  0.12576885  0.12385947  1
  V  V57  1  0.87506097  0.62627956  0.25098181  1
  V  V58  1  0.37488486  0.87541164  -0.00083193  1
  V  V59  1  0.37521154  0.24932096  0.62448169  1
  V  V60  1  0.87703193  0.74957236  0.62517564  1
  V  V61  1  0.62598611  0.87620081  0.74875562  1
  V  V62  1  0.75153118  0.12609907  0.37586985  1
  V  V63  1  0.62303749  0.62387941  0.00279591  1
  V  V64  1  0.50117247  0.12414239  0.62494117  1
  V  V65  1  0.74971215  0.62703256  0.87531140  1
  V  V66  1  -0.00575139  0.13397069  0.63136722  1
  V  V67  1  0.87480056  0.00177237  0.86889140  1
  V  V68  1  0.00373380  0.00754943  0.49876184  1
  V  V69  1  0.74883284  0.87863573  0.12529183  1
  V  V70  1  0.87544325  0.37233754  0.50452436  1
  V  V71  1  0.37757780  0.74940286  0.12768389  1
  V  V72  1  0.37390540  0.24934790  0.12610225  1
  V  V73  1  0.50107327  0.49968065  0.50056362  1
  V  V74  1  0.74884275  0.25069970  0.00182600  1
  V  V75  1  0.49876622  0.74991033  0.74886991  1
  V  V76  1  0.75001869  0.75039246  -0.00079972  1
  V  V77  1  0.00040975  0.00061669  -0.00158368  1
  V  V78  1  0.87490241  0.25045745  0.12585515  1
  V  V79  1  0.24866873  0.24973786  0.00006314  1
  V  V80  1  0.37528305  0.12424999  0.25025170  1
  V  V81  1  0.00257924  0.36999154  0.86916996  1
  V  V82  1  -0.00021699  0.37473382  0.37524899  1
  V  V83  1  0.62406979  0.24989068  0.87610858  1
  V  V84  1  0.62543440  0.37621399  0.75088521  1
  V  V85  1  0.62525800  0.24926329  0.37514014  1
  V  V86  1  0.12683404  0.62483731  0.49780001  1
  V  V87  1  0.12514965  0.12635936  -0.00100434  1
  V  V88  1  0.00086773  0.62668278  0.12555659  1
  V  V89  1  0.87491783  0.49941123  0.37568237  1
  V  V90  1  0.00065490  0.25053993  0.25027293  1
  V  V91  1  0.74878442  0.50142463  0.75069968  1
  V  V92  1  0.75120614  0.87650524  0.62445986  1
  Zn  Zn93  1  0.62234500  0.00176592  0.12737157  1
  Zn  Zn94  1  0.62022192  0.49852286  0.12712581  1
  Zn  Zn95  1  0.49957731  0.62158692  0.12880548  1
  Zn  Zn96  1  0.62441592  0.37624473  0.24969665  1
  Zn  Zn97  1  0.24497949  0.62416462  0.36435271  1
  Zn  Zn98  1  0.24897164  0.62506776  0.87176972  1
  Zn  Zn99  1  0.62203692  0.75016510  0.37520846  1
  Zn  Zn100  1  0.74902809  0.00090566  0.25178430  1
  Zn  Zn101  1  0.62487972  0.75077379  0.87537893  1
  Zn  Zn102  1  0.37330894  0.62448261  0.74982615  1
  Zn  Zn103  1  0.12081259  0.24656336  0.86625310  1
  Zn  Zn104  1  0.37094887  0.74916208  0.62422713  1
  Zn  Zn105  1  0.75101475  0.00346263  0.74701237  1
  Zn  Zn106  1  0.62541188  0.49910066  0.62554656  1
  Zn  Zn107  1  0.62656413  0.12413456  0.50044871  1
  Zn  Zn108  1  0.49770972  0.50136318  0.00343881  1
  Zn  Zn109  1  -0.00032302  0.50051768  0.49879351  1
  Zn  Zn110  1  0.00509549  0.75245657  0.74594104  1
  Zn  Zn111  1  0.12108459  0.87868076  0.25419569  1
  Zn  Zn112  1  0.87334350  0.14246886  0.74857102  1
  Zn  Zn113  1  0.12041069  0.37262668  0.74525629  1
  Zn  Zn114  1  0.37262865  0.37598863  0.00205881  1
  Zn  Zn115  1  0.50084997  0.12424115  0.12575059  1
  Zn  Zn116  1  0.37001239  0.61804298  0.24180414  1
  Zn  Zn117  1  0.50046620  0.87341989  0.37411468  1
  Zn  Zn118  1  0.49838284  0.74552456  0.25383784  1
  Zn  Zn119  1  0.25045430  0.74904446  0.49718027  1
  Zn  Zn120  1  0.00191888  0.62628816  0.62442848  1
  Zn  Zn121  1  0.24760134  0.50333680  0.75052746  1
  Zn  Zn122  1  0.18764292  0.18906506  0.18872682  1
  Zn  Zn123  1  0.18289494  0.18898338  0.68930227  1
  Zn  Zn124  1  0.19094943  0.68747381  0.19088457  1
  Zn  Zn125  1  0.19091733  0.68479452  0.68671438  1
  Zn  Zn126  1  0.68649927  0.18695016  0.18860572  1
  Zn  Zn127  1  0.68850704  0.18699556  0.68928330  1
  Zn  Zn128  1  0.68741902  0.68909856  0.18737980  1
  Zn  Zn129  1  0.68696309  0.68900540  0.68603606  1
  Zn  Zn130  1  0.31382462  0.31332822  0.31258117  1
  Zn  Zn131  1  0.31104680  0.31140261  0.81245181  1
  Zn  Zn132  1  0.30706986  0.81186329  0.31224406  1
  Zn  Zn133  1  0.31223670  0.81213317  0.81121138  1
  Zn  Zn134  1  0.81180259  0.31292166  0.31437461  1
  Zn  Zn135  1  0.81057756  0.31600420  0.81813262  1
  Zn  Zn136  1  0.81139808  0.81275409  0.31279171  1
  Zn  Zn137  1  0.81284416  0.81258701  0.81106296  1
  Zn  Zn138  1  0.18759527  0.43357288  0.44067562  1
  Zn  Zn139  1  0.18734707  0.43880390  0.94236220  1
  Zn  Zn140  1  0.18711083  0.93811326  0.43921667  1
  Zn  Zn141  1  0.18635657  0.93669151  0.93768961  1
  Zn  Zn142  1  0.68687121  0.43760106  0.43769698  1
  Zn  Zn143  1  0.68703731  0.43966391  0.93885000  1
  Zn  Zn144  1  0.69079698  0.93755727  0.43766046  1
  Zn  Zn145  1  0.68664579  0.93837957  0.93633190  1
  Zn  Zn146  1  0.31321389  0.06324750  0.06262045  1
  Zn  Zn147  1  0.31431680  0.06147619  0.56258608  1
  Zn  Zn148  1  0.31203095  0.56338225  0.05773123  1
  Zn  Zn149  1  0.31179303  0.56176631  0.55742240  1
  Zn  Zn150  1  0.81297884  0.06267501  0.05924540  1
  Zn  Zn151  1  0.81506482  0.06309770  0.56221806  1
  Zn  Zn152  1  0.81100539  0.56341072  0.06405789  1
  Zn  Zn153  1  0.81327867  0.55941544  0.56469938  1
  Zn  Zn154  1  0.43957060  0.43498966  0.18783894  1
  Zn  Zn155  1  0.43665442  0.43830421  0.68960052  1
  Zn  Zn156  1  0.43845038  0.93657373  0.18661854  1
  Zn  Zn157  1  0.43576411  0.93730799  0.68621054  1
  Zn  Zn158  1  0.93838651  0.43909673  0.18899304  1
  Zn  Zn159  1  0.93814371  0.31251557  0.68688862  1
  Zn  Zn160  1  0.93669196  0.93892643  0.18618971  1
  Zn  Zn161  1  0.93924762  0.93946182  0.68400205  1
  Zn  Zn162  1  0.06294598  0.06428691  0.31219651  1
  Zn  Zn163  1  0.06280846  0.06296943  0.80946139  1
  Zn  Zn164  1  0.06153243  0.56458745  0.31291202  1
  Zn  Zn165  1  0.06362406  0.55909160  0.81099171  1
  Zn  Zn166  1  0.56377006  0.06049042  0.31372859  1
  Zn  Zn167  1  0.56344702  0.06196690  0.81200030  1
  Zn  Zn168  1  0.55844555  0.56396392  0.31095397  1
  Zn  Zn169  1  0.56232611  0.56286240  0.81500394  1
  Zn  Zn170  1  0.43625360  0.18527639  0.43763525  1
  Zn  Zn171  1  0.43522089  0.18735300  0.93925410  1
  Zn  Zn172  1  0.43959662  0.68870224  0.43665712  1
  Zn  Zn173  1  0.43765980  0.68737846  0.93827873  1
  Zn  Zn174  1  0.93878755  0.18623924  0.43926754  1
  Zn  Zn175  1  0.93505918  0.18803981  0.93845085  1
  Zn  Zn176  1  0.94096417  0.68643830  0.43764315  1
  Zn  Zn177  1  0.93915692  0.68961786  0.93678513  1
  Zn  Zn178  1  0.06418528  0.31380753  0.06073734  1
  Zn  Zn179  1  0.06628106  0.31264004  0.55815983  1
  Zn  Zn180  1  0.06259799  0.81360144  0.06002711  1
  Zn  Zn181  1  0.06338321  0.81372451  0.56280745  1
  Zn  Zn182  1  0.56260620  0.31130534  0.06555003  1
  Zn  Zn183  1  0.56627678  0.31182985  0.56280133  1
  Zn  Zn184  1  0.56271716  0.81187252  0.06246045  1
  Zn  Zn185  1  0.56314749  0.81177595  0.56212172  1
  O  O186  1  0.11919063  0.12009545  0.11976865  1
  O  O187  1  0.11456687  0.11454109  0.62597493  1
  O  O188  1  0.11968363  0.62239268  0.11980964  1
  O  O189  1  0.12685968  0.61802440  0.61576800  1
  O  O190  1  0.62353282  0.12254963  0.11663110  1
  O  O191  1  0.61845580  0.11847460  0.62419944  1
  O  O192  1  0.62603153  0.62477250  0.11388652  1
  O  O193  1  0.61461166  0.62359681  0.61956224  1
  O  O194  1  0.38076932  0.38137638  0.38158222  1
  O  O195  1  0.38326474  0.38046613  0.87490605  1
  O  O196  1  0.37132693  0.88115026  0.38579744  1
  O  O197  1  0.38006830  0.88081636  0.87944390  1
  O  O198  1  0.87961645  0.37999421  0.38292146  1
  O  O199  1  0.88382280  0.38273133  0.88412993  1
  O  O200  1  0.87000550  0.88551460  0.38484826  1
  O  O201  1  0.88194762  0.88230096  0.87969590  1
  O  O202  1  0.25346524  0.00526239  0.37016135  1
  O  O203  1  0.25328618  0.00316556  0.86670830  1
  O  O204  1  0.26586790  0.49534658  0.38244329  1
  O  O205  1  0.25964857  0.49757206  0.87430809  1
  O  O206  1  0.76406366  0.00748195  0.37702887  1
  O  O207  1  0.76043355  0.00520069  0.87502243  1
  O  O208  1  0.75601343  0.50546127  0.36987405  1
  O  O209  1  0.75578511  0.50654539  0.87120725  1
  O  O210  1  0.24456318  0.48729030  0.11738558  1
  O  O211  1  0.24409443  0.48944645  0.62093354  1
  O  O212  1  0.24457907  0.99645956  0.12971069  1
  O  O213  1  0.24297456  0.99740645  0.62973122  1
  O  O214  1  0.75082613  0.49360205  0.13285364  1
  O  O215  1  0.74813140  0.49169909  0.63296547  1
  O  O216  1  0.75207169  0.98757105  0.12469032  1
  O  O217  1  0.74515336  0.99448993  0.62488894  1
  O  O218  1  0.00465036  0.36854235  0.25565390  1
  O  O219  1  -0.00285777  0.37615370  0.76748119  1
  O  O220  1  0.00024772  0.86194653  0.24346560  1
  O  O221  1  -0.00518920  0.87466808  0.76346406  1
  O  O222  1  0.50159811  0.36532860  0.25857691  1
  O  O223  1  0.50444748  0.36901956  0.75886559  1
  O  O224  1  0.51227239  0.87411272  0.25010374  1
  O  O225  1  0.50439259  0.86853400  0.75245443  1
  O  O226  1  0.49279407  0.13005807  0.25052233  1
  O  O227  1  0.49409399  0.13033652  0.74550010  1
  O  O228  1  0.48923184  0.62831591  0.24636578  1
  O  O229  1  0.50089452  0.63323414  0.74207817  1
  O  O230  1  0.99455194  0.13123674  0.24295516  1
  O  O231  1  0.99875372  0.12172672  0.73481812  1
  O  O232  1  0.99383744  0.63507049  0.24400467  1
  O  O233  1  0.98785318  0.62582087  0.74916504  1
  O  O234  1  0.36637194  0.25079941  0.00742246  1
  O  O235  1  0.36768125  0.25447484  0.50514619  1
  O  O236  1  0.36910865  0.75715291  0.00499109  1
  O  O237  1  0.37267892  0.76186327  0.50177217  1
  O  O238  1  0.86828527  0.25572363  0.00725176  1
  O  O239  1  0.86349770  0.26035118  0.49047888  1
  O  O240  1  0.87065284  0.75590612  0.00567118  1
  O  O241  1  0.87330725  0.75773250  0.50355625  1
  O  O242  1  0.13952505  0.25490439  0.49193937  1
  O  O243  1  0.13156090  0.24279135  0.99775891  1
  O  O244  1  0.12313643  0.74316670  0.49207608  1
  O  O245  1  0.12903757  0.74560965  0.99169719  1
  O  O246  1  0.63608798  0.24851677  0.49345165  1
  O  O247  1  0.62958669  0.24431631  0.99480287  1
  O  O248  1  0.63416181  0.74397993  0.49995679  1
  O  O249  1  0.63215168  0.74237791  0.99847916  1
  O  O250  1  0.49197300  0.24851719  0.13264496  1
  O  O251  1  0.49503850  0.24523353  0.63044697  1
  O  O252  1  0.48697116  0.75109299  0.12428541  1
  O  O253  1  0.49884240  0.74211307  0.63249595  1
  O  O254  1  0.99474241  0.24546065  0.12960038  1
  O  O255  1  1.00368673  0.23830450  0.62069345  1
  O  O256  1  0.99559035  0.74572427  0.13120656  1
  O  O257  1  0.99370771  0.74919451  0.62854590  1
  O  O258  1  0.00534253  0.25387111  0.37009111  1
  O  O259  1  -0.00018724  0.26751428  0.88646587  1
  O  O260  1  0.00790226  0.74501100  0.36360903  1
  O  O261  1  0.00727540  0.75942959  0.87424030  1
  O  O262  1  0.50440170  0.25362917  0.37204342  1
  O  O263  1  0.50296273  0.25664899  0.86956368  1
  O  O264  1  0.50362918  0.75631321  0.37235096  1
  O  O265  1  0.50049896  0.75650613  0.86465625  1
  O  O266  1  0.25774315  0.13634373  0.49451021  1
  O  O267  1  0.24458611  0.12896501  0.99416671  1
  O  O268  1  0.23807092  0.62783695  0.49607038  1
  O  O269  1  0.24159803  0.63329484  0.99588489  1
  O  O270  1  0.75246932  0.13488094  0.49543167  1
  O  O271  1  0.74476967  0.13123615  0.99448009  1
  O  O272  1  0.74684516  0.62923989  0.49624907  1
  O  O273  1  0.74439366  0.63092987  0.99530620  1
  O  O274  1  0.24845957  0.36672809  0.01162628  1
  O  O275  1  0.25679776  0.36406261  0.50897594  1
  O  O276  1  0.25582893  0.87151031  0.00464912  1
  O  O277  1  0.25853955  0.87748285  0.50936131  1
  O  O278  1  0.75594090  0.37026985  0.00521250  1
  O  O279  1  0.75661736  0.36882890  0.50512619  1
  O  O280  1  0.75451295  0.87079578  0.00663543  1
  O  O281  1  0.76173147  0.87016584  0.50544509  1
  O  O282  1  0.11709086  0.49200232  0.24239292  1
  O  O283  1  0.12848003  0.49400713  0.73937686  1
  O  O284  1  0.12930588  0.99926558  0.24309468  1
  O  O285  1  0.13707537  1.00340211  0.73993797  1
  O  O286  1  0.63402784  0.49856403  0.24945572  1
  O  O287  1  0.63135601  0.49441682  0.75081702  1
  O  O288  1  0.62986640  0.98991126  0.24748753  1
  O  O289  1  0.62613878  0.99337591  0.74248026  1
  O  O290  1  0.36869769  0.00372662  0.25535414  1
  O  O291  1  0.36651488  0.00539771  0.75426903  1
  O  O292  1  0.37939538  0.49513486  0.26859509  1
  O  O293  1  0.37349040  0.50098128  0.76173092  1
  O  O294  1  0.87615344  0.00511369  0.25946563  1
  O  O295  1  0.87557656  0.00019578  0.76304633  1
  O  O296  1  0.86987502  0.50693590  0.25578956  1
  O  O297  1  0.86487198  0.51545661  0.75956985  1
  O  O298  1  0.12007627  0.36858310  0.37051214  1
  O  O299  1  0.10855777  0.37952213  0.87874504  1
  O  O300  1  0.12654392  0.86313749  0.37549775  1
  O  O301  1  0.11445763  0.86613012  0.88153141  1
  O  O302  1  0.61854216  0.36758359  0.37469418  1
  O  O303  1  0.61706028  0.36987879  0.87125260  1
  O  O304  1  0.62793792  0.87425852  0.36424714  1
  O  O305  1  0.61809052  0.87408561  0.86755211  1
  O  O306  1  0.37483054  0.13151786  0.13290722  1
  O  O307  1  0.38095961  0.12951786  0.63066803  1
  O  O308  1  0.37497266  0.63811919  0.11969794  1
  O  O309  1  0.38752277  0.62649622  0.62306831  1
  O  O310  1  0.88015873  0.13022725  0.12904457  1
  O  O311  1  0.89017974  0.11956732  0.62892217  1
  O  O312  1  0.88003103  0.63221128  0.13083052  1
  O  O313  1  0.87605000  0.63000356  0.63329785  1
  O  O314  1  0.25367259  0.25706529  0.11964104  1
  O  O315  1  0.25511026  0.25464402  0.61728515  1
  O  O316  1  0.25603919  0.75748436  0.11744471  1
  O  O317  1  0.25006840  0.76271710  0.62310235  1
  O  O318  1  0.75621222  0.25545727  0.12087199  1
  O  O319  1  0.74407027  0.25566901  0.61261100  1
  O  O320  1  0.75723780  0.76023835  0.11995723  1
  O  O321  1  0.75734916  0.75593065  0.61825137  1
  O  O322  1  0.24717704  0.24589191  0.38260778  1
  O  O323  1  0.25005750  0.24302783  0.88290221  1
  O  O324  1  0.23719866  0.74726146  0.37739125  1
  O  O325  1  0.24108953  0.75330868  0.88082021  1
  O  O326  1  0.74515561  0.24557052  0.38332801  1
  O  O327  1  0.74296717  0.24609267  0.88376800  1
  O  O328  1  0.75084360  0.74239436  0.38227853  1
  O  O329  1  0.74920573  0.74542208  0.88187015  1
  O  O330  1  0.00442868  0.12016648  0.00489051  1
  O  O331  1  -0.00636303  0.11505046  0.51323743  1
  O  O332  1  0.00396499  0.62127474  0.00639536  1
  O  O333  1  0.01203128  0.62184549  0.50269959  1
  O  O334  1  0.50591078  0.11887259  -0.00079052  1
  O  O335  1  0.50033785  0.11805018  0.50748561  1
  O  O336  1  0.51285779  0.62587004  0.00058871  1
  O  O337  1  0.50596831  0.62101095  0.50828879  1
  O  O338  1  0.49607520  0.37835515  0.49657942  1
  O  O339  1  0.49897911  0.37252955  0.98683199  1
  O  O340  1  0.48944538  0.88130010  0.50239364  1
  O  O341  1  0.49493569  0.88021341  0.99285450  1
  O  O342  1  0.99092406  0.37353577  0.49335444  1
  O  O343  1  0.99348571  0.38331952  0.99750699  1
  O  O344  1  0.98854265  0.88697913  0.50633010  1
  O  O345  1  0.99377979  0.88136095  0.99111880  1
  O  O346  1  0.49219570  0.49302974  0.38272925  1
  O  O347  1  0.49253929  0.48977184  0.87562792  1
  O  O348  1  0.49203807  0.99691919  0.38215519  1
  O  O349  1  0.49299254  0.99492669  0.87861025  1
  O  O350  1  0.99268891  0.49243250  0.37576232  1
  O  O351  1  0.99456392  0.49281786  0.88277935  1
  O  O352  1  0.98934435  1.01018494  0.38461990  1
  O  O353  1  0.99488195  0.99429993  0.87870779  1
  O  O354  1  0.00373716  0.00617219  0.11814864  1
  O  O355  1  0.00776297  0.00728564  0.61871755  1
  O  O356  1  0.00519052  0.50744432  0.12097233  1
  O  O357  1  0.01814204  0.50174034  0.61894090  1
  O  O358  1  0.50054518  0.00261019  0.11482288  1
  O  O359  1  0.50493263  0.00502776  0.62034275  1
  O  O360  1  0.50166074  0.50148595  0.12028298  1
  O  O361  1  0.50083490  0.50856397  0.62049702  1
  O  O362  1  0.24238270  0.36678181  0.23779967  1
  O  O363  1  0.25403042  0.37573348  0.73338190  1
  O  O364  1  0.24598115  0.88381126  0.24233993  1
  O  O365  1  0.25855039  0.88732773  0.73885966  1
  O  O366  1  0.75064800  0.38179381  0.24500690  1
  O  O367  1  0.74400550  0.38186435  0.74799594  1
  O  O368  1  0.74475308  0.87589929  0.24020678  1
  O  O369  1  0.74455797  0.87663885  0.74214330  1
  O  O370  1  0.25555087  0.11949120  0.25568983  1
  O  O371  1  0.25498934  0.11544562  0.75378498  1
  O  O372  1  0.25747825  0.62381486  0.25217580  1
  O  O373  1  0.25658111  0.62162567  0.75395935  1
  O  O374  1  0.75816123  0.12371061  0.25651315  1
  O  O375  1  0.75331260  0.12274560  0.75893069  1
  O  O376  1  0.75657492  0.62150117  0.25537836  1
  O  O377  1  0.75542495  0.62275943  0.75514325  1
  O  O378  1  0.36739723  0.11843016  0.36952101  1
  O  O379  1  0.36834313  0.11885609  0.86918933  1
  O  O380  1  0.37449343  0.60785661  0.38166171  1
  O  O381  1  0.37492045  0.61368542  0.87475453  1
  O  O382  1  0.87143538  0.11810798  0.36985453  1
  O  O383  1  0.87093374  0.11607844  0.87536962  1
  O  O384  1  0.86998305  0.61961286  0.37072957  1
  O  O385  1  0.87012532  0.62323897  0.86907917  1
  O  O386  1  0.13110759  0.38096251  0.13045615  1
  O  O387  1  0.13467654  0.38270118  0.62048561  1
  O  O388  1  0.13072769  0.88327086  0.12339321  1
  O  O389  1  0.13625551  0.88799375  0.61879653  1
  O  O390  1  0.63460747  0.37590362  0.12777677  1
  O  O391  1  0.63174461  0.37625221  0.63399890  1
  O  O392  1  0.63513101  0.87574001  0.13105259  1
  O  O393  1  0.63127764  0.88051419  0.62881073  1
  O  O394  1  0.11859948  0.25749967  0.25514011  1
  O  O395  1  0.12852962  0.25971965  0.75451174  1
  O  O396  1  0.11626830  0.75213414  0.25762942  1
  O  O397  1  0.12428697  0.74383017  0.76454774  1
  O  O398  1  0.61845172  0.25017515  0.25820668  1
  O  O399  1  0.61908448  0.25549113  0.75703888  1
  O  O400  1  0.62471511  0.76152093  0.25089418  1
  O  O401  1  0.61420507  0.75688084  0.74971876  1
  O  O402  1  0.38000910  0.24347444  0.24656539  1
  O  O403  1  0.37966421  0.24360144  0.74406239  1
  O  O404  1  0.37404452  0.75640604  0.23523810  1
  O  O405  1  0.38792187  0.75021661  0.74656993  1
  O  O406  1  0.88096932  0.24494841  0.24550931  1
  O  O407  1  0.87190818  0.25381217  0.75204939  1
  O  O408  1  0.88176785  0.74628487  0.24581610  1
  O  O409  1  0.87469811  0.73925312  0.74460682  1
  O  O410  1  0.38234569  0.49216973  0.49322531  1
  O  O411  1  0.37731059  0.49552431  0.98822352  1
  O  O412  1  0.37956126  0.99255052  0.49524152  1
  O  O413  1  0.37892054  0.99524299  0.99287788  1
  O  O414  1  0.87511020  0.48911037  0.49404828  1
  O  O415  1  0.87976228  0.49752415  0.99594488  1
  O  O416  1  0.88312759  0.99369871  0.49344358  1
  O  O417  1  0.88102303  0.99582003  0.98926063  1
  O  O418  1  0.11976332  0.00679653  0.00483581  1
  O  O419  1  0.11357121  -0.00295851  0.50683048  1
  O  O420  1  0.11907631  0.50758169  0.00886701  1
  O  O421  1  0.12597655  0.50816365  0.50403286  1
  O  O422  1  0.61825148  0.00621624  -0.00020002  1
  O  O423  1  0.61928859  0.00025773  0.50629033  1
  O  O424  1  0.62436441  0.51193170  0.00185898  1
  O  O425  1  0.61892947  0.50662455  0.50239638  1
  O  O426  1  0.36506250  0.36829795  0.12548972  1
  O  O427  1  0.36967382  0.36920692  0.61981446  1
  O  O428  1  0.36834800  0.86989790  0.11758048  1
  O  O429  1  0.36448237  0.87783308  0.61507891  1
  O  O430  1  0.87050860  0.36973218  0.12136117  1
  O  O431  1  0.87073116  0.37204993  0.61072418  1
  O  O432  1  0.86806049  0.87129028  0.11868929  1
  O  O433  1  0.87129299  0.87124124  0.61648303  1
  O  O434  1  0.13392073  0.13462272  0.36827326  1
  O  O435  1  0.13042715  0.12422593  0.88127546  1
  O  O436  1  0.12433295  0.63248979  0.38306344  1
  O  O437  1  0.12295030  0.63365275  0.88239483  1
  O  O438  1  0.63344984  0.13002627  0.37801202  1
  O  O439  1  0.63022117  0.13072328  0.88004830  1
  O  O440  1  0.63223327  0.62565203  0.38227183  1
  O  O441  1  0.63164325  0.62766922  0.88400737  1
