# generated using pymatgen
data_V93Zn93O256
_symmetry_space_group_name_H-M   'P 1'
_cell_length_a   17.05241226
_cell_length_b   17.05173316
_cell_length_c   17.04992449
_cell_angle_alpha   90.01328138
_cell_angle_beta   89.99587397
_cell_angle_gamma   90.07507034
_symmetry_Int_Tables_number   1
_chemical_formula_structural   V93Zn93O256
_chemical_formula_sum   'V93 Zn93 O256'
_cell_volume   4957.65642534
_cell_formula_units_Z   1
loop_
 _symmetry_equiv_pos_site_id
 _symmetry_equiv_pos_as_xyz
  1  'x, y, z'
loop_
 _atom_site_type_symbol
 _atom_site_label
 _atom_site_symmetry_multiplicity
 _atom_site_fract_x
 _atom_site_fract_y
 _atom_site_fract_z
 _atom_site_occupancy
  V  V0  1  0.00053121  0.12747622  0.62508796  1
  V  V1  1  0.62298235  0.74676620  0.87872982  1
  V  V2  1  -0.00183866  0.49839327  0.00154399  1
  V  V3  1  0.62404457  0.87444631  0.74977617  1
  V  V4  1  0.75062769  0.00245909  0.25321500  1
  V  V5  1  0.74590581  0.12363804  0.88156660  1
  V  V6  1  0.25068768  0.75026167  0.49816867  1
  V  V7  1  0.12591349  0.12587750  0.49977893  1
  V  V8  1  0.49842581  0.87373553  0.87484436  1
  V  V9  1  -0.00019950  0.63052294  0.62925474  1
  V  V10  1  0.62672927  0.50005048  0.62405887  1
  V  V11  1  0.75130962  0.37425975  0.62479870  1
  V  V12  1  0.50079135  0.12519420  0.62424153  1
  V  V13  1  0.00004914  0.87558084  0.37531994  1
  V  V14  1  0.00030891  0.00124551  0.49915911  1
  V  V15  1  0.24522950  0.74971252  -0.00215307  1
  V  V16  1  0.62704960  0.62451829  0.50056268  1
  V  V17  1  0.24537632  0.49632208  0.25088063  1
  V  V18  1  0.25044803  0.87554093  0.62586432  1
  V  V19  1  0.00345117  0.50065768  0.50280714  1
  V  V20  1  0.37553890  0.25254798  0.12144729  1
  V  V21  1  0.12484876  0.12419072  -0.00098977  1
  V  V22  1  0.25107420  0.25033686  0.49936389  1
  V  V23  1  0.24523915  0.37370183  0.12731478  1
  V  V24  1  -0.00022806  0.75089964  0.25016654  1
  V  V25  1  0.75097033  0.62432276  0.37619180  1
  V  V26  1  0.25060109  0.12416699  0.87337789  1
  V  V27  1  0.87500472  0.87580128  0.50106077  1
  V  V28  1  0.50434599  0.62474941  0.11697941  1
  V  V29  1  0.50193974  0.25008836  0.24929747  1
  V  V30  1  0.12163697  0.24969053  0.87385938  1
  V  V31  1  0.37438057  0.12474129  0.74900511  1
  V  V32  1  0.12828989  0.38058694  0.74974848  1
  V  V33  1  0.75154776  0.24605669  0.49661296  1
  V  V34  1  0.75090132  0.49958539  0.74973507  1
  V  V35  1  -0.00076828  -0.00134006  -0.00037874  1
  V  V36  1  0.62565016  -0.00050775  0.62518012  1
  V  V37  1  0.12325447  0.62428323  0.00186211  1
  V  V38  1  0.50018070  0.87604977  0.37455283  1
  V  V39  1  0.87376860  0.87535295  0.00098316  1
  V  V40  1  0.50196396  0.25050289  0.74958445  1
  V  V41  1  0.62482811  0.00330024  0.12307204  1
  V  V42  1  0.24981759  -0.00048150  0.24876347  1
  V  V43  1  0.12586244  0.74900855  0.37555163  1
  V  V44  1  0.12341663  0.49611965  0.12889564  1
  V  V45  1  0.37633310  0.74920031  0.62493664  1
  V  V46  1  0.49920682  0.75033722  0.24938369  1
  V  V47  1  0.00480340  0.37680480  0.36886591  1
  V  V48  1  0.37673416  0.49924626  0.37324428  1
  V  V49  1  0.87231941  0.12691701  0.25593775  1
  V  V50  1  0.37376496  0.74883145  0.12442738  1
  V  V51  1  0.62482001  0.87610215  0.24971909  1
  V  V52  1  0.74634599  0.74769456  0.00158924  1
  V  V53  1  0.87418425  0.37327770  -0.00007331  1
  V  V54  1  0.50429118  0.12555833  0.12153890  1
  V  V55  1  0.74973957  0.37617131  0.12613992  1
  V  V56  1  0.62478475  0.37294366  0.75014304  1
  V  V57  1  0.37618941  0.25064835  0.62369758  1
  V  V58  1  -0.00161853  0.62495192  0.12628879  1
  V  V59  1  0.50125304  0.62535199  0.62723789  1
  V  V60  1  0.12431151  -0.00019877  0.12481080  1
  V  V61  1  0.87564740  0.24899183  0.12565870  1
  V  V62  1  0.25052917  0.12570973  0.37439780  1
  V  V63  1  0.74969053  0.87541038  0.62542546  1
  V  V64  1  0.25126965  0.38297338  0.62872641  1
  V  V65  1  0.24952435  0.61527070  0.86928629  1
  V  V66  1  0.37346598  0.87425645  -0.00135601  1
  V  V67  1  0.74503917  0.62356029  0.88006847  1
  V  V68  1  0.87619535  0.24987029  0.62659743  1
  V  V69  1  0.62586380  0.75000079  0.37496714  1
  V  V70  1  0.50348489  0.00408106  -0.00107727  1
  V  V71  1  0.87877814  0.63242208  0.75199258  1
  V  V72  1  0.87410476  0.75015037  0.12635221  1
  V  V73  1  0.37643569  0.87594602  0.49972362  1
  V  V74  1  0.62997500  0.24637423  0.37363189  1
  V  V75  1  0.37509897  0.62413583  0.24993417  1
  V  V76  1  0.50062239  0.37428749  0.37443342  1
  V  V77  1  0.87584295  0.50040646  0.37594322  1
  V  V78  1  0.12636902  0.00125845  0.62511524  1
  V  V79  1  0.74889315  0.87495463  0.12594112  1
  V  V80  1  0.11731656  0.87060942  0.75276199  1
  V  V81  1  0.12529790  0.25507632  0.36822232  1
  V  V82  1  0.37612944  0.12473621  0.24883401  1
  V  V83  1  0.74972095  0.50051944  0.25136786  1
  V  V84  1  0.62749654  0.12532211  0.49867638  1
  V  V85  1  0.87194160  0.00377661  0.37543562  1
  V  V86  1  0.87377263  0.00019980  0.87447365  1
  V  V87  1  0.62497163  0.50346319  0.11799637  1
  V  V88  1  0.62476919  0.24542422  0.88174407  1
  V  V89  1  0.75197262  0.75083424  0.50177156  1
  V  V90  1  0.87395659  0.49826971  0.87619423  1
  V  V91  1  0.37646978  0.37525975  0.49932019  1
  V  V92  1  0.50099329  0.00010538  0.49849916  1
  Zn  Zn93  1  0.50189956  0.49994217  0.49840778  1
  Zn  Zn94  1  0.37511467  -0.00153599  0.87325031  1
  Zn  Zn95  1  0.37736233  0.49306395  0.86833468  1
  Zn  Zn96  1  0.12749057  0.62550072  0.50459598  1
  Zn  Zn97  1  -0.00769615  0.86597076  0.87012503  1
  Zn  Zn98  1  0.24941767  0.25148579  -0.00007752  1
  Zn  Zn99  1  0.74963541  0.00121854  0.75029566  1
  Zn  Zn100  1  0.87561820  0.12458153  0.75150292  1
  Zn  Zn101  1  0.36510435  0.61804458  0.74422432  1
  Zn  Zn102  1  0.49510805  0.74902810  0.75197934  1
  Zn  Zn103  1  0.00321334  0.25270164  0.24826366  1
  Zn  Zn104  1  0.12882375  0.50401237  0.63090566  1
  Zn  Zn105  1  0.25072883  0.62380230  0.37610496  1
  Zn  Zn106  1  0.87909886  0.75455165  0.63050291  1
  Zn  Zn107  1  0.62513900  0.37574089  0.24969477  1
  Zn  Zn108  1  0.25119781  -0.00167270  0.74969139  1
  Zn  Zn109  1  0.37485537  0.38091866  -0.00338519  1
  Zn  Zn110  1  -0.00066594  0.25066652  0.74923525  1
  Zn  Zn111  1  -0.00083173  0.37486276  0.87248913  1
  Zn  Zn112  1  0.12522842  0.87527860  0.24946540  1
  Zn  Zn113  1  0.37588577  0.00072937  0.37398473  1
  Zn  Zn114  1  0.49814441  0.37629340  0.87809857  1
  Zn  Zn115  1  0.87738368  0.37457505  0.50033758  1
  Zn  Zn116  1  0.87440388  0.62660548  0.25146391  1
  Zn  Zn117  1  0.24927529  0.87339208  0.12451369  1
  Zn  Zn118  1  0.11451578  0.74291385  0.86834545  1
  Zn  Zn119  1  0.49758450  0.50020694  -0.00424288  1
  Zn  Zn120  1  0.74476719  0.24563616  0.00397472  1
  Zn  Zn121  1  -0.00010773  0.12639571  0.12645464  1
  Zn  Zn122  1  0.18905141  0.18530829  0.18703719  1
  Zn  Zn123  1  0.18854507  0.19185490  0.68828458  1
  Zn  Zn124  1  0.18696457  0.68428470  0.18831374  1
  Zn  Zn125  1  0.18557651  0.69021858  0.68524846  1
  Zn  Zn126  1  0.68911725  0.18587975  0.18785225  1
  Zn  Zn127  1  0.69033571  0.18452095  0.69150829  1
  Zn  Zn128  1  0.68674035  0.68582486  0.18960688  1
  Zn  Zn129  1  0.68883738  0.68884335  0.69076089  1
  Zn  Zn130  1  0.31405129  0.31272343  0.31030301  1
  Zn  Zn131  1  0.31259052  0.31225904  0.81091238  1
  Zn  Zn132  1  0.31293024  0.81414103  0.31231161  1
  Zn  Zn133  1  0.30894098  0.80762349  0.81086215  1
  Zn  Zn134  1  0.81528721  0.31633332  0.31292661  1
  Zn  Zn135  1  0.80951386  0.31068175  0.81316760  1
  Zn  Zn136  1  0.81317693  0.81455965  0.31365407  1
  Zn  Zn137  1  0.80801175  0.81330199  0.81363437  1
  Zn  Zn138  1  0.18834029  0.43741502  0.43949055  1
  Zn  Zn139  1  0.18672149  0.43473408  0.94236720  1
  Zn  Zn140  1  0.18791323  0.93703580  0.43716665  1
  Zn  Zn141  1  0.18743621  0.93782566  0.93603561  1
  Zn  Zn142  1  0.68830503  0.43434766  0.43838133  1
  Zn  Zn143  1  0.68653281  0.43261610  0.93780703  1
  Zn  Zn144  1  0.68864288  0.93790786  0.43717106  1
  Zn  Zn145  1  0.68613641  0.93522734  0.93746338  1
  Zn  Zn146  1  0.31465993  0.06355855  0.06004658  1
  Zn  Zn147  1  0.31321427  0.06164461  0.56176445  1
  Zn  Zn148  1  0.31412261  0.56116517  0.05948443  1
  Zn  Zn149  1  0.31523125  0.56341680  0.55820475  1
  Zn  Zn150  1  0.81157259  0.06318238  0.06423083  1
  Zn  Zn151  1  0.81264599  0.06346208  0.56255202  1
  Zn  Zn152  1  0.81248352  0.56219480  0.06327939  1
  Zn  Zn153  1  0.81661963  0.56304235  0.56336782  1
  Zn  Zn154  1  0.43788085  0.43763730  0.18687455  1
  Zn  Zn155  1  0.43728924  0.44132658  0.69209596  1
  Zn  Zn156  1  0.43613079  0.93696459  0.18428270  1
  Zn  Zn157  1  0.43794010  0.93782896  0.68861716  1
  Zn  Zn158  1  0.93511419  0.43803352  0.18936583  1
  Zn  Zn159  1  0.94010913  0.43773698  0.68984338  1
  Zn  Zn160  1  0.93806234  0.93798478  0.18867604  1
  Zn  Zn161  1  0.93759962  0.94059274  0.68639127  1
  Zn  Zn162  1  0.05998282  0.06661962  0.31186672  1
  Zn  Zn163  1  0.06038638  0.05972650  0.80957773  1
  Zn  Zn164  1  0.06224416  0.56508578  0.31290296  1
  Zn  Zn165  1  0.06142339  0.56157896  0.81490348  1
  Zn  Zn166  1  0.56381383  0.06410230  0.31079028  1
  Zn  Zn167  1  0.56230221  0.06235506  0.81217037  1
  Zn  Zn168  1  0.56328854  0.56214601  0.30836962  1
  Zn  Zn169  1  0.56133011  0.55962164  0.81092690  1
  Zn  Zn170  1  0.43950256  0.18739073  0.43593039  1
  Zn  Zn171  1  0.43806094  0.18860673  0.93588796  1
  Zn  Zn172  1  0.43855216  0.68657088  0.43811265  1
  Zn  Zn173  1  0.43263217  0.68677263  0.93667412  1
  Zn  Zn174  1  0.93937386  0.18908206  0.43753063  1
  Zn  Zn175  1  0.93693735  0.18452122  0.94013006  1
  Zn  Zn176  1  0.93799681  0.68690462  0.44046584  1
  Zn  Zn177  1  0.93587479  0.68798582  0.93863712  1
  Zn  Zn178  1  0.06173401  0.31284948  0.06109783  1
  Zn  Zn179  1  0.06516648  0.31479659  0.55996257  1
  Zn  Zn180  1  0.06033192  0.81396480  0.06146560  1
  Zn  Zn181  1  0.06374756  0.81334637  0.56288490  1
  Zn  Zn182  1  0.56138769  0.31826519  0.06160938  1
  Zn  Zn183  1  0.56366615  0.31311867  0.56134450  1
  Zn  Zn184  1  0.56100813  0.81459032  0.06150236  1
  Zn  Zn185  1  0.56297887  0.81167402  0.56208171  1
  O  O186  1  0.12466458  0.11570643  0.11891484  1
  O  O187  1  0.12155475  0.12269470  0.61862604  1
  O  O188  1  0.11777221  0.61727596  0.12076573  1
  O  O189  1  0.11542744  0.62160801  0.62599626  1
  O  O190  1  0.61726635  0.11657261  0.13029629  1
  O  O191  1  0.62018326  0.11986155  0.61968225  1
  O  O192  1  0.61524475  0.61683898  0.13182142  1
  O  O193  1  0.62120583  0.62118933  0.62023706  1
  O  O194  1  0.38095887  0.37843747  0.37947425  1
  O  O195  1  0.37741569  0.37239666  0.87797863  1
  O  O196  1  0.38277486  0.87722696  0.38105453  1
  O  O197  1  0.37990327  0.87336891  0.88025934  1
  O  O198  1  0.88607323  0.38163180  0.37940867  1
  O  O199  1  0.87395768  0.38003413  0.88099927  1
  O  O200  1  0.88125259  0.88219148  0.38153619  1
  O  O201  1  0.87048296  0.88440632  0.88189460  1
  O  O202  1  0.24978427  0.00641238  0.36487140  1
  O  O203  1  0.25139947  0.01361028  0.87380883  1
  O  O204  1  0.25589264  0.49911360  0.36636654  1
  O  O205  1  0.24557135  0.51463318  0.88191690  1
  O  O206  1  0.75893963  -0.00635899  0.36634563  1
  O  O207  1  0.75670113  0.00560552  0.87690340  1
  O  O208  1  0.75505944  0.50399955  0.37219676  1
  O  O209  1  0.75237956  0.50670143  0.87108263  1
  O  O210  1  0.24503539  0.49284287  0.13220352  1
  O  O211  1  0.24904720  0.48643191  0.61647831  1
  O  O212  1  0.24211444  1.00175391  0.13248018  1
  O  O213  1  0.24348304  0.99361397  0.62380370  1
  O  O214  1  0.74397835  0.49756661  0.13088972  1
  O  O215  1  0.74685115  0.49486575  0.62953956  1
  O  O216  1  0.74480939  0.99409038  0.13100275  1
  O  O217  1  0.74321677  0.99376988  0.62497108  1
  O  O218  1  -0.00227225  0.37541688  0.26484955  1
  O  O219  1  0.01072727  0.37011056  0.75268343  1
  O  O220  1  0.00194762  0.86941192  0.25751384  1
  O  O221  1  0.01397557  0.88012026  0.74813161  1
  O  O222  1  0.50122861  0.36689110  0.25610697  1
  O  O223  1  0.50887216  0.36608023  0.74769067  1
  O  O224  1  0.50483215  0.87026658  0.25386240  1
  O  O225  1  0.50558682  0.87178075  0.75665657  1
  O  O226  1  0.49506593  0.13037675  0.24276441  1
  O  O227  1  0.49489300  0.12997907  0.74266665  1
  O  O228  1  0.49444367  0.63230428  0.24231373  1
  O  O229  1  0.50459820  0.62836580  0.73394460  1
  O  O230  1  0.98718975  0.12873923  0.24649004  1
  O  O231  1  0.99719313  0.12882511  0.74036320  1
  O  O232  1  0.99763121  0.63252478  0.24370336  1
  O  O233  1  0.98938931  0.61615472  0.74165315  1
  O  O234  1  0.37293037  0.24710436  0.01452248  1
  O  O235  1  0.37088986  0.25502166  0.50390827  1
  O  O236  1  0.36404613  0.75411760  0.00481991  1
  O  O237  1  0.37087426  0.75699522  0.50397262  1
  O  O238  1  0.87446193  0.25401182  0.01110238  1
  O  O239  1  0.86721999  0.24991882  0.50777284  1
  O  O240  1  0.86597284  0.75578396  0.00752172  1
  O  O241  1  0.86879322  0.75855014  0.50110253  1
  O  O242  1  0.13191160  0.24474175  0.49110280  1
  O  O243  1  0.12576614  0.24338326  0.99075347  1
  O  O244  1  0.13147356  0.75127519  0.49090095  1
  O  O245  1  0.13321693  0.74367558  1.00468332  1
  O  O246  1  0.63270453  0.24556226  0.49355934  1
  O  O247  1  0.62508990  0.25435429  0.98576924  1
  O  O248  1  0.63195238  0.74519050  0.49381606  1
  O  O249  1  0.63023653  0.75664379  0.98689359  1
  O  O250  1  0.49415680  0.24582236  0.12962106  1
  O  O251  1  0.49605043  0.24401849  0.62832122  1
  O  O252  1  0.49585300  0.74421651  0.12998221  1
  O  O253  1  0.49525766  0.74172787  0.62444349  1
  O  O254  1  0.98890876  0.25104995  0.12852644  1
  O  O255  1  0.99065432  0.24615045  0.62005030  1
  O  O256  1  0.99414858  0.74545727  0.13005628  1
  O  O257  1  0.99774290  0.73534360  0.61771211  1
  O  O258  1  0.00865245  0.25996106  0.37644882  1
  O  O259  1  0.01132587  0.24912553  0.87475593  1
  O  O260  1  0.00693260  0.75514541  0.37158047  1
  O  O261  1  0.00339410  0.75435145  0.88154485  1
  O  O262  1  0.50872137  0.25458797  0.36944769  1
  O  O263  1  0.50989127  0.24684579  0.86673683  1
  O  O264  1  0.50617384  0.75572690  0.36941397  1
  O  O265  1  0.50762739  0.75254892  0.87544837  1
  O  O266  1  0.24602708  0.13057913  0.49406192  1
  O  O267  1  0.24399999  0.12672545  0.99035474  1
  O  O268  1  0.24787067  0.63405154  0.49652409  1
  O  O269  1  0.24279693  0.63253173  0.99386886  1
  O  O270  1  0.74371841  0.13831237  0.50554617  1
  O  O271  1  0.75315442  0.12620935  0.98718889  1
  O  O272  1  0.74629788  0.63051406  0.49582213  1
  O  O273  1  0.75590658  0.63021494  0.98680651  1
  O  O274  1  0.25303877  0.37129164  0.01447957  1
  O  O275  1  0.25638056  0.36866594  0.50721861  1
  O  O276  1  0.25341415  0.86603649  -0.00005087  1
  O  O277  1  0.25646516  0.87069622  0.50512034  1
  O  O278  1  0.75768457  0.37178052  0.00852630  1
  O  O279  1  0.75202009  0.36318936  0.50705316  1
  O  O280  1  0.75404897  0.86881419  0.00737932  1
  O  O281  1  0.75538305  0.87047565  0.50558638  1
  O  O282  1  0.13736742  0.50672344  0.24557702  1
  O  O283  1  0.12149486  0.48455525  0.75127645  1
  O  O284  1  0.13301285  1.00287233  0.24220729  1
  O  O285  1  0.12822941  0.99142901  0.74211384  1
  O  O286  1  0.63276654  0.49756707  0.24124346  1
  O  O287  1  0.63279023  0.49369985  0.74298696  1
  O  O288  1  0.63028709  0.99480761  0.24473495  1
  O  O289  1  0.62469956  0.99248154  0.74250722  1
  O  O290  1  0.36562461  0.00566622  0.24847171  1
  O  O291  1  0.37276416  0.00884654  0.75237029  1
  O  O292  1  0.36653371  0.50444561  0.25397068  1
  O  O293  1  0.37411951  0.50687659  0.75435690  1
  O  O294  1  0.87100900  0.00767624  0.25465235  1
  O  O295  1  0.87332599  -0.00055511  0.76329550  1
  O  O296  1  0.86768837  0.50326886  0.25784233  1
  O  O297  1  0.86877591  0.50669157  0.75666277  1
  O  O298  1  0.11817790  0.36500984  0.38130452  1
  O  O299  1  0.12764823  0.36490978  0.86887161  1
  O  O300  1  0.11884505  0.86556271  0.37438602  1
  O  O301  1  0.12432134  0.87862623  0.85917431  1
  O  O302  1  0.61962968  0.36302196  0.37457355  1
  O  O303  1  0.62716948  0.36309305  0.86611652  1
  O  O304  1  0.61986678  0.86955249  0.36937709  1
  O  O305  1  0.61927194  0.86635597  0.86977567  1
  O  O306  1  0.38099853  0.13351540  0.12991715  1
  O  O307  1  0.38074760  0.13104010  0.62791372  1
  O  O308  1  0.38304194  0.62994237  0.13112415  1
  O  O309  1  0.38550793  0.63038200  0.62129867  1
  O  O310  1  0.87572238  0.13447023  0.13247753  1
  O  O311  1  0.88107714  0.13431897  0.62466318  1
  O  O312  1  0.88056009  0.63250897  0.12652153  1
  O  O313  1  0.88144521  0.62676013  0.63572981  1
  O  O314  1  0.25798034  0.25696847  0.12821066  1
  O  O315  1  0.25684440  0.25741177  0.61760766  1
  O  O316  1  0.25445439  0.74863545  0.11560097  1
  O  O317  1  0.25602652  0.75558208  0.61750614  1
  O  O318  1  0.75920123  0.25547803  0.12482205  1
  O  O319  1  0.75755728  0.25366675  0.61810457  1
  O  O320  1  0.75266618  0.75477275  0.12165959  1
  O  O321  1  0.75152977  0.75714133  0.61899979  1
  O  O322  1  0.24421422  0.24663910  0.37852723  1
  O  O323  1  0.23923415  0.23951610  0.87556184  1
  O  O324  1  0.24142096  0.75100640  0.37876401  1
  O  O325  1  0.24183439  0.74280449  0.88679038  1
  O  O326  1  0.74220149  0.25751283  0.38518166  1
  O  O327  1  0.74245122  0.24067792  0.87649132  1
  O  O328  1  0.74485498  0.74575728  0.38064643  1
  O  O329  1  0.74224941  0.74253542  0.88106311  1
  O  O330  1  0.00712533  0.11617289  0.00307163  1
  O  O331  1  0.00660391  0.12009667  0.50451891  1
  O  O332  1  0.00311671  0.61777758  0.00777242  1
  O  O333  1  0.00067217  0.61586462  0.50921541  1
  O  O334  1  0.49281757  0.11164186  0.00526303  1
  O  O335  1  0.50655253  0.12041634  0.50517660  1
  O  O336  1  0.49534951  0.62732549  0.01504606  1
  O  O337  1  0.50856167  0.62455439  0.50963696  1
  O  O338  1  0.49399393  0.37561533  0.49317268  1
  O  O339  1  0.49406723  0.37968659  0.99771583  1
  O  O340  1  0.49654644  0.88043423  0.49412548  1
  O  O341  1  0.49249289  0.88179685  0.99451688  1
  O  O342  1  1.00024935  0.38535943  0.49174764  1
  O  O343  1  0.99238925  0.38147523  0.99791439  1
  O  O344  1  0.99499893  0.88203909  0.49579106  1
  O  O345  1  0.99057636  0.88298360  1.00021732  1
  O  O346  1  0.49518860  0.49297362  0.37394479  1
  O  O347  1  0.50076859  0.49704833  0.87875872  1
  O  O348  1  0.50056698  0.99428661  0.38027373  1
  O  O349  1  0.49926115  0.99409806  0.88353597  1
  O  O350  1  0.99787596  0.49550647  0.38198712  1
  O  O351  1  0.99149397  0.49877191  0.88419060  1
  O  O352  1  0.99479508  0.99572760  0.38061386  1
  O  O353  1  0.98873932  0.99728443  0.88098902  1
  O  O354  1  0.00959146  0.00131189  0.12031399  1
  O  O355  1  0.00570469  0.00748647  0.61750429  1
  O  O356  1  0.00346816  0.50390753  0.12211204  1
  O  O357  1  0.00048090  0.50768983  0.61649668  1
  O  O358  1  0.50442779  0.00465318  0.11787795  1
  O  O359  1  0.50604837  0.00539949  0.61791062  1
  O  O360  1  0.50844549  0.50917022  0.12726754  1
  O  O361  1  0.50862653  0.50905408  0.62196357  1
  O  O362  1  0.25602829  0.38610863  0.24047042  1
  O  O363  1  0.24142146  0.36612593  0.73721313  1
  O  O364  1  0.24830952  0.88774912  0.24754606  1
  O  O365  1  0.24129391  0.87726799  0.74314088  1
  O  O366  1  0.75013646  0.38300717  0.24370752  1
  O  O367  1  0.74518789  0.38019937  0.74374797  1
  O  O368  1  0.74419904  0.88060856  0.24446672  1
  O  O369  1  0.74220494  0.87740616  0.74328858  1
  O  O370  1  0.25582221  0.11680027  0.25447660  1
  O  O371  1  0.25522612  0.12528610  0.75742142  1
  O  O372  1  0.25732467  0.61400772  0.25070193  1
  O  O373  1  0.24145565  0.63064141  0.76708908  1
  O  O374  1  0.76348079  0.11756567  0.24506230  1
  O  O375  1  0.75528258  0.12048297  0.76274821  1
  O  O376  1  0.75140541  0.61930393  0.25915778  1
  O  O377  1  0.75782622  0.61913225  0.75921149  1
  O  O378  1  0.36903487  0.12456657  0.36740298  1
  O  O379  1  0.36485561  0.12739693  0.86840280  1
  O  O380  1  0.37541180  0.61842468  0.36806956  1
  O  O381  1  0.35537189  0.62874417  0.87445771  1
  O  O382  1  0.88058951  0.11987341  0.36534502  1
  O  O383  1  0.86771559  0.11524222  0.87560363  1
  O  O384  1  0.86861504  0.61870361  0.37535486  1
  O  O385  1  0.86605616  0.61881329  0.86940622  1
  O  O386  1  0.13586100  0.37938475  0.12225395  1
  O  O387  1  0.13412688  0.37482778  0.63214482  1
  O  O388  1  0.12724660  0.88839922  0.12640610  1
  O  O389  1  0.12950684  0.88059775  0.63263691  1
  O  O390  1  0.63227618  0.38344558  0.12874008  1
  O  O391  1  0.63181950  0.37947989  0.62938136  1
  O  O392  1  0.62934256  0.88092647  0.13136417  1
  O  O393  1  0.62943529  0.87996516  0.62902130  1
  O  O394  1  0.12415019  0.24233237  0.26454231  1
  O  O395  1  0.12324079  0.25803231  0.75889610  1
  O  O396  1  0.12005714  0.75198818  0.25817841  1
  O  O397  1  0.12767115  0.76754764  0.74867181  1
  O  O398  1  0.62177267  0.25014317  0.25876306  1
  O  O399  1  0.62107299  0.25386128  0.75574333  1
  O  O400  1  0.61952257  0.75666488  0.25556893  1
  O  O401  1  0.62451751  0.75634686  0.76258541  1
  O  O402  1  0.38091532  0.24439511  0.24088724  1
  O  O403  1  0.38173556  0.24355395  0.74197666  1
  O  O404  1  0.37962382  0.74565937  0.24462504  1
  O  O405  1  0.37480860  0.74176564  0.74028624  1
  O  O406  1  0.87459934  0.24348021  0.24302411  1
  O  O407  1  0.87539036  0.24928066  0.73690574  1
  O  O408  1  0.88112108  0.75043569  0.24421385  1
  O  O409  1  0.86890646  0.73635501  0.75145191  1
  O  O410  1  0.37812403  0.49253902  0.49081122  1
  O  O411  1  0.37740108  0.49955815  0.99155369  1
  O  O412  1  0.38295973  0.99403504  0.49772569  1
  O  O413  1  0.38434819  0.99259573  0.99857275  1
  O  O414  1  0.88611290  0.49875894  0.49465731  1
  O  O415  1  0.87862474  0.49334688  0.99614758  1
  O  O416  1  0.88050263  0.99614460  0.49527438  1
  O  O417  1  0.87836362  0.99522089  0.99380390  1
  O  O418  1  0.12080172  0.00376444  0.00703204  1
  O  O419  1  0.12006752  0.00578871  0.50431153  1
  O  O420  1  0.11758441  0.50393988  0.00883569  1
  O  O421  1  0.11434344  0.50299124  0.50152017  1
  O  O422  1  0.61108828  -0.00953680  0.00707583  1
  O  O423  1  0.62072006  0.00536743  0.50439017  1
  O  O424  1  0.62682516  0.49674028  0.01554926  1
  O  O425  1  0.62617256  0.50644698  0.50617189  1
  O  O426  1  0.36666574  0.36480415  0.12688895  1
  O  O427  1  0.36953789  0.36965626  0.61997171  1
  O  O428  1  0.37256330  0.86665059  0.11731266  1
  O  O429  1  0.37135962  0.86969488  0.61921898  1
  O  O430  1  0.87004183  0.36734635  0.12159018  1
  O  O431  1  0.87049372  0.36603193  0.62360914  1
  O  O432  1  0.86798262  0.87040815  0.12116188  1
  O  O433  1  0.86956849  0.87506605  0.61943982  1
  O  O434  1  0.13012834  0.13311070  0.38120153  1
  O  O435  1  0.13094973  0.13040406  0.87729898  1
  O  O436  1  0.12573904  0.63928423  0.37795029  1
  O  O437  1  0.13200988  0.62476967  0.88306665  1
  O  O438  1  0.62011696  0.13886179  0.38114322  1
  O  O439  1  0.63391077  0.13366617  0.86823072  1
  O  O440  1  0.63018986  0.63055520  0.38013914  1
  O  O441  1  0.63616093  0.63414616  0.86653095  1
