# generated using pymatgen
data_V93Zn93O256
_symmetry_space_group_name_H-M   'P 1'
_cell_length_a   17.06248963
_cell_length_b   17.06232259
_cell_length_c   17.05772780
_cell_angle_alpha   89.95727029
_cell_angle_beta   90.01687281
_cell_angle_gamma   90.06220852
_symmetry_Int_Tables_number   1
_chemical_formula_structural   V93Zn93O256
_chemical_formula_sum   'V93 Zn93 O256'
_cell_volume   4965.93846174
_cell_formula_units_Z   1
loop_
 _symmetry_equiv_pos_site_id
 _symmetry_equiv_pos_as_xyz
  1  'x, y, z'
loop_
 _atom_site_type_symbol
 _atom_site_label
 _atom_site_symmetry_multiplicity
 _atom_site_fract_x
 _atom_site_fract_y
 _atom_site_fract_z
 _atom_site_occupancy
  V  V0  1  0.37399508  0.00048203  0.37573928  1
  V  V1  1  0.25303741  0.87162314  0.62557452  1
  V  V2  1  0.00109619  0.87420638  0.37361526  1
  V  V3  1  0.12388138  0.37421771  0.24983929  1
  V  V4  1  0.75010822  0.37382138  0.12411539  1
  V  V5  1  0.12542476  0.12548470  -0.00159223  1
  V  V6  1  0.62299978  0.37613617  0.74941839  1
  V  V7  1  0.37597161  0.12545192  0.75026525  1
  V  V8  1  0.74931755  0.12071223  0.87363676  1
  V  V9  1  0.12651867  0.87403422  0.74965461  1
  V  V10  1  0.74980100  0.12747953  0.37417442  1
  V  V11  1  0.62433383  0.87490873  0.74933875  1
  V  V12  1  0.75125360  0.36972829  0.62400247  1
  V  V13  1  0.62532160  0.12684213  0.49991290  1
  V  V14  1  -0.01182080  0.12823782  0.63403694  1
  V  V15  1  0.37798551  0.00044292  0.87863229  1
  V  V16  1  0.25157301  -0.00143460  0.74963159  1
  V  V17  1  0.87555154  0.74963206  0.62450721  1
  V  V18  1  0.37635769  0.87147186  0.50430223  1
  V  V19  1  0.49951277  0.62585362  0.12528203  1
  V  V20  1  0.62120639  0.24940948  0.87585323  1
  V  V21  1  0.50651701  0.75359034  0.24985602  1
  V  V22  1  0.50010260  0.24930591  0.25020950  1
  V  V23  1  0.12351254  0.12518689  0.50203351  1
  V  V24  1  -0.00027018  0.37418639  0.37451363  1
  V  V25  1  0.75025976  0.75003980  0.49887237  1
  V  V26  1  0.00184875  0.87459328  0.87440921  1
  V  V27  1  0.25039851  0.37522784  0.12508436  1
  V  V28  1  0.24908431  0.49688573  0.74911754  1
  V  V29  1  0.49996063  0.37564945  0.87460105  1
  V  V30  1  0.11941315  0.25663482  0.86865272  1
  V  V31  1  0.87351969  0.36875807  0.50330779  1
  V  V32  1  0.24946797  0.62608307  0.37519297  1
  V  V33  1  0.74515645  0.87873887  0.13001802  1
  V  V34  1  0.12413522  0.49893092  0.12388284  1
  V  V35  1  0.24995742  0.74911880  -0.00047469  1
  V  V36  1  0.49986835  0.12543044  0.62516931  1
  V  V37  1  0.50684239  0.87525024  0.37164673  1
  V  V38  1  0.12441781  0.25065984  0.37503869  1
  V  V39  1  0.25093996  0.87501982  0.12523531  1
  V  V40  1  0.49589223  0.75164603  0.74649396  1
  V  V41  1  -0.00044113  0.62440426  0.12426456  1
  V  V42  1  0.50038452  0.87911827  0.87941902  1
  V  V43  1  0.00030130  0.50077243  0.49946389  1
  V  V44  1  0.12602704  0.00017954  0.12440818  1
  V  V45  1  0.37398727  0.24995708  0.62546122  1
  V  V46  1  0.74814376  0.50220082  0.74854167  1
  V  V47  1  0.24991523  0.50072526  0.25040616  1
  V  V48  1  0.37413858  0.25144989  0.12445235  1
  V  V49  1  0.12428651  0.87421591  0.25054558  1
  V  V50  1  0.00158680  -0.00080614  -0.00080656  1
  V  V51  1  0.87416484  0.12503592  0.24704773  1
  V  V52  1  0.37602171  0.75038504  0.12504725  1
  V  V53  1  0.24965616  0.12427083  0.37572826  1
  V  V54  1  0.37446918  0.37438937  0.50104885  1
  V  V55  1  0.62530288  0.62482542  -0.00162172  1
  V  V56  1  0.62386252  0.62600837  0.49842079  1
  V  V57  1  0.87703455  0.87523880  -0.00160431  1
  V  V58  1  0.61894362  0.11384196  0.00354955  1
  V  V59  1  0.75055493  0.74913430  -0.00152657  1
  V  V60  1  0.74923471  0.62634607  0.87434653  1
  V  V61  1  0.25089271  0.12507375  0.87494600  1
  V  V62  1  0.74978601  0.62450975  0.37382727  1
  V  V63  1  0.25203232  0.74954965  0.50140107  1
  V  V64  1  0.00004633  0.12427796  0.12290264  1
  V  V65  1  0.24987165  0.24987045  0.50076582  1
  V  V66  1  0.87564964  0.87448389  0.49881351  1
  V  V67  1  0.87794104  0.49483528  0.87398542  1
  V  V68  1  0.74936224  0.87569982  0.62503887  1
  V  V69  1  0.75437910  0.00159657  0.75118241  1
  V  V70  1  0.49755378  0.62791941  0.62318615  1
  V  V71  1  0.12618419  0.62524395  -0.00143352  1
  V  V72  1  -0.00042782  0.49251714  -0.00514007  1
  V  V73  1  0.50013869  0.00021293  0.50024489  1
  V  V74  1  0.87734872  0.74882608  0.12580986  1
  V  V75  1  0.37479198  0.37639364  0.00073872  1
  V  V76  1  0.62530896  0.49969820  0.12487572  1
  V  V77  1  0.24967337  0.00012521  0.25127757  1
  V  V78  1  0.49758809  0.11874737  0.12182029  1
  V  V79  1  0.75033903  0.50008592  0.24903381  1
  V  V80  1  0.74693049  0.24914595  0.00187625  1
  V  V81  1  0.87431721  0.62719358  0.74865878  1
  V  V82  1  0.87407072  0.49951286  0.37399861  1
  V  V83  1  0.00033359  0.75082828  0.74903579  1
  V  V84  1  0.12444423  0.49935801  0.62367291  1
  V  V85  1  0.37382277  0.62816058  0.74568391  1
  V  V86  1  0.37483799  0.50115723  0.87402858  1
  V  V87  1  0.00077856  0.00083114  0.50033524  1
  V  V88  1  0.87509469  0.00032304  0.37426380  1
  V  V89  1  0.49946935  0.50105364  0.00045386  1
  V  V90  1  0.37761806  0.87850312  0.00013601  1
  V  V91  1  0.37448720  0.49975622  0.37538879  1
  V  V92  1  0.50086633  0.37556769  0.37545545  1
  Zn  Zn93  1  0.25001558  0.25113147  -0.00123007  1
  Zn  Zn94  1  0.74062245  -0.00476607  0.25389757  1
  Zn  Zn95  1  0.00061425  0.62673382  0.62272158  1
  Zn  Zn96  1  0.00251597  0.74718651  0.25184796  1
  Zn  Zn97  1  0.61262850  -0.00983372  0.13118430  1
  Zn  Zn98  1  0.87695334  0.62403619  0.25030059  1
  Zn  Zn99  1  0.62392333  0.49969742  0.62404494  1
  Zn  Zn100  1  0.37371082  0.12474523  0.24911776  1
  Zn  Zn101  1  0.87681634  0.37305193  -0.00287701  1
  Zn  Zn102  1  0.62583296  0.37480735  0.25177644  1
  Zn  Zn103  1  0.62542630  0.00090700  0.62571246  1
  Zn  Zn104  1  0.12410727  0.74984509  0.37382183  1
  Zn  Zn105  1  -0.00013732  0.25002506  0.24668758  1
  Zn  Zn106  1  0.87745781  0.24887669  0.12012888  1
  Zn  Zn107  1  0.62432657  0.75004817  0.87435666  1
  Zn  Zn108  1  0.12299710  0.62702892  0.49978082  1
  Zn  Zn109  1  0.62668529  0.25203977  0.37540172  1
  Zn  Zn110  1  0.12674141  0.74827958  0.87377290  1
  Zn  Zn111  1  0.10913495  0.37881017  0.75470784  1
  Zn  Zn112  1  0.49917242  0.50061524  0.50081277  1
  Zn  Zn113  1  0.87960076  0.00180248  0.87147376  1
  Zn  Zn114  1  0.96522097  0.26757852  0.73154866  1
  Zn  Zn115  1  0.12444340  0.00168700  0.62601115  1
  Zn  Zn116  1  0.24926893  0.62679052  0.87379473  1
  Zn  Zn117  1  0.75332921  0.24668947  0.50560037  1
  Zn  Zn118  1  0.24833687  0.37310819  0.62596103  1
  Zn  Zn119  1  0.37582157  0.62609752  0.25016958  1
  Zn  Zn120  1  0.62954692  0.75486101  0.36880910  1
  Zn  Zn121  1  0.49856767  0.25115696  0.74979428  1
  Zn  Zn122  1  0.18766595  0.18784758  0.18798259  1
  Zn  Zn123  1  0.18471548  0.18574871  0.68724875  1
  Zn  Zn124  1  0.18676655  0.68764748  0.18717232  1
  Zn  Zn125  1  0.18690597  0.68704924  0.68538296  1
  Zn  Zn126  1  0.68360505  0.18471214  0.18815647  1
  Zn  Zn127  1  0.68700189  0.18807729  0.69019832  1
  Zn  Zn128  1  0.68880791  0.68726132  0.18573875  1
  Zn  Zn129  1  0.68489351  0.68939603  0.68641070  1
  Zn  Zn130  1  0.31276817  0.31219382  0.31253406  1
  Zn  Zn131  1  0.31017623  0.31141096  0.81367632  1
  Zn  Zn132  1  0.31616165  0.81250903  0.31286988  1
  Zn  Zn133  1  0.31365817  0.81157696  0.81460057  1
  Zn  Zn134  1  0.81438134  0.31109976  0.31168671  1
  Zn  Zn135  1  0.80396106  0.31422689  0.80956511  1
  Zn  Zn136  1  0.81508438  0.81044776  0.31134760  1
  Zn  Zn137  1  0.81367889  0.81425629  0.81253225  1
  Zn  Zn138  1  0.18748962  0.43689457  0.43835141  1
  Zn  Zn139  1  0.18913541  0.43868641  0.93699165  1
  Zn  Zn140  1  0.18558650  0.93795724  0.43793530  1
  Zn  Zn141  1  0.18929605  0.93653502  0.93638501  1
  Zn  Zn142  1  0.68695576  0.43941395  0.43867271  1
  Zn  Zn143  1  0.68772950  0.43877513  0.93598604  1
  Zn  Zn144  1  0.68828688  0.94115230  0.43890658  1
  Zn  Zn145  1  0.68639174  0.93489307  0.93953257  1
  Zn  Zn146  1  0.31298783  0.06269766  0.06116801  1
  Zn  Zn147  1  0.31236683  0.06119985  0.56295525  1
  Zn  Zn148  1  0.31245959  0.56363766  0.06300804  1
  Zn  Zn149  1  0.31293617  0.56145686  0.56242321  1
  Zn  Zn150  1  0.81403328  0.06204128  0.05740640  1
  Zn  Zn151  1  0.81254250  0.06037674  0.56272574  1
  Zn  Zn152  1  0.81361502  0.56224829  0.06042516  1
  Zn  Zn153  1  0.81197669  0.55982883  0.56225416  1
  Zn  Zn154  1  0.43667158  0.43818125  0.18934907  1
  Zn  Zn155  1  0.43758119  0.43956868  0.68581425  1
  Zn  Zn156  1  0.43431697  0.93633410  0.19124813  1
  Zn  Zn157  1  0.43764919  0.93998566  0.68805422  1
  Zn  Zn158  1  0.93661665  0.43707855  0.18583906  1
  Zn  Zn159  1  0.93585836  0.44204632  0.68519187  1
  Zn  Zn160  1  0.93602319  0.93808106  0.18807173  1
  Zn  Zn161  1  0.93831376  0.93888004  0.68593242  1
  Zn  Zn162  1  0.06209637  0.06232880  0.31207830  1
  Zn  Zn163  1  0.06534165  0.06235866  0.81230596  1
  Zn  Zn164  1  0.06237613  0.56205434  0.31175805  1
  Zn  Zn165  1  0.06181254  0.56514674  0.81203170  1
  Zn  Zn166  1  0.56347124  0.06074474  0.30948936  1
  Zn  Zn167  1  0.56491521  0.06131790  0.81085105  1
  Zn  Zn168  1  0.56346350  0.56370530  0.31072388  1
  Zn  Zn169  1  0.56248547  0.56258315  0.81217917  1
  Zn  Zn170  1  0.43631256  0.18778700  0.43776448  1
  Zn  Zn171  1  0.43650601  0.18886953  0.93896467  1
  Zn  Zn172  1  0.43636568  0.69010704  0.43512300  1
  Zn  Zn173  1  0.43664141  0.68988952  0.93509448  1
  Zn  Zn174  1  0.93979041  0.18706699  0.43861399  1
  Zn  Zn175  1  0.91455889  0.21056260  0.89774963  1
  Zn  Zn176  1  0.93787317  0.68670433  0.43659664  1
  Zn  Zn177  1  0.93902686  0.68525500  0.93628479  1
  Zn  Zn178  1  0.06427695  0.30853128  0.05941994  1
  Zn  Zn179  1  0.06107554  0.31256328  0.56569197  1
  Zn  Zn180  1  0.06422480  0.81200404  0.06221774  1
  Zn  Zn181  1  0.06539312  0.81311968  0.56220997  1
  Zn  Zn182  1  0.56232516  0.31096079  0.06287406  1
  Zn  Zn183  1  0.56292075  0.31100556  0.56335750  1
  Zn  Zn184  1  0.56344779  0.80922729  0.06039383  1
  Zn  Zn185  1  0.56383559  0.81122048  0.56242531  1
  O  O186  1  0.12136656  0.11891031  0.12029621  1
  O  O187  1  0.11749522  0.12177931  0.61743571  1
  O  O188  1  0.12030874  0.61759620  0.11891463  1
  O  O189  1  0.12439617  0.61237968  0.62166074  1
  O  O190  1  0.61322761  0.12640683  0.11724194  1
  O  O191  1  0.62005385  0.12544845  0.61540315  1
  O  O192  1  0.61969872  0.61922058  0.11800477  1
  O  O193  1  0.61634783  0.62535699  0.61564828  1
  O  O194  1  0.38277810  0.37909041  0.38031651  1
  O  O195  1  0.37980166  0.38156215  0.88026737  1
  O  O196  1  0.38336083  0.88047769  0.38531119  1
  O  O197  1  0.38259474  0.88016864  0.87945522  1
  O  O198  1  0.87907920  0.38068742  0.38148701  1
  O  O199  1  0.86314798  0.39313650  0.87798238  1
  O  O200  1  0.87986273  0.88029487  0.37930162  1
  O  O201  1  0.88301659  0.87653596  0.88171144  1
  O  O202  1  0.25425362  0.00467401  0.37124323  1
  O  O203  1  0.25744692  0.00443631  0.86852121  1
  O  O204  1  0.25433869  0.50736244  0.37100164  1
  O  O205  1  0.25614914  0.50374249  0.86527994  1
  O  O206  1  0.75644231  0.01090196  0.37527556  1
  O  O207  1  0.74539001  0.00470213  0.86748222  1
  O  O208  1  0.75429811  0.50447570  0.36893088  1
  O  O209  1  0.75626627  0.50786850  0.86940482  1
  O  O210  1  0.24427665  0.49524042  0.13049290  1
  O  O211  1  0.24262621  0.49959397  0.63236323  1
  O  O212  1  0.24564186  0.99449240  0.13089537  1
  O  O213  1  0.25038618  0.98841314  0.63046967  1
  O  O214  1  0.74574064  0.49238718  0.12741073  1
  O  O215  1  0.74666770  0.49083784  0.63094129  1
  O  O216  1  0.75521522  0.98253837  0.12236745  1
  O  O217  1  0.74851571  0.99401598  0.63325618  1
  O  O218  1  0.00576246  0.37407982  0.25557543  1
  O  O219  1  -0.00211902  0.37280833  0.74434233  1
  O  O220  1  0.00612391  0.87526127  0.25591893  1
  O  O221  1  0.00600621  0.87085191  0.75367962  1
  O  O222  1  0.49993222  0.36715551  0.25854251  1
  O  O223  1  0.50499687  0.37592289  0.75677626  1
  O  O224  1  0.49394777  0.86680821  0.26123608  1
  O  O225  1  0.50208189  0.86775183  0.75457678  1
  O  O226  1  0.49634141  0.13538022  0.24289549  1
  O  O227  1  0.49414771  0.12592902  0.74373156  1
  O  O228  1  0.49745853  0.63402466  0.24398707  1
  O  O229  1  0.49424342  0.63168802  0.74345377  1
  O  O230  1  0.99061034  0.12358017  0.24270826  1
  O  O231  1  1.00197283  0.11769702  0.73424702  1
  O  O232  1  0.99811926  0.62562817  0.24037299  1
  O  O233  1  0.99203681  0.63284226  0.74721985  1
  O  O234  1  0.37288052  0.25908947  0.00659918  1
  O  O235  1  0.36896193  0.25421408  0.50559726  1
  O  O236  1  0.37048170  0.75670945  0.00575723  1
  O  O237  1  0.36502285  0.76169161  0.49478415  1
  O  O238  1  0.85775571  0.25322846  -0.00455683  1
  O  O239  1  0.87316171  0.26514405  0.49358516  1
  O  O240  1  0.87135549  0.75378970  0.00788314  1
  O  O241  1  0.86917461  0.75547548  0.50442669  1
  O  O242  1  0.13046733  0.24604055  0.49434324  1
  O  O243  1  0.13053763  0.24330362  0.99060363  1
  O  O244  1  0.13916297  0.74938000  0.49641290  1
  O  O245  1  0.13240090  0.74279440  1.00065782  1
  O  O246  1  0.62681104  0.23728434  0.49714292  1
  O  O247  1  0.63134883  0.24260221  0.99609563  1
  O  O248  1  0.63141247  0.73995216  0.49820466  1
  O  O249  1  0.63223613  0.74129960  0.99723071  1
  O  O250  1  0.49424451  0.24493213  0.13313903  1
  O  O251  1  0.49207718  0.24297244  0.62633835  1
  O  O252  1  0.49581670  0.74667168  0.13143135  1
  O  O253  1  0.50295763  0.74057475  0.63542887  1
  O  O254  1  0.99707212  0.24084521  0.12494904  1
  O  O255  1  1.00324544  0.23408146  0.62655944  1
  O  O256  1  0.99077230  0.74423638  0.12294863  1
  O  O257  1  0.99348077  0.75020171  0.62977835  1
  O  O258  1  0.00728282  0.25671883  0.37329034  1
  O  O259  1  0.02132690  0.24282696  0.87976048  1
  O  O260  1  0.00228373  0.75787537  0.37294198  1
  O  O261  1  0.00116459  0.75666534  0.86735617  1
  O  O262  1  0.49786474  0.25841973  0.36678816  1
  O  O263  1  0.50452160  0.25823151  0.87461479  1
  O  O264  1  0.50066299  0.75843670  0.36666896  1
  O  O265  1  0.50005903  0.75991627  0.86362570  1
  O  O266  1  0.24446366  0.12969847  0.49513116  1
  O  O267  1  0.24278855  0.12501228  0.99327763  1
  O  O268  1  0.25250703  0.63419794  0.49318066  1
  O  O269  1  0.24404480  0.63065528  0.99969849  1
  O  O270  1  0.74366277  0.12539528  0.49298030  1
  O  O271  1  0.73711571  0.13129541  0.99844883  1
  O  O272  1  0.74248624  0.62951998  0.49497095  1
  O  O273  1  0.74475023  0.62926541  0.99474736  1
  O  O274  1  0.25785217  0.37724732  0.00820728  1
  O  O275  1  0.25721690  0.36748741  0.50002723  1
  O  O276  1  0.25618273  0.86933882  0.00655358  1
  O  O277  1  0.25721112  0.86979556  0.50520522  1
  O  O278  1  0.74581269  0.36638525  0.00810492  1
  O  O279  1  0.75560932  0.37428903  0.50665497  1
  O  O280  1  0.75724497  0.86823450  0.00686127  1
  O  O281  1  0.75560200  0.87061186  0.50398548  1
  O  O282  1  0.13038358  0.49365674  0.24372820  1
  O  O283  1  0.13295801  0.50113920  0.74349528  1
  O  O284  1  0.13083789  0.99469879  0.24418490  1
  O  O285  1  0.13518795  0.99137263  0.74914235  1
  O  O286  1  0.63188864  0.49822397  0.24220874  1
  O  O287  1  0.63112463  0.49425959  0.74939365  1
  O  O288  1  0.62972665  1.00421751  0.24187594  1
  O  O289  1  0.63407853  0.99216146  0.74670078  1
  O  O290  1  0.36648758  0.00127390  0.25849607  1
  O  O291  1  0.37018051  0.00566752  0.75711487  1
  O  O292  1  0.36720374  0.50179000  0.25701339  1
  O  O293  1  0.36825861  0.50857804  0.75341485  1
  O  O294  1  0.87057437  0.01041001  0.25528402  1
  O  O295  1  0.85868469  -0.00742585  0.75294181  1
  O  O296  1  0.86789775  0.50038507  0.25579026  1
  O  O297  1  0.86817069  0.50787149  0.75626367  1
  O  O298  1  0.11960677  0.37072451  0.36965648  1
  O  O299  1  0.13215066  0.36047782  0.87507849  1
  O  O300  1  0.11894038  0.87527095  0.36805228  1
  O  O301  1  0.12003150  0.87215700  0.86769986  1
  O  O302  1  0.61380231  0.37346036  0.37492654  1
  O  O303  1  0.61971820  0.37041317  0.87024946  1
  O  O304  1  0.61059960  0.87414393  0.38443327  1
  O  O305  1  0.61536317  0.87320965  0.86979472  1
  O  O306  1  0.38168003  0.13256563  0.12484316  1
  O  O307  1  0.37986859  0.12965452  0.62971106  1
  O  O308  1  0.38244148  0.63206420  0.12569503  1
  O  O309  1  0.38442820  0.62053828  0.63530983  1
  O  O310  1  0.87905129  0.12429465  0.13196480  1
  O  O311  1  0.88911694  0.12201296  0.61947158  1
  O  O312  1  0.87956426  0.63436514  0.12347890  1
  O  O313  1  0.87421223  0.63178635  0.63060026  1
  O  O314  1  0.25635908  0.25762840  0.12476771  1
  O  O315  1  0.25566247  0.25080937  0.61859129  1
  O  O316  1  0.25642002  0.75587860  0.12036997  1
  O  O317  1  0.24755982  0.76116696  0.61538042  1
  O  O318  1  0.74788972  0.25618587  0.11697831  1
  O  O319  1  0.74682632  0.26498642  0.62643845  1
  O  O320  1  0.75846345  0.75717028  0.11927846  1
  O  O321  1  0.75560496  0.75602032  0.61900710  1
  O  O322  1  0.24481134  0.24438480  0.38044123  1
  O  O323  1  0.24348808  0.24178652  0.87757870  1
  O  O324  1  0.25105866  0.74232225  0.38221671  1
  O  O325  1  0.24893189  0.74728623  0.88370701  1
  O  O326  1  0.74868183  0.23758396  0.37685236  1
  O  O327  1  0.73868219  0.24080698  0.88467059  1
  O  O328  1  0.74914065  0.74452950  0.38021459  1
  O  O329  1  0.74978594  0.74401534  0.88073408  1
  O  O330  1  0.00976126  0.11471245  0.00775050  1
  O  O331  1  0.00485814  0.11960834  0.50651379  1
  O  O332  1  0.00615483  0.61600394  0.00544712  1
  O  O333  1  0.00260047  0.61659771  0.50070464  1
  O  O334  1  0.50800092  0.13259927  0.01066935  1
  O  O335  1  0.50695572  0.12032387  0.50326602  1
  O  O336  1  0.50439702  0.62074131  0.00460788  1
  O  O337  1  0.50555276  0.62931703  0.50683372  1
  O  O338  1  0.49471437  0.37481426  0.49010870  1
  O  O339  1  0.49500837  0.38183813  0.99553562  1
  O  O340  1  0.49255690  0.87778923  0.49526374  1
  O  O341  1  0.49450132  0.86676700  0.98718441  1
  O  O342  1  0.99207614  0.38023674  0.49555842  1
  O  O343  1  0.99763535  0.38881382  1.00566015  1
  O  O344  1  0.99497454  0.88015919  0.49461464  1
  O  O345  1  0.99768082  0.87970633  0.99465974  1
  O  O346  1  0.49424933  0.49058409  0.37376653  1
  O  O347  1  0.49462739  0.49536992  0.88088100  1
  O  O348  1  0.49456858  0.99320079  0.38028184  1
  O  O349  1  0.49425400  0.98617158  0.86672175  1
  O  O350  1  0.99510940  0.49344999  0.37969611  1
  O  O351  1  0.98964544  0.50684797  0.88371928  1
  O  O352  1  0.99396481  0.99503706  0.38039013  1
  O  O353  1  1.00032464  0.99334051  0.88064526  1
  O  O354  1  0.00716725  0.00354991  0.11990835  1
  O  O355  1  0.00164962  0.00833011  0.61748007  1
  O  O356  1  0.00438767  0.50474099  0.11600866  1
  O  O357  1  0.00865078  0.50347956  0.61734007  1
  O  O358  1  0.49447486  0.01483052  0.13135552  1
  O  O359  1  0.50152131  0.00700569  0.61767429  1
  O  O360  1  0.50456551  0.50517684  0.12016688  1
  O  O361  1  0.50290163  0.51412885  0.62266645  1
  O  O362  1  0.24419350  0.38105686  0.24557504  1
  O  O363  1  0.25141946  0.39017895  0.74846269  1
  O  O364  1  0.24608530  0.88028924  0.24497860  1
  O  O365  1  0.24919756  0.87693436  0.74213657  1
  O  O366  1  0.74844558  0.37873722  0.24055046  1
  O  O367  1  0.74298310  0.38199149  0.74225672  1
  O  O368  1  0.75588634  0.87312556  0.23340416  1
  O  O369  1  0.74350524  0.88040395  0.74549089  1
  O  O370  1  0.25076047  0.11828069  0.25745270  1
  O  O371  1  0.25684464  0.11795573  0.75440351  1
  O  O372  1  0.25152385  0.61994492  0.25886965  1
  O  O373  1  0.25917897  0.61760017  0.74793230  1
  O  O374  1  0.75782678  0.12521980  0.25774010  1
  O  O375  1  0.73851529  0.11418754  0.76247957  1
  O  O376  1  0.75146515  0.61861400  0.25548460  1
  O  O377  1  0.75388024  0.62227197  0.75392343  1
  O  O378  1  0.36771129  0.11793275  0.37541618  1
  O  O379  1  0.37156212  0.12037734  0.87082935  1
  O  O380  1  0.36458502  0.61969893  0.37465950  1
  O  O381  1  0.37624398  0.61874499  0.86284401  1
  O  O382  1  0.86865095  0.12087872  0.36858501  1
  O  O383  1  0.85099325  0.11404061  0.89309574  1
  O  O384  1  0.86739488  0.61740539  0.37410633  1
  O  O385  1  0.86835468  0.61776817  0.86881487  1
  O  O386  1  0.13018281  0.37986548  0.12952709  1
  O  O387  1  0.12760882  0.38803638  0.62728291  1
  O  O388  1  0.13161085  0.88116646  0.12969673  1
  O  O389  1  0.13668712  0.87810414  0.63008466  1
  O  O390  1  0.63438149  0.38058956  0.12561967  1
  O  O391  1  0.63160192  0.37802295  0.62935291  1
  O  O392  1  0.64145692  0.87351874  0.11624151  1
  O  O393  1  0.63174047  0.87609474  0.63005263  1
  O  O394  1  0.12380843  0.25671849  0.25695798  1
  O  O395  1  0.13005473  0.25224722  0.76382885  1
  O  O396  1  0.12331422  0.75901091  0.25116535  1
  O  O397  1  0.11914028  0.75613394  0.74937143  1
  O  O398  1  0.61170526  0.25195639  0.25246503  1
  O  O399  1  0.62217683  0.25763000  0.75834079  1
  O  O400  1  0.61109976  0.74670660  0.24921510  1
  O  O401  1  0.61370885  0.75571078  0.75203574  1
  O  O402  1  0.38426973  0.24980710  0.24401594  1
  O  O403  1  0.37519611  0.24318335  0.74404325  1
  O  O404  1  0.38568344  0.74915791  0.24307650  1
  O  O405  1  0.38432294  0.73973651  0.75422187  1
  O  O406  1  0.87727984  0.23637341  0.24739530  1
  O  O407  1  0.87848889  0.23709918  0.79092949  1
  O  O408  1  0.87829041  0.74709762  0.23643363  1
  O  O409  1  0.87990488  0.74680493  0.74347453  1
  O  O410  1  0.37704125  0.49335751  0.49312915  1
  O  O411  1  0.38073632  0.49639360  0.99485786  1
  O  O412  1  0.37997100  0.99104707  0.49499262  1
  O  O413  1  0.36976072  0.99107745  0.99129860  1
  O  O414  1  0.87949710  0.49109973  0.49324268  1
  O  O415  1  0.88324884  0.50091806  0.99134108  1
  O  O416  1  0.88008101  0.99294915  0.49325296  1
  O  O417  1  0.88434940  0.99102699  0.99929797  1
  O  O418  1  0.12207963  0.00382582  0.00554840  1
  O  O419  1  0.11825898  0.00683017  0.50078086  1
  O  O420  1  0.11785131  0.50415763  0.00377386  1
  O  O421  1  0.11996773  0.50016839  0.50784121  1
  O  O422  1  0.62801450  0.01079185  0.00750102  1
  O  O423  1  0.61935919  0.01181153  0.50174643  1
  O  O424  1  0.61879194  0.50534478  0.00489680  1
  O  O425  1  0.62156704  0.51489537  0.50033918  1
  O  O426  1  0.37036231  0.37172765  0.12029772  1
  O  O427  1  0.37438124  0.36893011  0.61857085  1
  O  O428  1  0.37039466  0.87027899  0.11972792  1
  O  O429  1  0.36704425  0.88026385  0.61384714  1
  O  O430  1  0.86143783  0.37213336  0.12103539  1
  O  O431  1  0.86371357  0.38274375  0.61351684  1
  O  O432  1  0.86923424  0.86568539  0.11851366  1
  O  O433  1  0.86934894  0.86941717  0.61816042  1
  O  O434  1  0.12949165  0.13042907  0.38089964  1
  O  O435  1  0.13296733  0.13130977  0.87889769  1
  O  O436  1  0.13877840  0.62472528  0.37727215  1
  O  O437  1  0.12793696  0.62759687  0.88329592  1
  O  O438  1  0.63318508  0.12485280  0.38349024  1
  O  O439  1  0.62801519  0.12761353  0.88539887  1
  O  O440  1  0.63000814  0.62781217  0.38348556  1
  O  O441  1  0.63088603  0.62594615  0.88092613  1
