# generated using pymatgen
data_V93Zn93O256
_symmetry_space_group_name_H-M   'P 1'
_cell_length_a   17.04874857
_cell_length_b   17.04666607
_cell_length_c   17.04830960
_cell_angle_alpha   89.93321665
_cell_angle_beta   89.92314455
_cell_angle_gamma   90.03937204
_symmetry_Int_Tables_number   1
_chemical_formula_structural   V93Zn93O256
_chemical_formula_sum   'V93 Zn93 O256'
_cell_volume   4954.64444803
_cell_formula_units_Z   1
loop_
 _symmetry_equiv_pos_site_id
 _symmetry_equiv_pos_as_xyz
  1  'x, y, z'
loop_
 _atom_site_type_symbol
 _atom_site_label
 _atom_site_symmetry_multiplicity
 _atom_site_fract_x
 _atom_site_fract_y
 _atom_site_fract_z
 _atom_site_occupancy
  V  V0  1  0.62443758  -0.00170050  0.62725139  1
  V  V1  1  0.75025260  0.49971700  0.75009097  1
  V  V2  1  0.75524055  0.87088495  0.12479475  1
  V  V3  1  0.37441591  0.24911777  0.62752658  1
  V  V4  1  0.62499313  0.49941709  0.12432319  1
  V  V5  1  0.12623950  0.50183910  0.12295995  1
  V  V6  1  0.50010637  0.25213843  0.25551422  1
  V  V7  1  0.25447528  0.50458959  0.74855244  1
  V  V8  1  0.62136210  0.37488096  0.25531732  1
  V  V9  1  0.62409179  0.49958504  0.62394293  1
  V  V10  1  0.74995507  0.25086911  0.50047743  1
  V  V11  1  0.00013295  0.37541507  0.87326994  1
  V  V12  1  0.74883079  0.12271753  0.87687617  1
  V  V13  1  0.87525860  0.25061464  0.12542408  1
  V  V14  1  0.25225295  0.62454477  0.87254151  1
  V  V15  1  0.50032065  -0.00137264  0.50279799  1
  V  V16  1  0.37454612  0.25118074  0.12647992  1
  V  V17  1  0.12418732  0.37540725  0.74959185  1
  V  V18  1  0.49908462  0.87450370  0.37683140  1
  V  V19  1  0.87479105  0.62970778  0.24239061  1
  V  V20  1  0.12521705  0.87450885  0.74881241  1
  V  V21  1  0.87633504  0.12749279  0.24890051  1
  V  V22  1  0.00181859  0.87560327  0.37318151  1
  V  V23  1  0.24916948  0.87372127  0.62525592  1
  V  V24  1  0.74817169  -0.00215829  0.75148339  1
  V  V25  1  0.38250769  0.37514525  0.49641120  1
  V  V26  1  0.87542791  0.37611527  -0.00130913  1
  V  V27  1  0.87304756  0.75132526  0.62188522  1
  V  V28  1  0.49648091  0.87237739  0.88052692  1
  V  V29  1  0.74919436  0.62438250  0.87424550  1
  V  V30  1  0.87416470  0.12479475  0.75040494  1
  V  V31  1  0.37532375  0.87396618  0.50130180  1
  V  V32  1  0.62470606  0.12425624  0.50237087  1
  V  V33  1  0.12470963  0.37698064  0.24834618  1
  V  V34  1  0.75545634  0.74958110  0.00254297  1
  V  V35  1  0.49898128  0.75065524  0.25033137  1
  V  V36  1  0.24324838  0.62562348  0.37714732  1
  V  V37  1  -0.00185220  0.63068483  0.12104606  1
  V  V38  1  0.62412096  0.74794531  0.87538841  1
  V  V39  1  0.25581069  0.87581241  0.12187824  1
  V  V40  1  0.49801915  0.62209114  0.62676412  1
  V  V41  1  0.37583524  0.12501983  0.75199794  1
  V  V42  1  0.24964051  0.50148978  0.24806124  1
  V  V43  1  0.62440602  0.12435232  0.00247603  1
  V  V44  1  0.00410639  0.62505702  0.61506325  1
  V  V45  1  0.24762298  -0.00161752  0.25265512  1
  V  V46  1  -0.00110550  0.75314365  0.24184191  1
  V  V47  1  0.12564584  0.74945575  0.87349056  1
  V  V48  1  0.25014718  0.37584485  0.62433917  1
  V  V49  1  0.62485308  -0.00005290  0.12658695  1
  V  V50  1  0.12536536  0.24728550  0.88040069  1
  V  V51  1  0.62317163  0.24926777  0.87578072  1
  V  V52  1  0.62379934  0.87406282  0.75117963  1
  V  V53  1  0.37323027  0.12458301  0.25567467  1
  V  V54  1  0.00036859  0.74926743  0.74884981  1
  V  V55  1  0.37356789  0.74293456  0.62994552  1
  V  V56  1  0.62233056  0.25300914  0.37671917  1
  V  V57  1  0.24584848  0.12525590  0.88309259  1
  V  V58  1  0.12544035  0.62629017  -0.00214083  1
  V  V59  1  0.74913033  0.37536253  0.12476587  1
  V  V60  1  0.37367528  0.37303247  0.00016874  1
  V  V61  1  0.00118649  0.00148014  0.49998087  1
  V  V62  1  0.37450829  0.62616149  0.24927700  1
  V  V63  1  0.24938665  -0.00190042  0.75093821  1
  V  V64  1  0.74979074  0.12527569  0.37596707  1
  V  V65  1  0.25702624  0.75455097  -0.00044109  1
  V  V66  1  0.87406956  -0.00248727  0.87704201  1
  V  V67  1  0.12562593  0.50372785  0.61687864  1
  V  V68  1  0.50032838  0.62463895  0.12418431  1
  V  V69  1  0.74991565  0.00051354  0.25051151  1
  V  V70  1  0.62507223  0.37227598  0.75162553  1
  V  V71  1  -0.00022294  0.12609320  0.62621105  1
  V  V72  1  0.38162567  0.49744561  0.37438347  1
  V  V73  1  0.00585571  0.00722308  0.00227901  1
  V  V74  1  0.24848843  0.24838974  0.49825673  1
  V  V75  1  0.74945117  0.24952121  0.00079732  1
  V  V76  1  -0.00090759  0.87489428  0.87526334  1
  V  V77  1  0.75130859  0.62674094  0.37451863  1
  V  V78  1  0.62487933  0.74928102  0.37629393  1
  V  V79  1  0.00091777  0.50142732  -0.00340984  1
  V  V80  1  0.49687890  0.74638703  0.75086680  1
  V  V81  1  0.50006461  0.12406821  0.12784365  1
  V  V82  1  0.00054134  0.37694128  0.37447929  1
  V  V83  1  0.75053158  0.37530891  0.62419000  1
  V  V84  1  0.87534690  0.00139581  0.37476953  1
  V  V85  1  0.37575732  0.50085926  0.87194459  1
  V  V86  1  0.87469302  0.62389005  0.74850885  1
  V  V87  1  -0.00052174  0.25213054  0.24895978  1
  V  V88  1  0.24264768  0.74596343  0.49894259  1
  V  V89  1  0.49773003  -0.00536968  0.00266517  1
  V  V90  1  0.62385175  0.87601630  0.25148065  1
  V  V91  1  0.87619251  0.37773136  0.49874083  1
  V  V92  1  0.37390327  -0.00616851  0.88241146  1
  Zn  Zn93  1  0.49921657  0.37292096  0.87432953  1
  Zn  Zn94  1  0.12611931  0.12667780  0.50076666  1
  Zn  Zn95  1  0.50021094  0.12430919  0.62735833  1
  Zn  Zn96  1  0.87595192  0.50328618  0.37233433  1
  Zn  Zn97  1  0.62602542  0.62333628  -0.00057799  1
  Zn  Zn98  1  0.87535108  0.25167668  0.62725763  1
  Zn  Zn99  1  0.74806158  0.75261102  0.50001866  1
  Zn  Zn100  1  -0.00099542  0.25047147  0.74977069  1
  Zn  Zn101  1  0.37895012  0.75430729  0.12043080  1
  Zn  Zn102  1  0.12264310  0.74756316  0.37475283  1
  Zn  Zn103  1  0.24582761  0.12274380  0.37741867  1
  Zn  Zn104  1  0.87918468  0.87206503  0.00515011  1
  Zn  Zn105  1  0.13136543  0.00807736  0.12007247  1
  Zn  Zn106  1  0.24446324  0.24498732  0.00719223  1
  Zn  Zn107  1  0.12510273  0.87533665  0.24570049  1
  Zn  Zn108  1  0.00560347  0.50468919  0.49477545  1
  Zn  Zn109  1  0.12676356  0.24888003  0.37253003  1
  Zn  Zn110  1  0.37406877  -0.00010598  0.37967892  1
  Zn  Zn111  1  0.50362696  0.49774217  0.49577096  1
  Zn  Zn112  1  0.49949575  0.49990909  -0.00351035  1
  Zn  Zn113  1  0.62528492  0.62419547  0.49961979  1
  Zn  Zn114  1  0.87269876  0.87574290  0.50032288  1
  Zn  Zn115  1  0.49998061  0.24927384  0.75189780  1
  Zn  Zn116  1  0.74929857  0.87349062  0.62367782  1
  Zn  Zn117  1  0.75307062  0.49996601  0.24925111  1
  Zn  Zn118  1  0.00957419  0.13153798  0.12108636  1
  Zn  Zn119  1  0.24982920  0.37428092  0.12551318  1
  Zn  Zn120  1  0.12586636  0.00085818  0.62566302  1
  Zn  Zn121  1  0.87513045  0.49971289  0.87355670  1
  Zn  Zn122  1  0.18554994  0.18675546  0.18681579  1
  Zn  Zn123  1  0.18636289  0.18696474  0.69078477  1
  Zn  Zn124  1  0.18541416  0.68998338  0.18679026  1
  Zn  Zn125  1  0.18679253  0.68536238  0.68654662  1
  Zn  Zn126  1  0.68805275  0.18884255  0.18908307  1
  Zn  Zn127  1  0.68848487  0.18675709  0.68752136  1
  Zn  Zn128  1  0.68668470  0.68934805  0.18873250  1
  Zn  Zn129  1  0.68545552  0.68598368  0.68775464  1
  Zn  Zn130  1  0.31156968  0.31428795  0.31298522  1
  Zn  Zn131  1  0.30929550  0.31311442  0.81338926  1
  Zn  Zn132  1  0.31398544  0.81251444  0.31196887  1
  Zn  Zn133  1  0.31223286  0.81206252  0.81178483  1
  Zn  Zn134  1  0.81046559  0.31356455  0.31275446  1
  Zn  Zn135  1  0.81228225  0.31092194  0.81274695  1
  Zn  Zn136  1  0.81463843  0.81262063  0.31112972  1
  Zn  Zn137  1  0.81226198  0.81143665  0.81233115  1
  Zn  Zn138  1  0.19266129  0.43525158  0.43453433  1
  Zn  Zn139  1  0.18893678  0.43495747  0.93721802  1
  Zn  Zn140  1  0.18684188  0.93638905  0.43747846  1
  Zn  Zn141  1  0.18656209  0.93538250  0.93691582  1
  Zn  Zn142  1  0.68952204  0.44176618  0.43672388  1
  Zn  Zn143  1  0.68699957  0.43712515  0.93704618  1
  Zn  Zn144  1  0.68770757  0.93562411  0.44066279  1
  Zn  Zn145  1  0.68479336  0.93448676  0.93939058  1
  Zn  Zn146  1  0.31356952  0.06308258  0.06583152  1
  Zn  Zn147  1  0.31323465  0.06163528  0.56485001  1
  Zn  Zn148  1  0.31326784  0.56316054  0.05948683  1
  Zn  Zn149  1  0.31328359  0.56216622  0.55873109  1
  Zn  Zn150  1  0.81662050  0.06122140  0.06333671  1
  Zn  Zn151  1  0.81277214  0.06151752  0.56442418  1
  Zn  Zn152  1  0.81325685  0.56310465  0.06094614  1
  Zn  Zn153  1  0.81315688  0.56288910  0.56061312  1
  Zn  Zn154  1  0.43809891  0.43751062  0.18813536  1
  Zn  Zn155  1  0.43942789  0.43375541  0.68719000  1
  Zn  Zn156  1  0.43414929  0.93798625  0.18952668  1
  Zn  Zn157  1  0.43677313  0.93444020  0.68999600  1
  Zn  Zn158  1  0.93751080  0.44217297  0.18508038  1
  Zn  Zn159  1  0.93843319  0.43916652  0.68577788  1
  Zn  Zn160  1  0.93647566  0.93994309  0.18704272  1
  Zn  Zn161  1  0.93637622  0.93812478  0.68894351  1
  Zn  Zn162  1  0.06537388  0.06802058  0.31289470  1
  Zn  Zn163  1  0.06259255  0.06185173  0.81317534  1
  Zn  Zn164  1  0.06098883  0.56329787  0.30858491  1
  Zn  Zn165  1  0.06395688  0.56263947  0.80781005  1
  Zn  Zn166  1  0.56174087  0.06305481  0.31651795  1
  Zn  Zn167  1  0.56086403  0.06052200  0.81559443  1
  Zn  Zn168  1  0.56454819  0.56415348  0.30939962  1
  Zn  Zn169  1  0.56187790  0.56143086  0.80970944  1
  Zn  Zn170  1  0.43925121  0.18830714  0.43980680  1
  Zn  Zn171  1  0.43740796  0.18582973  0.93942951  1
  Zn  Zn172  1  0.43487030  0.68516363  0.44002030  1
  Zn  Zn173  1  0.43782259  0.68272047  0.93740652  1
  Zn  Zn174  1  0.93772739  0.18983273  0.43738928  1
  Zn  Zn175  1  0.93665244  0.18859111  0.93534649  1
  Zn  Zn176  1  0.93548326  0.69085460  0.43330458  1
  Zn  Zn177  1  0.93549537  0.68723803  0.93462444  1
  Zn  Zn178  1  0.06200056  0.31520406  0.06216473  1
  Zn  Zn179  1  0.06266943  0.31356100  0.56329548  1
  Zn  Zn180  1  0.06917891  0.81910180  0.06141024  1
  Zn  Zn181  1  0.06099059  0.81474411  0.56179797  1
  Zn  Zn182  1  0.55839886  0.31267500  0.06368886  1
  Zn  Zn183  1  0.56190290  0.30958588  0.56721215  1
  Zn  Zn184  1  0.56740793  0.81156915  0.06173973  1
  Zn  Zn185  1  0.56272335  0.81026720  0.56317120  1
  O  O186  1  0.12160924  0.12069319  0.12495495  1
  O  O187  1  0.11365272  0.12203652  0.62480488  1
  O  O188  1  0.11881483  0.62123847  0.11704322  1
  O  O189  1  0.11519021  0.61579884  0.62924626  1
  O  O190  1  0.62015445  0.11972911  0.12256291  1
  O  O191  1  0.62392792  0.11720268  0.62003631  1
  O  O192  1  0.61736294  0.61567135  0.12802239  1
  O  O193  1  0.61652244  0.61822184  0.62333851  1
  O  O194  1  0.36865654  0.38650096  0.38392645  1
  O  O195  1  0.37387329  0.38230892  0.88240475  1
  O  O196  1  0.38245262  0.87423143  0.38336947  1
  O  O197  1  0.37937049  0.88685068  0.86976604  1
  O  O198  1  0.88259795  0.37748797  0.38072103  1
  O  O199  1  0.88108298  0.37559341  0.88109488  1
  O  O200  1  0.88636177  0.88203595  0.37386230  1
  O  O201  1  0.88222777  0.88057726  0.87403935  1
  O  O202  1  0.25431853  0.00023531  0.36696524  1
  O  O203  1  0.25597281  0.00464348  0.87199206  1
  O  O204  1  0.25808008  0.50802219  0.36903080  1
  O  O205  1  0.25533402  0.50337613  0.86665450  1
  O  O206  1  0.75463441  0.00533811  0.37008095  1
  O  O207  1  0.75287931  0.00376550  0.87195236  1
  O  O208  1  0.75211781  0.51351141  0.36919999  1
  O  O209  1  0.75078943  0.50611281  0.86840318  1
  O  O210  1  0.24385223  0.50182327  0.13074120  1
  O  O211  1  0.24533477  0.49782965  0.63026575  1
  O  O212  1  0.25344468  0.99317929  0.13388966  1
  O  O213  1  0.24921561  0.99159191  0.63233375  1
  O  O214  1  0.74022376  0.49542416  0.12557835  1
  O  O215  1  0.74449110  0.49517990  0.62957443  1
  O  O216  1  0.74413984  0.99329104  0.13070600  1
  O  O217  1  0.74311319  0.99821380  0.63384884  1
  O  O218  1  0.00305632  0.37346348  0.25677436  1
  O  O219  1  0.00613056  0.37484441  0.75467007  1
  O  O220  1  -0.00097641  0.86998134  0.25522526  1
  O  O221  1  0.00577441  0.86926854  0.75461676  1
  O  O222  1  0.51339747  0.36831666  0.24434763  1
  O  O223  1  0.50935287  0.37065624  0.75281398  1
  O  O224  1  0.50419053  0.87079511  0.25577233  1
  O  O225  1  0.50401977  0.86693086  0.75910406  1
  O  O226  1  0.49250860  0.12923927  0.24707759  1
  O  O227  1  0.48592566  0.12354316  0.75234559  1
  O  O228  1  0.49554734  0.63069093  0.24144217  1
  O  O229  1  0.50338394  0.63091209  0.73612500  1
  O  O230  1  0.99170562  0.13419471  0.25109128  1
  O  O231  1  0.99345057  0.12287941  0.74125035  1
  O  O232  1  0.99406694  0.63387184  0.24279197  1
  O  O233  1  0.99517650  0.63035452  0.73987867  1
  O  O234  1  0.37503079  0.25685139  0.00751294  1
  O  O235  1  0.36833750  0.25631848  0.50521483  1
  O  O236  1  0.36058007  0.74287537  0.00037430  1
  O  O237  1  0.36614053  0.75500305  0.50990363  1
  O  O238  1  0.86908173  0.25576782  0.00491581  1
  O  O239  1  0.86866264  0.26218668  0.49964770  1
  O  O240  1  0.85989199  0.75282573  -0.00615505  1
  O  O241  1  0.87550195  0.75187738  0.51148031  1
  O  O242  1  0.13896070  0.25346471  0.50019050  1
  O  O243  1  0.12659395  0.25754457  0.98500052  1
  O  O244  1  0.13927859  0.75578987  0.49774622  1
  O  O245  1  0.13406609  0.74542328  0.99198295  1
  O  O246  1  0.63004626  0.24515196  0.49675809  1
  O  O247  1  0.62965398  0.24392746  0.99763368  1
  O  O248  1  0.62643753  0.74617913  0.49139578  1
  O  O249  1  0.63601461  0.74723941  0.99254822  1
  O  O250  1  0.49498121  0.24273909  0.13427890  1
  O  O251  1  0.49025758  0.24437277  0.63048348  1
  O  O252  1  0.50177879  0.74096503  0.12970968  1
  O  O253  1  0.49158111  0.74259573  0.62958052  1
  O  O254  1  0.99215075  0.25290274  0.13068290  1
  O  O255  1  0.99816171  0.23884365  0.62610788  1
  O  O256  1  1.00740541  0.74732738  0.13266816  1
  O  O257  1  0.99485997  0.74293356  0.62862914  1
  O  O258  1  0.00006273  0.26307038  0.36895245  1
  O  O259  1  0.00856199  0.25532828  0.87272519  1
  O  O260  1  0.00142367  0.75945346  0.36653644  1
  O  O261  1  0.00552766  0.75400538  0.86823014  1
  O  O262  1  0.50984133  0.24505059  0.36842804  1
  O  O263  1  0.50832498  0.24917710  0.87376576  1
  O  O264  1  0.50417956  0.75364328  0.37023666  1
  O  O265  1  0.50269502  0.75159934  0.87118006  1
  O  O266  1  0.25126070  0.13592159  0.50153822  1
  O  O267  1  0.25530951  0.12530210  0.98666000  1
  O  O268  1  0.25681067  0.63495294  0.48916510  1
  O  O269  1  0.24336684  0.63292265  0.99346492  1
  O  O270  1  0.74524181  0.13000731  0.49544856  1
  O  O271  1  0.74445537  0.12937778  0.99719242  1
  O  O272  1  0.75078528  0.62811564  0.48627976  1
  O  O273  1  0.74845370  0.63271456  0.99473062  1
  O  O274  1  0.26229539  0.37168232  0.00234949  1
  O  O275  1  0.26029831  0.36757738  0.50502213  1
  O  O276  1  0.24473188  0.86483017  0.00691768  1
  O  O277  1  0.25512151  0.86699694  0.50524718  1
  O  O278  1  0.75491071  0.36895580  0.00517293  1
  O  O279  1  0.75769517  0.37140283  0.50337168  1
  O  O280  1  0.74938757  0.86756767  0.00842407  1
  O  O281  1  0.75537941  0.87120917  0.50476949  1
  O  O282  1  0.12956077  0.49681580  0.24194797  1
  O  O283  1  0.13405971  0.49460496  0.73987271  1
  O  O284  1  0.13937411  0.99978002  0.25107315  1
  O  O285  1  0.13203800  0.99199183  0.75063691  1
  O  O286  1  0.62584307  0.49164002  0.24088531  1
  O  O287  1  0.63153170  0.49279461  0.74398265  1
  O  O288  1  0.63027645  0.99593434  0.24660492  1
  O  O289  1  0.62827033  0.99415366  0.74765939  1
  O  O290  1  0.36728732  0.00906983  0.25331845  1
  O  O291  1  0.36970524  0.00602445  0.76018626  1
  O  O292  1  0.37013997  0.50431243  0.25651377  1
  O  O293  1  0.36315664  0.49005630  0.75842459  1
  O  O294  1  0.86896652  0.00730333  0.25533526  1
  O  O295  1  0.86860624  0.00495440  0.75692179  1
  O  O296  1  0.87453630  0.51422469  0.25070407  1
  O  O297  1  0.86782056  0.50605349  0.74934111  1
  O  O298  1  0.11578067  0.37608287  0.36860710  1
  O  O299  1  0.12071983  0.36860953  0.86878137  1
  O  O300  1  0.11073738  0.87562764  0.37133958  1
  O  O301  1  0.11956240  0.86790838  0.86797445  1
  O  O302  1  0.63365901  0.37024386  0.36291180  1
  O  O303  1  0.62478979  0.36718853  0.86989281  1
  O  O304  1  0.61894228  0.87011635  0.36991754  1
  O  O305  1  0.61702702  0.86798927  0.87012288  1
  O  O306  1  0.38077837  0.12979881  0.13608932  1
  O  O307  1  0.37386071  0.12916834  0.63816741  1
  O  O308  1  0.38606661  0.62391952  0.13012821  1
  O  O309  1  0.38195018  0.63467418  0.61964482  1
  O  O310  1  0.87755463  0.13315186  0.13183801  1
  O  O311  1  0.88343510  0.12611404  0.63123789  1
  O  O312  1  0.88198659  0.62268248  0.13355783  1
  O  O313  1  0.88308537  0.63149172  0.62882382  1
  O  O314  1  0.25919494  0.25250885  0.12471696  1
  O  O315  1  0.25497271  0.25555029  0.61916059  1
  O  O316  1  0.25037187  0.75727793  0.11629949  1
  O  O317  1  0.25568376  0.75135926  0.61896499  1
  O  O318  1  0.75488564  0.25542457  0.11960897  1
  O  O319  1  0.75151578  0.25698720  0.61768834  1
  O  O320  1  0.74077463  0.76006440  0.11543301  1
  O  O321  1  0.76151456  0.74802768  0.62514122  1
  O  O322  1  0.25040595  0.24947110  0.38678010  1
  O  O323  1  0.24268500  0.24116149  0.87659389  1
  O  O324  1  0.25029381  0.74289112  0.38212690  1
  O  O325  1  0.24615483  0.74546228  0.87984923  1
  O  O326  1  0.74347055  0.24454581  0.38115891  1
  O  O327  1  0.74395154  0.24256642  0.88235690  1
  O  O328  1  0.74463512  0.74209614  0.37271532  1
  O  O329  1  0.74366135  0.74442593  0.88092825  1
  O  O330  1  -0.00627133  0.11019574  -0.00132807  1
  O  O331  1  -0.00131596  0.11830158  0.50827439  1
  O  O332  1  0.00552052  0.62245761  0.00121741  1
  O  O333  1  -0.00520695  0.62455647  0.51094006  1
  O  O334  1  0.50485698  0.11710163  0.00867885  1
  O  O335  1  0.50667236  0.11732071  0.50328337  1
  O  O336  1  0.50367716  0.62245515  0.01221299  1
  O  O337  1  0.50116813  0.62222451  0.51317040  1
  O  O338  1  0.48584984  0.37503747  0.50592111  1
  O  O339  1  0.48702373  0.37747862  0.99810675  1
  O  O340  1  0.49499768  0.87875379  0.49641922  1
  O  O341  1  0.50648380  0.88167610  0.99381764  1
  O  O342  1  0.99265653  0.37487258  0.49122536  1
  O  O343  1  0.99451103  0.38198116  0.99320119  1
  O  O344  1  0.99744950  0.88400126  0.49137116  1
  O  O345  1  0.99777455  0.88236117  0.99324940  1
  O  O346  1  0.48527480  0.50958506  0.37483703  1
  O  O347  1  0.48872974  0.49829614  0.87452140  1
  O  O348  1  0.49919139  0.99229007  0.38401968  1
  O  O349  1  0.49165166  0.99361905  0.88197976  1
  O  O350  1  0.99952556  0.49071609  0.37620252  1
  O  O351  1  1.00048954  0.49450945  0.87921201  1
  O  O352  1  0.99511196  0.99547899  0.38037490  1
  O  O353  1  0.99475897  0.99552856  0.88335772  1
  O  O354  1  -0.00146224  -0.00126234  0.10926225  1
  O  O355  1  -0.00127168  0.00776192  0.61653877  1
  O  O356  1  0.00664721  0.50860579  0.11611043  1
  O  O357  1  0.00913726  0.50822142  0.62254930  1
  O  O358  1  0.50504466  0.00389586  0.12295465  1
  O  O359  1  0.50587334  -0.00033763  0.62121407  1
  O  O360  1  0.50849231  0.50888921  0.12638445  1
  O  O361  1  0.50425706  0.50768383  0.62578358  1
  O  O362  1  0.24318949  0.38385468  0.24915139  1
  O  O363  1  0.24407069  0.38424340  0.74382570  1
  O  O364  1  0.25033532  0.88287550  0.24383379  1
  O  O365  1  0.24438061  0.87842346  0.74480637  1
  O  O366  1  0.74008359  0.37580268  0.24217481  1
  O  O367  1  0.74584516  0.37967121  0.74412547  1
  O  O368  1  0.74422052  0.87980527  0.24426751  1
  O  O369  1  0.74156319  0.88066439  0.75050878  1
  O  O370  1  0.25979871  0.11693365  0.25139640  1
  O  O371  1  0.25829135  0.11849664  0.75924368  1
  O  O372  1  0.25531964  0.62183044  0.25583705  1
  O  O373  1  0.24520905  0.61176491  0.75504720  1
  O  O374  1  0.75494872  0.12040767  0.25610268  1
  O  O375  1  0.75357512  0.11758682  0.75757488  1
  O  O376  1  0.75950378  0.62813487  0.25521481  1
  O  O377  1  0.75458085  0.61919953  0.75453118  1
  O  O378  1  0.37447444  0.12451644  0.36429015  1
  O  O379  1  0.36711599  0.11634708  0.86885924  1
  O  O380  1  0.36551367  0.61794076  0.36901589  1
  O  O381  1  0.36765021  0.60954993  0.88047564  1
  O  O382  1  0.86886463  0.12170787  0.36971046  1
  O  O383  1  0.86752570  0.11863132  0.87064171  1
  O  O384  1  0.86826727  0.62602756  0.36398388  1
  O  O385  1  0.86797860  0.62338372  0.86575770  1
  O  O386  1  0.12589761  0.38425182  0.12991781  1
  O  O387  1  0.13020948  0.38325589  0.63024560  1
  O  O388  1  0.13987877  0.88412495  0.12685592  1
  O  O389  1  0.13094464  0.87556509  0.63176054  1
  O  O390  1  0.62887388  0.38130399  0.13197830  1
  O  O391  1  0.63137458  0.37928952  0.63051412  1
  O  O392  1  0.63282179  0.88147879  0.13229873  1
  O  O393  1  0.62437492  0.87953286  0.63411656  1
  O  O394  1  0.11750327  0.26016665  0.25033850  1
  O  O395  1  0.12461281  0.25820949  0.75990364  1
  O  O396  1  0.11247621  0.75286575  0.25317509  1
  O  O397  1  0.12036464  0.75403561  0.75437492  1
  O  O398  1  0.62116032  0.25688756  0.25552822  1
  O  O399  1  0.62626718  0.25413825  0.75783923  1
  O  O400  1  0.61824947  0.75708678  0.25605173  1
  O  O401  1  0.61779835  0.75425809  0.75610045  1
  O  O402  1  0.37944312  0.24390749  0.24749364  1
  O  O403  1  0.37200839  0.24008843  0.74718539  1
  O  O404  1  0.38212096  0.74319300  0.24689168  1
  O  O405  1  0.37911688  0.75405232  0.73746477  1
  O  O406  1  0.87882231  0.24740919  0.24465742  1
  O  O407  1  0.87710349  0.24071898  0.74855292  1
  O  O408  1  0.88759930  0.74167308  0.25282172  1
  O  O409  1  0.88095015  0.74410088  0.74124567  1
  O  O410  1  0.37506672  0.49132758  0.49142713  1
  O  O411  1  0.37429008  0.49085499  0.99040154  1
  O  O412  1  0.38138308  0.99212061  0.50187191  1
  O  O413  1  0.38085511  1.00600545  0.98899236  1
  O  O414  1  0.87764614  0.48749565  0.49705735  1
  O  O415  1  0.88245869  0.49393525  0.99768935  1
  O  O416  1  0.88563367  1.00053850  0.49378781  1
  O  O417  1  0.88349922  0.99536846  0.99383002  1
  O  O418  1  0.10848699  -0.00349087  -0.00415705  1
  O  O419  1  0.11175219  0.00079971  0.50214369  1
  O  O420  1  0.12122850  0.50640743  0.00237340  1
  O  O421  1  0.12785688  0.49331780  0.51350649  1
  O  O422  1  0.61911454  0.00556137  0.00723705  1
  O  O423  1  0.62044656  0.00475629  0.50712406  1
  O  O424  1  0.62199001  0.49938289  0.01273032  1
  O  O425  1  0.62153442  0.50115384  0.50716444  1
  O  O426  1  0.37479294  0.37023543  0.11790241  1
  O  O427  1  0.36838614  0.37024235  0.61750810  1
  O  O428  1  0.36189164  0.87253224  0.12834288  1
  O  O429  1  0.36923587  0.86438513  0.62123221  1
  O  O430  1  0.86940470  0.37118743  0.11915898  1
  O  O431  1  0.87025496  0.37459256  0.61528909  1
  O  O432  1  0.85837524  0.87898393  0.12630658  1
  O  O433  1  0.87568599  0.86230725  0.62632590  1
  O  O434  1  0.12807908  0.13218591  0.38247964  1
  O  O435  1  0.13524768  0.13463983  0.86627767  1
  O  O436  1  0.13960516  0.62444295  0.36918591  1
  O  O437  1  0.13140629  0.63050516  0.87779881  1
  O  O438  1  0.63154060  0.13066496  0.38225887  1
  O  O439  1  0.62981082  0.12766881  0.88310196  1
  O  O440  1  0.63482254  0.63095836  0.37201377  1
  O  O441  1  0.63057738  0.62979545  0.87559502  1
