# generated using pymatgen
data_V93Zn93O256
_symmetry_space_group_name_H-M   'P 1'
_cell_length_a   17.05853971
_cell_length_b   17.06055516
_cell_length_c   17.06080777
_cell_angle_alpha   89.96348785
_cell_angle_beta   90.05594432
_cell_angle_gamma   90.01257007
_symmetry_Int_Tables_number   1
_chemical_formula_structural   V93Zn93O256
_chemical_formula_sum   'V93 Zn93 O256'
_cell_volume   4965.17195960
_cell_formula_units_Z   1
loop_
 _symmetry_equiv_pos_site_id
 _symmetry_equiv_pos_as_xyz
  1  'x, y, z'
loop_
 _atom_site_type_symbol
 _atom_site_label
 _atom_site_symmetry_multiplicity
 _atom_site_fract_x
 _atom_site_fract_y
 _atom_site_fract_z
 _atom_site_occupancy
  V  V0  1  0.12101730  0.49959530  0.62351599  1
  V  V1  1  0.87606937  0.37482731  -0.00066299  1
  V  V2  1  0.37564142  0.00076267  0.87429047  1
  V  V3  1  0.75011566  0.25033110  0.00148868  1
  V  V4  1  -0.00000421  0.00056479  0.00053840  1
  V  V5  1  0.87764740  0.62092465  0.25325254  1
  V  V6  1  -0.00073300  0.12895096  0.62947695  1
  V  V7  1  0.74905947  -0.00172505  0.24976521  1
  V  V8  1  0.37497739  0.87647167  -0.00133349  1
  V  V9  1  0.87556996  0.74936264  0.62681087  1
  V  V10  1  0.62450750  -0.00041118  0.12350456  1
  V  V11  1  0.87665017  0.25160865  0.63163454  1
  V  V12  1  0.00005217  0.49989058  -0.00316802  1
  V  V13  1  0.12470024  0.75192351  0.37508622  1
  V  V14  1  0.00030601  0.87705450  0.37541981  1
  V  V15  1  0.49863259  0.37237945  0.87391389  1
  V  V16  1  0.50189291  0.24991525  0.25140532  1
  V  V17  1  0.12580626  0.13191292  -0.00354143  1
  V  V18  1  0.24942805  0.75119975  0.50013660  1
  V  V19  1  0.00173901  0.25119502  0.25758186  1
  V  V20  1  0.74123725  0.12658258  0.38247415  1
  V  V21  1  0.87385955  0.25083926  0.12604119  1
  V  V22  1  0.12458480  0.87478181  0.25033182  1
  V  V23  1  0.74654701  0.87868051  0.62498331  1
  V  V24  1  0.75443914  0.62032564  0.37547643  1
  V  V25  1  0.12466877  0.62493740  -0.00025525  1
  V  V26  1  0.75273768  0.49815728  0.25083266  1
  V  V27  1  0.50969353  0.00278875  0.51042950  1
  V  V28  1  0.12403020  0.62501379  0.50117144  1
  V  V29  1  0.24980134  0.87541552  0.12423923  1
  V  V30  1  0.87815784  0.12701868  0.75230257  1
  V  V31  1  0.62378884  0.50103789  0.62547087  1
  V  V32  1  0.75055494  0.37600114  0.62648267  1
  V  V33  1  0.25058737  0.00032309  0.24971176  1
  V  V34  1  0.24925367  0.87562255  0.62448923  1
  V  V35  1  0.24935383  0.36919780  0.61730557  1
  V  V36  1  0.00484646  0.36020194  0.87194252  1
  V  V37  1  0.37501542  0.50026205  0.37582101  1
  V  V38  1  0.75035083  0.74903949  -0.00012875  1
  V  V39  1  0.37314199  0.12357567  0.24826475  1
  V  V40  1  0.87526049  0.74923378  0.12690289  1
  V  V41  1  0.24754811  0.13039999  0.38095506  1
  V  V42  1  0.25013801  0.00095471  0.74934574  1
  V  V43  1  0.24970474  0.62613789  0.37465576  1
  V  V44  1  0.12596559  0.50038651  0.12357420  1
  V  V45  1  0.00074897  0.12532061  0.12645535  1
  V  V46  1  0.12137172  0.36189556  0.75208261  1
  V  V47  1  0.62535167  0.87884346  0.74725513  1
  V  V48  1  0.50025655  0.12397523  0.12361257  1
  V  V49  1  0.25052510  0.62434098  0.87408098  1
  V  V50  1  0.37503609  0.62548863  0.24875772  1
  V  V51  1  0.74883589  0.00095511  0.74866876  1
  V  V52  1  0.37458009  0.74929206  0.62536476  1
  V  V53  1  0.25053345  0.37452842  0.12392951  1
  V  V54  1  0.75059291  0.50180595  0.75108971  1
  V  V55  1  0.49708915  0.50051838  0.49844321  1
  V  V56  1  0.24717963  0.13344205  0.87369153  1
  V  V57  1  0.62530754  0.74926586  0.87640642  1
  V  V58  1  0.50001374  0.87512812  0.37352885  1
  V  V59  1  0.12371583  0.00133651  0.62441125  1
  V  V60  1  0.49931426  0.62576679  0.62510059  1
  V  V61  1  0.37260373  0.25083962  0.12097685  1
  V  V62  1  0.24918289  0.50050343  0.24942757  1
  V  V63  1  0.75032789  0.75001932  0.50060936  1
  V  V64  1  0.62512517  0.75016781  0.37393544  1
  V  V65  1  0.62521480  0.37635590  0.75190615  1
  V  V66  1  0.87464251  -0.00036004  0.87565852  1
  V  V67  1  0.12384646  0.37501791  0.25069018  1
  V  V68  1  0.87548220  0.12551786  0.25167311  1
  V  V69  1  0.38087712  0.12686699  0.74484235  1
  V  V70  1  0.12508181  0.75050019  0.87485878  1
  V  V71  1  0.75069135  0.12524299  0.87717100  1
  V  V72  1  0.37502102  0.74978335  0.12445307  1
  V  V73  1  0.62538587  0.37396322  0.25150546  1
  V  V74  1  0.37735841  0.24774359  0.61748473  1
  V  V75  1  0.12511030  0.87592330  0.75011955  1
  V  V76  1  0.87490738  0.87438623  0.00111766  1
  V  V77  1  0.75165277  0.62373872  0.87510463  1
  V  V78  1  0.37546571  0.49902075  0.87467030  1
  V  V79  1  -0.00015048  0.74969379  0.74986826  1
  V  V80  1  0.62556174  0.25051542  0.87633230  1
  V  V81  1  0.37522969  0.87556302  0.49955951  1
  V  V82  1  -0.00048111  0.00239787  0.50066664  1
  V  V83  1  0.24829440  0.49888193  0.74953753  1
  V  V84  1  0.12495758  -0.00006856  0.12468543  1
  V  V85  1  0.50168442  0.62349418  0.12315433  1
  V  V86  1  0.87542641  0.00039740  0.37647040  1
  V  V87  1  0.00042612  0.87580493  0.87522804  1
  V  V88  1  0.49941080  0.87532231  0.87501468  1
  V  V89  1  0.24912533  0.75113027  -0.00097862  1
  V  V90  1  0.87534024  0.37861164  0.49445717  1
  V  V91  1  0.49973949  0.74988082  0.74929754  1
  V  V92  1  0.62516747  0.62429447  0.49948731  1
  Zn  Zn93  1  0.62430614  0.49894066  0.12357711  1
  Zn  Zn94  1  0.61815714  0.24621723  0.38588617  1
  Zn  Zn95  1  -0.00957247  0.50810241  0.49255659  1
  Zn  Zn96  1  0.57713286  0.15485455  0.56240054  1
  Zn  Zn97  1  0.13324920  0.25916820  0.38719460  1
  Zn  Zn98  1  0.62352511  0.12509010  -0.00162556  1
  Zn  Zn99  1  0.62543510  0.62174970  0.00159656  1
  Zn  Zn100  1  0.74928465  0.37614426  0.12373283  1
  Zn  Zn101  1  0.74803472  0.87407266  0.12469965  1
  Zn  Zn102  1  0.00077980  0.62468160  0.12623267  1
  Zn  Zn103  1  0.50076685  0.00107844  -0.00157234  1
  Zn  Zn104  1  0.50628648  0.24379529  0.74115239  1
  Zn  Zn105  1  0.74065807  0.24734270  0.50727265  1
  Zn  Zn106  1  -0.00022485  0.62476025  0.62594709  1
  Zn  Zn107  1  0.12811992  0.13307305  0.50500827  1
  Zn  Zn108  1  0.49814841  0.37523384  0.37591640  1
  Zn  Zn109  1  0.24526163  0.25469859  -0.00625612  1
  Zn  Zn110  1  0.00002922  0.74934959  0.25096393  1
  Zn  Zn111  1  0.87693115  0.49801655  0.87177267  1
  Zn  Zn112  1  0.37116348  0.36927249  0.49515803  1
  Zn  Zn113  1  0.37496820  0.62487360  0.74950991  1
  Zn  Zn114  1  0.50278145  0.49835709  0.00016781  1
  Zn  Zn115  1  0.87835544  0.62280909  0.75061765  1
  Zn  Zn116  1  0.37333094  0.37481319  -0.00161769  1
  Zn  Zn117  1  0.37511860  0.00012951  0.37573158  1
  Zn  Zn118  1  -0.00177185  0.38464439  0.37343263  1
  Zn  Zn119  1  0.87454806  0.87588871  0.50000565  1
  Zn  Zn120  1  0.62395115  0.87228844  0.24803290  1
  Zn  Zn121  1  0.50192083  0.74994590  0.24882664  1
  Zn  Zn122  1  0.18645339  0.18783674  0.18940700  1
  Zn  Zn123  1  0.19169230  0.18721245  0.68414018  1
  Zn  Zn124  1  0.18711031  0.68792411  0.18719604  1
  Zn  Zn125  1  0.18765690  0.68629211  0.68823726  1
  Zn  Zn126  1  0.68723258  0.18551561  0.18842067  1
  Zn  Zn127  1  0.69198725  0.18998663  0.69274153  1
  Zn  Zn128  1  0.68764980  0.68692826  0.18860052  1
  Zn  Zn129  1  0.68706431  0.68891478  0.68911790  1
  Zn  Zn130  1  0.31362749  0.31349349  0.31007359  1
  Zn  Zn131  1  0.31338258  0.31261026  0.80282962  1
  Zn  Zn132  1  0.31348784  0.81220397  0.31139455  1
  Zn  Zn133  1  0.31288214  0.81260505  0.81145110  1
  Zn  Zn134  1  0.81026319  0.30902181  0.31324017  1
  Zn  Zn135  1  0.81431455  0.31423516  0.81482437  1
  Zn  Zn136  1  0.81344254  0.81151491  0.31386309  1
  Zn  Zn137  1  0.81266837  0.81173052  0.81239259  1
  Zn  Zn138  1  0.18469625  0.43961071  0.43678523  1
  Zn  Zn139  1  0.18629866  0.43458205  0.93541256  1
  Zn  Zn140  1  0.18656290  0.94293353  0.43769362  1
  Zn  Zn141  1  0.18816351  0.94200822  0.93667428  1
  Zn  Zn142  1  0.68741117  0.43560396  0.43758943  1
  Zn  Zn143  1  0.68652471  0.43897460  0.93999325  1
  Zn  Zn144  1  0.68612322  0.93731720  0.43789969  1
  Zn  Zn145  1  0.68773694  0.93601205  0.93746450  1
  Zn  Zn146  1  0.31164619  0.06339075  0.06029467  1
  Zn  Zn147  1  0.31870098  0.05973110  0.56098311  1
  Zn  Zn148  1  0.31376305  0.56214761  0.06046111  1
  Zn  Zn149  1  0.31069349  0.56096391  0.56274511  1
  Zn  Zn150  1  0.81231973  0.06390539  0.06335107  1
  Zn  Zn151  1  0.81197922  0.06241739  0.56372558  1
  Zn  Zn152  1  0.81302879  0.56152283  0.06427689  1
  Zn  Zn153  1  0.81118310  0.56235044  0.56465161  1
  Zn  Zn154  1  0.43725214  0.43759124  0.18862759  1
  Zn  Zn155  1  0.43581866  0.43518634  0.68707571  1
  Zn  Zn156  1  0.43740301  0.93728754  0.18756424  1
  Zn  Zn157  1  0.43667418  0.93778463  0.68783627  1
  Zn  Zn158  1  0.93781735  0.43713921  0.18569950  1
  Zn  Zn159  1  0.93871723  0.43608597  0.68928744  1
  Zn  Zn160  1  0.93714270  0.93695624  0.18868239  1
  Zn  Zn161  1  0.93591568  0.93825275  0.68746915  1
  Zn  Zn162  1  0.06502949  0.06299611  0.31341751  1
  Zn  Zn163  1  0.06340636  0.06431519  0.81258558  1
  Zn  Zn164  1  0.06127171  0.56086351  0.31544186  1
  Zn  Zn165  1  0.06340881  0.56012677  0.81035146  1
  Zn  Zn166  1  0.56032823  0.05877639  0.31258670  1
  Zn  Zn167  1  0.56460702  0.06267126  0.80919091  1
  Zn  Zn168  1  0.56336811  0.56225586  0.31088915  1
  Zn  Zn169  1  0.56258419  0.56267141  0.81273902  1
  Zn  Zn170  1  0.43307431  0.18353411  0.43596408  1
  Zn  Zn171  1  0.43816719  0.18573604  0.93553905  1
  Zn  Zn172  1  0.43704099  0.68787346  0.43746595  1
  Zn  Zn173  1  0.43725254  0.68725748  0.93800509  1
  Zn  Zn174  1  0.93199270  0.18935500  0.44383479  1
  Zn  Zn175  1  0.93634969  0.18665830  0.94028929  1
  Zn  Zn176  1  0.93899203  0.68985059  0.43922253  1
  Zn  Zn177  1  0.93715005  0.68689527  0.93768427  1
  Zn  Zn178  1  0.05971579  0.31372188  0.06526769  1
  Zn  Zn179  1  0.06077581  0.31186510  0.56270265  1
  Zn  Zn180  1  0.06109336  0.81195415  0.06324810  1
  Zn  Zn181  1  0.06124041  0.81401450  0.56134934  1
  Zn  Zn182  1  0.56271853  0.31336361  0.06221102  1
  Zn  Zn183  1  0.55840697  0.32035368  0.56283981  1
  Zn  Zn184  1  0.56243570  0.81191767  0.06168998  1
  Zn  Zn185  1  0.56229475  0.81331190  0.56066292  1
  O  O186  1  0.12063776  0.11840944  0.11815231  1
  O  O187  1  0.11596702  0.11934130  0.62769467  1
  O  O188  1  0.12386293  0.61921859  0.11786778  1
  O  O189  1  0.12644832  0.61578811  0.61989928  1
  O  O190  1  0.61947096  0.11516320  0.12467683  1
  O  O191  1  0.63493826  0.11240588  0.64278462  1
  O  O192  1  0.61321015  0.62480504  0.12594715  1
  O  O193  1  0.62031032  0.62101306  0.61931350  1
  O  O194  1  0.37535112  0.38392962  0.37567607  1
  O  O195  1  0.38163892  0.38127452  0.87213261  1
  O  O196  1  0.38380617  0.87328434  0.38081889  1
  O  O197  1  0.37918605  0.88044036  0.87860733  1
  O  O198  1  0.87029029  0.36755384  0.39257466  1
  O  O199  1  0.88597403  0.37743465  0.88122391  1
  O  O200  1  0.88126843  0.88202720  0.37632424  1
  O  O201  1  0.88087850  0.87956508  0.88064880  1
  O  O202  1  0.25169867  0.00909633  0.36668772  1
  O  O203  1  0.25600897  0.00855434  0.86841774  1
  O  O204  1  0.25407783  0.50748225  0.36882834  1
  O  O205  1  0.25687382  0.50385260  0.87003034  1
  O  O206  1  0.75328762  0.00794736  0.36855527  1
  O  O207  1  0.75612014  0.00436895  0.87032581  1
  O  O208  1  0.74477880  0.51155506  0.36572632  1
  O  O209  1  0.75067132  0.50896645  0.87005685  1
  O  O210  1  0.24598616  0.49524449  0.12934426  1
  O  O211  1  0.24220306  0.49219773  0.63044104  1
  O  O212  1  0.24455772  0.99444553  0.12888481  1
  O  O213  1  0.24468179  0.99489953  0.62961204  1
  O  O214  1  0.74723853  0.49902447  0.13860210  1
  O  O215  1  0.74205582  0.49655049  0.63152421  1
  O  O216  1  0.74322373  1.00088382  0.13398867  1
  O  O217  1  0.76036159  0.98477868  0.63221638  1
  O  O218  1  0.00399103  0.36638489  0.24991698  1
  O  O219  1  0.00933198  0.38115059  0.76109420  1
  O  O220  1  0.00704665  0.87480861  0.25705420  1
  O  O221  1  0.00570070  0.87114266  0.75621491  1
  O  O222  1  0.50735795  0.36649227  0.25100190  1
  O  O223  1  0.50639058  0.37516883  0.76028941  1
  O  O224  1  0.50016975  0.87236832  0.26125984  1
  O  O225  1  0.50738015  0.87013715  0.75400629  1
  O  O226  1  0.49476544  0.13184555  0.24447752  1
  O  O227  1  0.48432190  0.12401427  0.75544744  1
  O  O228  1  0.49318646  0.62660340  0.24093479  1
  O  O229  1  0.49990194  0.63238132  0.74301915  1
  O  O230  1  0.99626973  0.13167820  0.24597913  1
  O  O231  1  0.99314837  0.11693700  0.73816692  1
  O  O232  1  0.98911692  0.62664982  0.24861875  1
  O  O233  1  0.99907823  0.63367008  0.74736541  1
  O  O234  1  0.37370135  0.24940131  0.01264491  1
  O  O235  1  0.37910381  0.24990729  0.51178045  1
  O  O236  1  0.36762366  0.75644770  0.00383640  1
  O  O237  1  0.36863132  0.75518284  0.50591030  1
  O  O238  1  0.87011838  0.25485882  0.00680551  1
  O  O239  1  0.86785151  0.25914388  0.51366866  1
  O  O240  1  0.87117553  0.75407755  0.00825378  1
  O  O241  1  0.86855066  0.75288951  0.50968172  1
  O  O242  1  0.11883009  0.24461227  0.49701775  1
  O  O243  1  0.12508697  0.23499068  1.00862070  1
  O  O244  1  0.13099076  0.74631620  0.49535781  1
  O  O245  1  0.12952667  0.74591341  0.99435091  1
  O  O246  1  0.62287927  0.24615540  0.50204819  1
  O  O247  1  0.63211692  0.24901855  0.99431413  1
  O  O248  1  0.63104456  0.74322635  0.49488281  1
  O  O249  1  0.63277110  0.74852084  0.99350851  1
  O  O250  1  0.49265497  0.24562856  0.13270432  1
  O  O251  1  0.49007802  0.25001559  0.62557668  1
  O  O252  1  0.49294553  0.74190595  0.12570402  1
  O  O253  1  0.49476978  0.74552848  0.62889259  1
  O  O254  1  0.99406038  0.24438651  0.13532102  1
  O  O255  1  0.98811299  0.23896818  0.62282528  1
  O  O256  1  0.98775271  0.74780759  0.12686577  1
  O  O257  1  0.99070649  0.75292252  0.63092042  1
  O  O258  1  -0.00441546  0.24995904  0.36235418  1
  O  O259  1  -0.00105942  0.26129886  0.88109376  1
  O  O260  1  0.00719611  0.75836176  0.37414068  1
  O  O261  1  0.00562448  0.75643087  0.87115485  1
  O  O262  1  0.49795497  0.24858008  0.36138744  1
  O  O263  1  0.50492986  0.25859397  0.87205956  1
  O  O264  1  0.50611581  0.75860499  0.37595074  1
  O  O265  1  0.50433561  0.75522277  0.86933710  1
  O  O266  1  0.25284910  0.11786652  0.48302720  1
  O  O267  1  0.24207455  0.12646375  0.99127603  1
  O  O268  1  0.24452091  0.63190049  0.49438249  1
  O  O269  1  0.24453254  0.63132492  0.99395361  1
  O  O270  1  0.75310894  0.12316810  0.48533718  1
  O  O271  1  0.74972708  0.13172890  0.99371871  1
  O  O272  1  0.74576855  0.62844605  0.49261027  1
  O  O273  1  0.75044840  0.63017379  0.99127793  1
  O  O274  1  0.25136431  0.37109970  0.00680924  1
  O  O275  1  0.25073675  0.38172316  0.51377298  1
  O  O276  1  0.25397236  0.87090457  0.00432162  1
  O  O277  1  0.25385705  0.87110409  0.50500552  1
  O  O278  1  0.75758725  0.36860974  0.00078025  1
  O  O279  1  0.75765754  0.37347412  0.50784645  1
  O  O280  1  0.75821933  0.86766309  0.00076618  1
  O  O281  1  0.74940839  0.86929280  0.50943148  1
  O  O282  1  0.13058059  0.49614627  0.24272304  1
  O  O283  1  0.13018340  0.49465203  0.73963512  1
  O  O284  1  0.12982663  0.99414972  0.24310375  1
  O  O285  1  0.13036080  0.99439966  0.74484824  1
  O  O286  1  0.63368536  0.49097467  0.24939402  1
  O  O287  1  0.63038910  0.49573780  0.74478499  1
  O  O288  1  0.63331202  0.99890513  0.24078571  1
  O  O289  1  0.63185547  0.98420260  0.75765347  1
  O  O290  1  0.36829770  0.00610932  0.24955622  1
  O  O291  1  0.36882389  0.00676744  0.75322838  1
  O  O292  1  0.36804842  0.50605447  0.25518524  1
  O  O293  1  0.36848058  0.50029117  0.75986442  1
  O  O294  1  0.86757524  0.00566944  0.25470712  1
  O  O295  1  0.86925608  0.00466102  0.75751187  1
  O  O296  1  0.86612052  0.51036910  0.24387556  1
  O  O297  1  0.86664138  0.50326871  0.75080801  1
  O  O298  1  0.12402521  0.37367758  0.36528508  1
  O  O299  1  0.11726768  0.37960762  0.86397362  1
  O  O300  1  0.12096111  0.87173342  0.36986169  1
  O  O301  1  0.12047924  0.87105476  0.87038245  1
  O  O302  1  0.62356516  0.36944875  0.36329152  1
  O  O303  1  0.61703366  0.37129005  0.87124145  1
  O  O304  1  0.61620261  0.86831290  0.37379784  1
  O  O305  1  0.62037085  0.86852167  0.86746146  1
  O  O306  1  0.37877488  0.13219176  0.12887769  1
  O  O307  1  0.36418603  0.13411900  0.63536527  1
  O  O308  1  0.38080059  0.63009657  0.12855732  1
  O  O309  1  0.38058799  0.63142735  0.62636063  1
  O  O310  1  0.88162263  0.12975443  0.13141204  1
  O  O311  1  0.87946443  0.13168199  0.63161553  1
  O  O312  1  0.87553588  0.63358842  0.13443041  1
  O  O313  1  0.87422827  0.63872583  0.62673796  1
  O  O314  1  0.25986316  0.25485735  0.12725367  1
  O  O315  1  0.26084538  0.26110732  0.62993326  1
  O  O316  1  0.25429225  0.75590669  0.11809248  1
  O  O317  1  0.25371921  0.75596182  0.61992829  1
  O  O318  1  0.75666317  0.24990570  0.12070427  1
  O  O319  1  0.75965126  0.25842200  0.62652306  1
  O  O320  1  0.76009309  0.75035113  0.12052770  1
  O  O321  1  0.75690415  0.75758702  0.62201752  1
  O  O322  1  0.25180818  0.23413297  0.36651739  1
  O  O323  1  0.25731113  0.23676294  0.87403795  1
  O  O324  1  0.24483911  0.74610556  0.38082987  1
  O  O325  1  0.24454555  0.74584099  0.87955300  1
  O  O326  1  0.74675711  0.23358414  0.37492600  1
  O  O327  1  0.74599904  0.24520606  0.88148533  1
  O  O328  1  0.74526374  0.74197568  0.38062059  1
  O  O329  1  0.74607344  0.74249210  0.87922346  1
  O  O330  1  0.00687943  0.11950759  0.00547704  1
  O  O331  1  -0.00433228  0.11865180  0.51380411  1
  O  O332  1  0.00582594  0.61626314  0.00015328  1
  O  O333  1  0.00775752  0.62604052  0.50565320  1
  O  O334  1  0.50254227  0.12169550  0.00747628  1
  O  O335  1  0.49717028  0.10807944  0.49477774  1
  O  O336  1  0.50034252  0.62421802  0.01111493  1
  O  O337  1  0.50608253  0.62095112  0.50557745  1
  O  O338  1  0.49470951  0.38651806  0.49515780  1
  O  O339  1  0.49665381  0.37535015  0.98640416  1
  O  O340  1  0.49548784  0.88044658  0.49171964  1
  O  O341  1  0.49251160  0.87595787  0.99252182  1
  O  O342  1  0.98213581  0.37353153  0.50040560  1
  O  O343  1  0.99825282  0.38208971  0.99278912  1
  O  O344  1  0.99912325  0.88410071  0.49327590  1
  O  O345  1  0.99532736  0.88097689  0.99472955  1
  O  O346  1  0.49279582  0.50222980  0.38023552  1
  O  O347  1  0.49139701  0.49190908  0.87345091  1
  O  O348  1  0.49752096  0.98828102  0.38074653  1
  O  O349  1  0.49370710  0.99270988  0.87500799  1
  O  O350  1  1.00002722  0.49693539  0.38080883  1
  O  O351  1  1.00030330  0.49569582  0.88711565  1
  O  O352  1  0.99537300  0.99769129  0.37998340  1
  O  O353  1  0.99471250  0.99507031  0.88070259  1
  O  O354  1  0.00451847  0.00550443  0.12028724  1
  O  O355  1  0.00343193  0.00679116  0.62080359  1
  O  O356  1  0.00674633  0.49980846  0.11255679  1
  O  O357  1  0.01188857  0.50060494  0.62212019  1
  O  O358  1  0.50937020  0.00482029  0.12547095  1
  O  O359  1  0.49708356  -0.00820948  0.60939358  1
  O  O360  1  0.49825710  0.51094164  0.12374308  1
  O  O361  1  0.50444321  0.50573769  0.62042419  1
  O  O362  1  0.24435990  0.38147122  0.24325906  1
  O  O363  1  0.24087094  0.38088442  0.74174528  1
  O  O364  1  0.24474684  0.87979784  0.24362144  1
  O  O365  1  0.24454859  0.88056936  0.74461020  1
  O  O366  1  0.74440970  0.38239240  0.25169826  1
  O  O367  1  0.74474540  0.38235294  0.74709672  1
  O  O368  1  0.75001327  0.88876141  0.25064456  1
  O  O369  1  0.74330286  0.87854437  0.74467009  1
  O  O370  1  0.25401010  0.11846875  0.25501397  1
  O  O371  1  0.25607009  0.11995627  0.75716442  1
  O  O372  1  0.25456367  0.61990135  0.25458538  1
  O  O373  1  0.25119082  0.61820071  0.75710154  1
  O  O374  1  0.75525994  0.11530834  0.25814657  1
  O  O375  1  0.76063694  0.11905176  0.76036286  1
  O  O376  1  0.75683016  0.61769755  0.25723207  1
  O  O377  1  0.74972316  0.62085191  0.75969896  1
  O  O378  1  0.36341205  0.12225861  0.36586073  1
  O  O379  1  0.36661165  0.12012387  0.86695523  1
  O  O380  1  0.36846496  0.62164442  0.36913638  1
  O  O381  1  0.36964014  0.61616110  0.87300862  1
  O  O382  1  0.86547605  0.11975933  0.37006346  1
  O  O383  1  0.87181999  0.11869894  0.87237807  1
  O  O384  1  0.86397259  0.63377440  0.36616171  1
  O  O385  1  0.86295165  0.62412257  0.87333177  1
  O  O386  1  0.13036368  0.38087044  0.13050479  1
  O  O387  1  0.12949900  0.38216949  0.63078568  1
  O  O388  1  0.13013260  0.87988752  0.12906864  1
  O  O389  1  0.12993625  0.88079985  0.63067272  1
  O  O390  1  0.62696263  0.37479979  0.13921281  1
  O  O391  1  0.63008124  0.38261926  0.63197822  1
  O  O392  1  0.62710358  0.88489450  0.12738165  1
  O  O393  1  0.63597174  0.86537190  0.63600850  1
  O  O394  1  0.11458194  0.25587724  0.25027498  1
  O  O395  1  0.12754497  0.26355875  0.74220423  1
  O  O396  1  0.12434273  0.75678750  0.25632062  1
  O  O397  1  0.12089480  0.75678096  0.75554635  1
  O  O398  1  0.61539799  0.25539169  0.24993136  1
  O  O399  1  0.62508817  0.25987934  0.75941739  1
  O  O400  1  0.62412983  0.75249991  0.25853546  1
  O  O401  1  0.62013322  0.75947131  0.75623566  1
  O  O402  1  0.38346771  0.24567650  0.23953304  1
  O  O403  1  0.37908673  0.24134187  0.73980410  1
  O  O404  1  0.37477510  0.74287446  0.24173690  1
  O  O405  1  0.38161656  0.74964945  0.74327897  1
  O  O406  1  0.88189792  0.24528965  0.24565374  1
  O  O407  1  0.86952872  0.24367848  0.74008447  1
  O  O408  1  0.87373545  0.74081271  0.24234266  1
  O  O409  1  0.88074310  0.74987710  0.74213731  1
  O  O410  1  0.38032011  0.50174040  0.49262282  1
  O  O411  1  0.37592486  0.49731935  0.98544308  1
  O  O412  1  0.38498059  0.99103451  0.49640607  1
  O  O413  1  0.37533949  0.99352134  0.99297957  1
  O  O414  1  0.87263123  0.48298273  0.50990648  1
  O  O415  1  0.88516073  0.49425901  1.00056421  1
  O  O416  1  0.88113218  0.99768355  0.49390434  1
  O  O417  1  0.88054957  0.99512334  0.99602132  1
  O  O418  1  0.11947773  0.00849520  0.00554004  1
  O  O419  1  0.11807172  0.00658134  0.50760224  1
  O  O420  1  0.11884668  0.50512353  0.00382957  1
  O  O421  1  0.12606014  0.50679329  0.51117342  1
  O  O422  1  0.62542879  0.00120178  0.01149456  1
  O  O423  1  0.60883276  -0.00576784  0.49781015  1
  O  O424  1  0.62101654  0.50355989  0.00587226  1
  O  O425  1  0.61941272  0.50549976  0.50534514  1
  O  O426  1  0.37006078  0.36629341  0.12456713  1
  O  O427  1  0.36636367  0.36656962  0.62472256  1
  O  O428  1  0.36908295  0.87022120  0.11908032  1
  O  O429  1  0.36779649  0.86860240  0.62044729  1
  O  O430  1  0.87379812  0.36796876  0.11764765  1
  O  O431  1  0.87073201  0.36718746  0.62191818  1
  O  O432  1  0.87356719  0.86590190  0.12053320  1
  O  O433  1  0.86564922  0.86445745  0.62587845  1
  O  O434  1  0.13997550  0.12640472  0.37397053  1
  O  O435  1  0.13475397  0.11809051  0.88465179  1
  O  O436  1  0.13164780  0.63219771  0.38013471  1
  O  O437  1  0.13077634  0.63082104  0.88009059  1
  O  O438  1  0.63873081  0.12319386  0.36924956  1
  O  O439  1  0.63250706  0.13150758  0.87472741  1
  O  O440  1  0.63418729  0.63005795  0.37961023  1
  O  O441  1  0.63512425  0.63109448  0.87548387  1
