# generated using pymatgen
data_V93Zn93O256
_symmetry_space_group_name_H-M   'P 1'
_cell_length_a   17.04822847
_cell_length_b   17.04752148
_cell_length_c   17.04790093
_cell_angle_alpha   89.96163145
_cell_angle_beta   89.96018974
_cell_angle_gamma   90.00704508
_symmetry_Int_Tables_number   1
_chemical_formula_structural   V93Zn93O256
_chemical_formula_sum   'V93 Zn93 O256'
_cell_volume   4954.62980360
_cell_formula_units_Z   1
loop_
 _symmetry_equiv_pos_site_id
 _symmetry_equiv_pos_as_xyz
  1  'x, y, z'
loop_
 _atom_site_type_symbol
 _atom_site_label
 _atom_site_symmetry_multiplicity
 _atom_site_fract_x
 _atom_site_fract_y
 _atom_site_fract_z
 _atom_site_occupancy
  V  V0  1  0.75029700  0.87588443  0.12628375  1
  V  V1  1  0.37502788  0.25063625  0.62527456  1
  V  V2  1  -0.00001016  0.75088237  0.75016611  1
  V  V3  1  0.12394404  0.74828093  0.87941878  1
  V  V4  1  0.87442670  0.75083069  0.62430797  1
  V  V5  1  0.87698526  0.62618533  0.24753114  1
  V  V6  1  -0.00139459  0.50061349  0.49923489  1
  V  V7  1  0.24536125  0.75092191  0.49745895  1
  V  V8  1  0.37422466  0.37632804  0.49995266  1
  V  V9  1  0.88071417  0.12386155  0.74418545  1
  V  V10  1  0.62381835  0.74996724  0.87408733  1
  V  V11  1  0.62530154  0.62601221  0.50028445  1
  V  V12  1  0.62332998  0.49767154  0.62828928  1
  V  V13  1  0.12431977  0.49951257  0.12477414  1
  V  V14  1  0.00702014  0.37473150  0.37055938  1
  V  V15  1  0.62519447  0.37412548  0.24964642  1
  V  V16  1  0.87827179  0.24828794  0.62473790  1
  V  V17  1  0.87649088  0.00021658  0.87491714  1
  V  V18  1  0.24821998  0.50163808  0.75051454  1
  V  V19  1  0.87730769  0.87583338  0.00037457  1
  V  V20  1  0.75038734  0.74926168  0.00052646  1
  V  V21  1  0.87479299  0.37468065  0.49954628  1
  V  V22  1  0.75128339  0.37444902  0.12538308  1
  V  V23  1  0.87401613  0.62490825  0.74933214  1
  V  V24  1  0.12034574  0.12574255  0.50517742  1
  V  V25  1  0.74608683  0.49731620  0.74949539  1
  V  V26  1  0.87418241  0.49963202  0.37406750  1
  V  V27  1  0.87717347  0.24877151  0.12538535  1
  V  V28  1  0.62426587  0.87481822  0.75172271  1
  V  V29  1  0.75133440  -0.00017956  0.74927156  1
  V  V30  1  0.12553310  0.24989259  0.87527394  1
  V  V31  1  -0.00008026  0.37481794  0.87451200  1
  V  V32  1  0.74951828  0.87493057  0.62433909  1
  V  V33  1  0.12292830  0.50091163  0.62497551  1
  V  V34  1  0.74457943  0.37454674  0.62910325  1
  V  V35  1  0.62512137  0.12283309  0.00171243  1
  V  V36  1  0.12502176  0.87540514  0.74942478  1
  V  V37  1  0.37578493  0.12452489  0.24991103  1
  V  V38  1  0.24676831  0.62398684  0.87876370  1
  V  V39  1  0.24769022  0.74751245  0.00192671  1
  V  V40  1  0.12415967  0.37472576  0.74944884  1
  V  V41  1  0.37262924  0.62639045  0.74908011  1
  V  V42  1  0.37374785  0.87657528  0.50046611  1
  V  V43  1  0.12291962  0.62991252  0.49813213  1
  V  V44  1  0.75050010  0.24945769  0.49880735  1
  V  V45  1  0.37445821  0.24910727  0.12452095  1
  V  V46  1  0.37492639  0.87466333  0.00083757  1
  V  V47  1  -0.00130191  0.62511069  0.62422247  1
  V  V48  1  0.50125439  0.25005060  0.24984405  1
  V  V49  1  0.62533732  0.49942691  0.12499170  1
  V  V50  1  0.75081406  0.49912887  0.25038409  1
  V  V51  1  0.87690489  0.11776931  0.25341366  1
  V  V52  1  0.62622422  0.12491958  0.49915560  1
  V  V53  1  0.49914548  0.50127863  0.49984309  1
  V  V54  1  0.24975584  0.25062027  -0.00049613  1
  V  V55  1  0.62528390  0.62420597  -0.00007884  1
  V  V56  1  0.87606279  0.37390283  -0.00028653  1
  V  V57  1  0.37739306  -0.00022995  0.87626483  1
  V  V58  1  0.00322370  0.87144033  0.37529595  1
  V  V59  1  0.12646511  0.86684885  0.25588078  1
  V  V60  1  0.62295739  0.25525690  0.86922434  1
  V  V61  1  0.37563396  -0.00023914  0.37590514  1
  V  V62  1  0.24302382  0.62919197  0.37390467  1
  V  V63  1  0.00631795  0.25212874  0.24998213  1
  V  V64  1  0.87387959  0.88106499  0.49223335  1
  V  V65  1  0.74836909  0.74957949  0.49971601  1
  V  V66  1  0.49798865  0.62588305  0.62524310  1
  V  V67  1  0.24967599  0.12659354  0.87536268  1
  V  V68  1  0.24852745  0.25046345  0.49881910  1
  V  V69  1  0.62489261  0.87602319  0.25120346  1
  V  V70  1  0.24913793  0.12545555  0.37614793  1
  V  V71  1  0.75493405  0.11811236  0.37477154  1
  V  V72  1  -0.00004235  0.24834879  0.74642839  1
  V  V73  1  0.37461028  0.50156186  0.37320495  1
  V  V74  1  0.00505334  0.50714286  0.00009865  1
  V  V75  1  0.24989605  -0.00016461  0.74923334  1
  V  V76  1  0.12464551  0.00027451  0.12495049  1
  V  V77  1  0.24875081  0.37631006  0.62415225  1
  V  V78  1  0.24969623  -0.00064444  0.25115178  1
  V  V79  1  0.24820893  0.87632187  0.62474983  1
  V  V80  1  0.62408624  0.00113303  0.62567934  1
  V  V81  1  0.49907567  0.49922437  0.00020684  1
  V  V82  1  0.74950507  0.62357558  0.87481110  1
  V  V83  1  0.75079125  0.24914289  0.00030857  1
  V  V84  1  0.24363861  0.49296006  0.24999426  1
  V  V85  1  0.49935130  0.00082654  0.50063343  1
  V  V86  1  0.49906975  0.74930212  0.25024412  1
  V  V87  1  0.37973146  0.12906188  0.74927908  1
  V  V88  1  0.37359555  0.75045890  0.62509254  1
  V  V89  1  -0.00159791  0.00289736  0.50110816  1
  V  V90  1  0.49953617  0.62527932  0.12574911  1
  V  V91  1  0.37548699  0.37566439  -0.00116068  1
  V  V92  1  0.87498352  0.49920843  0.87454191  1
  Zn  Zn93  1  0.37607490  0.50047445  0.87433863  1
  Zn  Zn94  1  0.75445392  -0.00365302  0.25438652  1
  Zn  Zn95  1  0.62390609  0.00070806  0.12595532  1
  Zn  Zn96  1  0.24953485  0.87254478  0.12773203  1
  Zn  Zn97  1  0.37393132  0.74930001  0.12488547  1
  Zn  Zn98  1  0.51186186  0.26354308  0.74018980  1
  Zn  Zn99  1  0.00048067  0.12517541  0.12383177  1
  Zn  Zn100  1  0.75075084  0.12615817  0.87475992  1
  Zn  Zn101  1  0.24367582  0.37171671  0.12957558  1
  Zn  Zn102  1  0.50215679  -0.00143073  0.00311260  1
  Zn  Zn103  1  0.74881127  0.62554286  0.37446511  1
  Zn  Zn104  1  0.87974616  0.74960053  0.12628041  1
  Zn  Zn105  1  0.11983756  0.00520342  0.62848522  1
  Zn  Zn106  1  0.62426150  0.74848423  0.37640322  1
  Zn  Zn107  1  0.00411957  0.74673624  0.25168717  1
  Zn  Zn108  1  0.50253534  0.37614546  0.37493375  1
  Zn  Zn109  1  0.50034222  0.87332645  0.37640834  1
  Zn  Zn110  1  0.50081858  0.12074070  0.12567467  1
  Zn  Zn111  1  0.50167479  0.12776887  0.62391035  1
  Zn  Zn112  1  0.00564479  0.62978965  0.12122529  1
  Zn  Zn113  1  0.00286006  0.00196590  0.00044111  1
  Zn  Zn114  1  0.50087997  0.87320954  0.87523400  1
  Zn  Zn115  1  0.62657795  0.25061364  0.37438050  1
  Zn  Zn116  1  0.37209230  0.62621869  0.24741254  1
  Zn  Zn117  1  0.50455985  0.38222999  0.86744297  1
  Zn  Zn118  1  0.00125293  0.87486284  0.87554227  1
  Zn  Zn119  1  0.12738229  0.25208241  0.37116866  1
  Zn  Zn120  1  0.49858175  0.75124813  0.75122162  1
  Zn  Zn121  1  0.12309224  0.12484053  0.00054959  1
  Zn  Zn122  1  0.18860584  0.18535125  0.18637402  1
  Zn  Zn123  1  0.18984327  0.18792952  0.68768403  1
  Zn  Zn124  1  0.18663284  0.68108964  0.18530957  1
  Zn  Zn125  1  0.18649779  0.68935027  0.68737448  1
  Zn  Zn126  1  0.68991869  0.18649427  0.18810991  1
  Zn  Zn127  1  0.69340266  0.18421958  0.68670462  1
  Zn  Zn128  1  0.68873523  0.68837699  0.18780360  1
  Zn  Zn129  1  0.68593495  0.68651436  0.68714629  1
  Zn  Zn130  1  0.31454620  0.31233817  0.31359065  1
  Zn  Zn131  1  0.31447676  0.31435937  0.81272011  1
  Zn  Zn132  1  0.31349958  0.81293491  0.31351449  1
  Zn  Zn133  1  0.31134723  0.81260694  0.81284520  1
  Zn  Zn134  1  0.81620923  0.30868563  0.31261555  1
  Zn  Zn135  1  0.81135314  0.31056886  0.81252363  1
  Zn  Zn136  1  0.81231392  0.80913781  0.31471580  1
  Zn  Zn137  1  0.81070664  0.81236013  0.81334260  1
  Zn  Zn138  1  0.18672105  0.44130947  0.43815635  1
  Zn  Zn139  1  0.18650008  0.43645795  0.94013391  1
  Zn  Zn140  1  0.18470194  0.94028971  0.43778108  1
  Zn  Zn141  1  0.18957310  0.93559311  0.93760233  1
  Zn  Zn142  1  0.68647681  0.43727884  0.43772778  1
  Zn  Zn143  1  0.68835113  0.43666072  0.93860169  1
  Zn  Zn144  1  0.68529335  0.93734852  0.43682543  1
  Zn  Zn145  1  0.69010672  0.93746604  0.93673748  1
  Zn  Zn146  1  0.30974243  0.06316955  0.06390080  1
  Zn  Zn147  1  0.31013193  0.06358831  0.56354579  1
  Zn  Zn148  1  0.31250651  0.56192686  0.06487453  1
  Zn  Zn149  1  0.31063737  0.56394471  0.56131023  1
  Zn  Zn150  1  0.81196855  0.06287152  0.06514915  1
  Zn  Zn151  1  0.81273573  0.06198386  0.56230428  1
  Zn  Zn152  1  0.81508978  0.56125677  0.06307252  1
  Zn  Zn153  1  0.81100963  0.56180582  0.56205849  1
  Zn  Zn154  1  0.43494798  0.43660813  0.18692736  1
  Zn  Zn155  1  0.43589695  0.43886945  0.68854733  1
  Zn  Zn156  1  0.43853953  0.93759623  0.18505009  1
  Zn  Zn157  1  0.43895757  0.93770690  0.68776532  1
  Zn  Zn158  1  0.93955241  0.43747581  0.18650719  1
  Zn  Zn159  1  0.93452612  0.43557833  0.68709372  1
  Zn  Zn160  1  0.94189352  0.93645227  0.18785071  1
  Zn  Zn161  1  0.93889634  0.93651349  0.68373882  1
  Zn  Zn162  1  0.06093546  0.05936148  0.31686505  1
  Zn  Zn163  1  0.06179584  0.06279084  0.81331653  1
  Zn  Zn164  1  0.06267647  0.56060391  0.31005513  1
  Zn  Zn165  1  0.06234095  0.56392979  0.81324283  1
  Zn  Zn166  1  0.56443322  0.06233300  0.31487189  1
  Zn  Zn167  1  0.56343716  0.06572100  0.81503452  1
  Zn  Zn168  1  0.56369935  0.56399510  0.31305259  1
  Zn  Zn169  1  0.56096964  0.56248721  0.81098295  1
  Zn  Zn170  1  0.43802666  0.18746916  0.43688448  1
  Zn  Zn171  1  0.44114973  0.18806089  0.93808787  1
  Zn  Zn172  1  0.43488597  0.68814788  0.43703108  1
  Zn  Zn173  1  0.43650287  0.68687006  0.93671412  1
  Zn  Zn174  1  0.93779434  0.18796454  0.43526915  1
  Zn  Zn175  1  0.94039398  0.18451549  0.93670080  1
  Zn  Zn176  1  0.93518320  0.68977984  0.43479943  1
  Zn  Zn177  1  0.93556211  0.68885176  0.93651044  1
  Zn  Zn178  1  0.06363152  0.31605497  0.06368066  1
  Zn  Zn179  1  0.06162194  0.31179527  0.56043239  1
  Zn  Zn180  1  0.06255445  0.81373330  0.06763657  1
  Zn  Zn181  1  0.06199553  0.81437574  0.56233131  1
  Zn  Zn182  1  0.56177122  0.31091003  0.06079435  1
  Zn  Zn183  1  0.56161821  0.31203876  0.55934792  1
  Zn  Zn184  1  0.56192185  0.81221469  0.06276558  1
  Zn  Zn185  1  0.56071127  0.81310636  0.56432943  1
  O  O186  1  0.12475384  0.11232129  0.12419832  1
  O  O187  1  0.13097877  0.12545310  0.61033819  1
  O  O188  1  0.12184966  0.60764221  0.12707778  1
  O  O189  1  0.11768476  0.61993021  0.62063502  1
  O  O190  1  0.62700390  0.12378685  0.11416027  1
  O  O191  1  0.62639844  0.11841939  0.61832544  1
  O  O192  1  0.62094569  0.61906556  0.11911004  1
  O  O193  1  0.61802642  0.61907954  0.61924499  1
  O  O194  1  0.37500986  0.38769720  0.38113500  1
  O  O195  1  0.37551695  0.37706571  0.88858728  1
  O  O196  1  0.37587911  0.88256219  0.38310584  1
  O  O197  1  0.37364561  0.88417953  0.88179765  1
  O  O198  1  0.88292800  0.37988522  0.38096192  1
  O  O199  1  0.87992469  0.37993327  0.87900060  1
  O  O200  1  0.88054343  0.87251028  0.38700998  1
  O  O201  1  0.87410152  0.88227034  0.88315758  1
  O  O202  1  0.25636542  0.00594294  0.37084179  1
  O  O203  1  0.25931403  0.00528789  0.86943098  1
  O  O204  1  0.25566282  0.50701204  0.36984522  1
  O  O205  1  0.24675531  0.51020475  0.87050046  1
  O  O206  1  0.74777894  0.01359572  0.37512774  1
  O  O207  1  0.76266646  -0.00044215  0.86764311  1
  O  O208  1  0.75706075  0.49954024  0.36821089  1
  O  O209  1  0.75506758  0.50375927  0.87029348  1
  O  O210  1  0.24349550  0.50019325  0.13369848  1
  O  O211  1  0.24234875  0.49614692  0.62950844  1
  O  O212  1  0.24210169  0.99800749  0.13309678  1
  O  O213  1  0.24841885  0.99345005  0.63242197  1
  O  O214  1  0.74478203  0.49343642  0.12970973  1
  O  O215  1  0.74520929  0.49203660  0.62882533  1
  O  O216  1  0.74800387  0.98563504  0.12756484  1
  O  O217  1  0.74425588  0.99395071  0.62999516  1
  O  O218  1  -0.00838125  0.36512177  0.26062244  1
  O  O219  1  0.00469245  0.37083431  0.75564379  1
  O  O220  1  0.00830336  0.87528146  0.25958613  1
  O  O221  1  0.00548997  0.86738163  0.75085819  1
  O  O222  1  0.50532329  0.36632574  0.24931083  1
  O  O223  1  0.49317087  0.37299549  0.75559415  1
  O  O224  1  0.50848589  0.86586411  0.24895513  1
  O  O225  1  0.50815812  0.87311332  0.75342934  1
  O  O226  1  0.49507704  0.13404107  0.25054912  1
  O  O227  1  0.48745666  0.12812798  0.74928128  1
  O  O228  1  0.50080176  0.63412171  0.24421539  1
  O  O229  1  0.49088096  0.62610921  0.74236047  1
  O  O230  1  0.99218542  0.13277628  0.25268534  1
  O  O231  1  0.98857958  0.13121154  0.75429124  1
  O  O232  1  0.98913114  0.62495934  0.25036424  1
  O  O233  1  0.99369020  0.63029781  0.74438213  1
  O  O234  1  0.37094659  0.25630933  0.00373907  1
  O  O235  1  0.36875879  0.25573683  0.50434893  1
  O  O236  1  0.36570591  0.75878726  -0.00262492  1
  O  O237  1  0.36705330  0.75629612  0.50560412  1
  O  O238  1  0.87146201  0.25471012  0.00380729  1
  O  O239  1  0.87057136  0.25439186  0.50562305  1
  O  O240  1  0.86838387  0.76021862  -0.00124183  1
  O  O241  1  0.86899832  0.75880733  0.50597487  1
  O  O242  1  0.12986110  0.24294339  0.49725167  1
  O  O243  1  0.13160092  0.25164623  0.99254353  1
  O  O244  1  0.13242607  0.74206569  0.50651527  1
  O  O245  1  0.13452427  0.75914430  0.98934967  1
  O  O246  1  0.63268947  0.24296521  0.49851787  1
  O  O247  1  0.63081536  0.24209125  0.99271331  1
  O  O248  1  0.63080515  0.74468490  0.50222217  1
  O  O249  1  0.63092931  0.74375632  0.99496717  1
  O  O250  1  0.49411882  0.24790503  0.13550453  1
  O  O251  1  0.49194939  0.24721218  0.62485553  1
  O  O252  1  0.50021373  0.74358221  0.13393723  1
  O  O253  1  0.49117942  0.74338926  0.62644529  1
  O  O254  1  0.99529941  0.25145692  0.13373843  1
  O  O255  1  0.99035234  0.25970032  0.63365045  1
  O  O256  1  0.99707666  0.74610966  0.13044284  1
  O  O257  1  0.99383644  0.74437877  0.63013756  1
  O  O258  1  0.00060457  0.25937566  0.36749691  1
  O  O259  1  0.00526367  0.25622580  0.86756306  1
  O  O260  1  -0.00283284  0.76559030  0.37387513  1
  O  O261  1  0.00887464  0.74959283  0.86998055  1
  O  O262  1  0.49985049  0.25321869  0.36175559  1
  O  O263  1  0.51632763  0.25029543  0.87402841  1
  O  O264  1  0.50075107  0.75099815  0.36395177  1
  O  O265  1  0.50861259  0.75017630  0.87234399  1
  O  O266  1  0.24330694  0.13096794  0.49486886  1
  O  O267  1  0.24911554  0.13311483  0.99217721  1
  O  O268  1  0.24291641  0.62965636  0.49299639  1
  O  O269  1  0.25671748  0.63506889  0.98897954  1
  O  O270  1  0.74751397  0.12929831  0.49340653  1
  O  O271  1  0.74356766  0.13128112  0.99867321  1
  O  O272  1  0.74355666  0.63177131  0.50139715  1
  O  O273  1  0.74560758  0.62824907  0.99484207  1
  O  O274  1  0.25955269  0.36906871  0.00120253  1
  O  O275  1  0.25363365  0.37140493  0.50480536  1
  O  O276  1  0.25922989  0.86422828  -0.00073311  1
  O  O277  1  0.25375489  0.87122921  0.50425556  1
  O  O278  1  0.75701677  0.37008880  0.00636320  1
  O  O279  1  0.75584247  0.37019735  0.50762630  1
  O  O280  1  0.75748691  0.86995395  0.00740341  1
  O  O281  1  0.75621184  0.87167938  0.50446276  1
  O  O282  1  0.13549603  0.50118419  0.24357858  1
  O  O283  1  0.12801711  0.49482601  0.74438354  1
  O  O284  1  0.13056607  0.99272406  0.24459506  1
  O  O285  1  0.13107556  0.99485178  0.75000183  1
  O  O286  1  0.63011864  0.49461975  0.24390899  1
  O  O287  1  0.63378740  0.50712753  0.74112514  1
  O  O288  1  0.62747194  0.98682799  0.24923553  1
  O  O289  1  0.63111638  0.99657074  0.74680395  1
  O  O290  1  0.37029315  0.00414655  0.25566255  1
  O  O291  1  0.37062675  0.00781384  0.75758381  1
  O  O292  1  0.36799599  0.50288741  0.25898131  1
  O  O293  1  0.36401822  0.50831824  0.75138518  1
  O  O294  1  0.87534539  0.01368601  0.24413232  1
  O  O295  1  0.87305427  0.00477867  0.75439718  1
  O  O296  1  0.87025736  0.50582072  0.25404069  1
  O  O297  1  0.86890934  0.50563311  0.75518063  1
  O  O298  1  0.11064112  0.37522292  0.38134489  1
  O  O299  1  0.11997012  0.36994763  0.86796010  1
  O  O300  1  0.11791595  0.87951050  0.36569565  1
  O  O301  1  0.12491412  0.86506892  0.86821792  1
  O  O302  1  0.62280854  0.37241836  0.36626259  1
  O  O303  1  0.62594275  0.35898515  0.88170265  1
  O  O304  1  0.62301906  0.87146197  0.36403724  1
  O  O305  1  0.62617400  0.86824344  0.86982527  1
  O  O306  1  0.37545910  0.13148391  0.13246761  1
  O  O307  1  0.37394809  0.13112983  0.63443546  1
  O  O308  1  0.38426838  0.62775296  0.12704731  1
  O  O309  1  0.37762312  0.63059530  0.62878898  1
  O  O310  1  0.87591205  0.13181916  0.13434203  1
  O  O311  1  0.86890786  0.13165975  0.63627222  1
  O  O312  1  0.87690728  0.62461680  0.13615342  1
  O  O313  1  0.87961813  0.63013136  0.62973363  1
  O  O314  1  0.25613344  0.25155598  0.11924037  1
  O  O315  1  0.25487550  0.25771999  0.61864884  1
  O  O316  1  0.25024575  0.74828828  0.11266168  1
  O  O317  1  0.25482745  0.75584498  0.61879968  1
  O  O318  1  0.75707514  0.25605946  0.12021075  1
  O  O319  1  0.75646893  0.25759610  0.62004471  1
  O  O320  1  0.75285442  0.76007812  0.11893130  1
  O  O321  1  0.75515099  0.75575911  0.61991065  1
  O  O322  1  0.24901897  0.24496201  0.38073537  1
  O  O323  1  0.24471500  0.24603097  0.87882184  1
  O  O324  1  0.25778772  0.73607828  0.38091556  1
  O  O325  1  0.24230838  0.74334741  0.88092497  1
  O  O326  1  0.75006617  0.24074652  0.38165601  1
  O  O327  1  0.74083258  0.24929560  0.88165471  1
  O  O328  1  0.74646273  0.74686361  0.38581047  1
  O  O329  1  0.74475821  0.74265030  0.88062133  1
  O  O330  1  0.00468335  0.12045255  0.00431264  1
  O  O331  1  0.00858796  0.11606505  0.49071736  1
  O  O332  1  -0.00969626  0.61030837  -0.00034197  1
  O  O333  1  0.00218327  0.62053984  0.50449474  1
  O  O334  1  0.51178677  0.12406869  0.00281348  1
  O  O335  1  0.50734497  0.11901881  0.50010562  1
  O  O336  1  0.50589388  0.62021676  0.00586715  1
  O  O337  1  0.50368028  0.62038675  0.50565558  1
  O  O338  1  0.49230499  0.38316474  0.49779299  1
  O  O339  1  0.49132641  0.38035651  0.99842927  1
  O  O340  1  0.49210922  0.88206345  0.50018638  1
  O  O341  1  0.48788793  0.87521859  0.99681412  1
  O  O342  1  0.99379498  0.38097337  0.49250844  1
  O  O343  1  0.99392226  0.38263908  0.99264192  1
  O  O344  1  0.99272507  0.87951218  0.49430926  1
  O  O345  1  0.98690350  0.87682573  0.99895914  1
  O  O346  1  0.48909381  0.50144389  0.37963604  1
  O  O347  1  0.49731304  0.50149150  0.88489101  1
  O  O348  1  0.49313150  0.99828607  0.38228495  1
  O  O349  1  0.48627375  1.00006897  0.87768520  1
  O  O350  1  0.99445136  0.49260114  0.37960441  1
  O  O351  1  0.99542336  0.49525908  0.88015925  1
  O  O352  1  1.00259448  0.98614832  0.38905221  1
  O  O353  1  0.98777948  0.99583937  0.87586752  1
  O  O354  1  0.01270073  0.00103271  0.12413993  1
  O  O355  1  0.00320674  -0.00606954  0.60839799  1
  O  O356  1  0.00589907  0.49954360  0.11584491  1
  O  O357  1  0.00277566  0.50508355  0.61978440  1
  O  O358  1  0.50546516  0.00296746  0.12071366  1
  O  O359  1  0.50639729  0.00359945  0.61883540  1
  O  O360  1  0.50619035  0.50494443  0.12066696  1
  O  O361  1  0.50311058  0.50633886  0.61865466  1
  O  O362  1  0.25736126  0.38844993  0.24931295  1
  O  O363  1  0.24378250  0.38109000  0.74446679  1
  O  O364  1  0.24301359  0.88082292  0.25156417  1
  O  O365  1  0.24486758  0.88019729  0.74503645  1
  O  O366  1  0.74662819  0.37849643  0.24414160  1
  O  O367  1  0.75774500  0.38066623  0.73668780  1
  O  O368  1  0.74391705  0.87322434  0.24355334  1
  O  O369  1  0.74553335  0.88017177  0.74360701  1
  O  O370  1  0.25638864  0.11998936  0.25683259  1
  O  O371  1  0.25964355  0.12049034  0.75536348  1
  O  O372  1  0.25139210  0.61652784  0.25957032  1
  O  O373  1  0.25242549  0.62138921  0.75753928  1
  O  O374  1  0.75838814  0.12417053  0.25794030  1
  O  O375  1  0.76284905  0.11734274  0.75289539  1
  O  O376  1  0.75788179  0.61742839  0.25036511  1
  O  O377  1  0.75575696  0.61897870  0.75478031  1
  O  O378  1  0.36891481  0.11954638  0.36997254  1
  O  O379  1  0.37063056  0.11955951  0.86871314  1
  O  O380  1  0.36416504  0.61363310  0.37666225  1
  O  O381  1  0.36229367  0.62520415  0.86851857  1
  O  O382  1  0.86575385  0.13099284  0.36526581  1
  O  O383  1  0.87361980  0.11553666  0.86594120  1
  O  O384  1  0.87320006  0.61738324  0.36646353  1
  O  O385  1  0.86857466  0.61907237  0.86880233  1
  O  O386  1  0.12768875  0.39086290  0.12199545  1
  O  O387  1  0.12920082  0.38108733  0.62955677  1
  O  O388  1  0.12786148  0.88435500  0.13545474  1
  O  O389  1  0.13187760  0.87562490  0.63266847  1
  O  O390  1  0.63142422  0.37975916  0.12887598  1
  O  O391  1  0.63777636  0.37996698  0.61763827  1
  O  O392  1  0.63489077  0.87330123  0.13261284  1
  O  O393  1  0.63067452  0.88126794  0.63095668  1
  O  O394  1  0.11099128  0.24322884  0.25120550  1
  O  O395  1  0.12064779  0.25557441  0.75412314  1
  O  O396  1  0.12727816  0.76370474  0.24346093  1
  O  O397  1  0.12023045  0.75523319  0.75848180  1
  O  O398  1  0.61625646  0.25516589  0.24844766  1
  O  O399  1  0.62891201  0.24074738  0.76558259  1
  O  O400  1  0.61699392  0.75811184  0.25036194  1
  O  O401  1  0.62538441  0.75634807  0.75623488  1
  O  O402  1  0.38235995  0.24548666  0.24525738  1
  O  O403  1  0.37160525  0.24049148  0.74416293  1
  O  O404  1  0.38593656  0.74937115  0.24742450  1
  O  O405  1  0.37342138  0.74428337  0.74290635  1
  O  O406  1  0.88436477  0.24122735  0.24415732  1
  O  O407  1  0.87918987  0.24171690  0.74618411  1
  O  O408  1  0.87493085  0.73741878  0.24976131  1
  O  O409  1  0.87900800  0.74474857  0.74518634  1
  O  O410  1  0.37808485  0.49650531  0.49264369  1
  O  O411  1  0.37978412  0.49113694  1.00035667  1
  O  O412  1  0.37882913  0.99640081  0.49601462  1
  O  O413  1  0.37074430  0.99201945  0.99108641  1
  O  O414  1  0.88021826  0.49531720  0.49509504  1
  O  O415  1  0.88129780  0.49266907  0.99344844  1
  O  O416  1  0.88161969  0.98868091  0.50629429  1
  O  O417  1  0.87246823  0.99173100  0.99136012  1
  O  O418  1  0.12673833  -0.00198757  0.01071712  1
  O  O419  1  0.11784651  0.00898556  0.50279724  1
  O  O420  1  0.11302851  0.49641766  0.00516027  1
  O  O421  1  0.11771740  0.50775848  0.50668830  1
  O  O422  1  0.62606934  0.01048954  -0.00198396  1
  O  O423  1  0.61968601  0.00468734  0.50616637  1
  O  O424  1  0.62072424  0.50479479  0.00596795  1
  O  O425  1  0.61871715  0.50525547  0.50691256  1
  O  O426  1  0.37321832  0.36844904  0.11381520  1
  O  O427  1  0.36680112  0.37152806  0.61845176  1
  O  O428  1  0.37063927  0.87295289  0.11314775  1
  O  O429  1  0.36801770  0.87096123  0.62015849  1
  O  O430  1  0.87031290  0.36931741  0.11937758  1
  O  O431  1  0.86545861  0.37031254  0.61836564  1
  O  O432  1  0.86747295  0.87538378  0.11716414  1
  O  O433  1  0.86866239  0.86908338  0.61635014  1
  O  O434  1  0.13253156  0.12538134  0.38554065  1
  O  O435  1  0.13233701  0.13219010  0.87421373  1
  O  O436  1  0.13571300  0.61714442  0.38183323  1
  O  O437  1  0.13483332  0.63708604  0.86872866  1
  O  O438  1  0.63581820  0.12815479  0.38067560  1
  O  O439  1  0.62895480  0.13385378  0.88463966  1
  O  O440  1  0.62779144  0.62641529  0.38491652  1
  O  O441  1  0.63146988  0.62898535  0.88085405  1
