# generated using pymatgen
data_V93Zn93O256
_symmetry_space_group_name_H-M   'P 1'
_cell_length_a   17.04575052
_cell_length_b   17.04727522
_cell_length_c   17.04865286
_cell_angle_alpha   90.04985109
_cell_angle_beta   89.97049366
_cell_angle_gamma   89.96527021
_symmetry_Int_Tables_number   1
_chemical_formula_structural   V93Zn93O256
_chemical_formula_sum   'V93 Zn93 O256'
_cell_volume   4954.05549018
_cell_formula_units_Z   1
loop_
 _symmetry_equiv_pos_site_id
 _symmetry_equiv_pos_as_xyz
  1  'x, y, z'
loop_
 _atom_site_type_symbol
 _atom_site_label
 _atom_site_symmetry_multiplicity
 _atom_site_fract_x
 _atom_site_fract_y
 _atom_site_fract_z
 _atom_site_occupancy
  V  V0  1  0.37501605  0.87370605  0.49966595  1
  V  V1  1  0.50424623  0.25187143  0.25118520  1
  V  V2  1  0.24879878  0.00128045  0.74955589  1
  V  V3  1  0.00017698  0.25000620  0.75078916  1
  V  V4  1  0.87396487  0.62466748  0.74988144  1
  V  V5  1  0.50103106  0.24986459  0.74975529  1
  V  V6  1  0.87936861  0.87272426  0.49356250  1
  V  V7  1  -0.00138714  0.00286222  0.00576465  1
  V  V8  1  0.87587433  0.25034878  0.62644529  1
  V  V9  1  0.49894314  0.74963534  0.24955627  1
  V  V10  1  0.75016124  0.24542772  0.49698523  1
  V  V11  1  0.62696889  0.49739503  0.12673931  1
  V  V12  1  0.37412664  0.37643384  -0.00022294  1
  V  V13  1  0.87569378  0.87476478  -0.00100154  1
  V  V14  1  0.12559574  0.62860457  0.49478016  1
  V  V15  1  -0.00002459  0.50423743  0.00875675  1
  V  V16  1  0.00025696  -0.00182577  0.49852749  1
  V  V17  1  0.61775633  0.87085043  0.74905201  1
  V  V18  1  0.12021255  0.62652683  0.00704365  1
  V  V19  1  0.74971910  0.87357515  0.62456934  1
  V  V20  1  0.12551566  0.50245359  0.62673998  1
  V  V21  1  0.87503819  0.49782818  0.37474751  1
  V  V22  1  0.12870899  0.38141141  0.25167313  1
  V  V23  1  0.37317000  0.12458040  0.25124792  1
  V  V24  1  0.24792187  -0.00011443  0.25078887  1
  V  V25  1  0.11968770  0.87137555  0.26172294  1
  V  V26  1  0.49962399  0.62486264  0.12456837  1
  V  V27  1  0.88458104  0.24434440  0.12345283  1
  V  V28  1  0.75078536  0.49969150  0.75076998  1
  V  V29  1  0.87503660  0.50030783  0.87589937  1
  V  V30  1  0.88555164  0.74609026  0.12427551  1
  V  V31  1  0.74932643  0.74914848  0.00006218  1
  V  V32  1  0.75060308  0.37419016  0.62494552  1
  V  V33  1  0.00074790  0.62443886  0.62571490  1
  V  V34  1  0.36897808  0.50122003  0.37113449  1
  V  V35  1  0.87425838  0.74878392  0.62480807  1
  V  V36  1  -0.00081131  0.75138444  0.75018591  1
  V  V37  1  0.87686801  0.37413752  0.49987067  1
  V  V38  1  0.75064850  0.62290711  0.37395131  1
  V  V39  1  0.12018023  0.12551939  0.00899431  1
  V  V40  1  0.37881475  0.37836943  0.49893222  1
  V  V41  1  0.74935556  0.87305653  0.12467570  1
  V  V42  1  0.62518693  0.37477344  0.75039817  1
  V  V43  1  0.00153245  0.75276648  0.26800940  1
  V  V44  1  0.37495583  0.25188055  0.12492957  1
  V  V45  1  0.12365233  0.87561115  0.75004195  1
  V  V46  1  0.37530287  0.12611573  0.75067060  1
  V  V47  1  0.37421300  0.00101758  0.87605508  1
  V  V48  1  0.00156794  0.37026480  0.37462653  1
  V  V49  1  0.88207339  0.62276284  0.24571948  1
  V  V50  1  0.87538458  0.12378931  0.75086478  1
  V  V51  1  0.00038591  0.37741965  0.87677593  1
  V  V52  1  0.61817607  0.74965012  0.87181108  1
  V  V53  1  0.50176308  0.00041069  0.49872094  1
  V  V54  1  0.62558190  0.74751388  0.37312189  1
  V  V55  1  0.50111865  0.12465665  0.62299343  1
  V  V56  1  0.88238810  0.12251523  0.24543498  1
  V  V57  1  0.49888659  -0.00064905  -0.00142701  1
  V  V58  1  0.24966243  0.62667799  0.87485953  1
  V  V59  1  0.37367852  0.75053877  0.12515537  1
  V  V60  1  0.24918636  0.12649622  0.87581947  1
  V  V61  1  0.87686387  -0.00249574  0.37285537  1
  V  V62  1  0.37342799  0.87686500  0.00008274  1
  V  V63  1  0.62309307  0.50103494  0.62208435  1
  V  V64  1  0.37911758  0.63333140  0.74985708  1
  V  V65  1  0.49995743  0.87402197  0.37466377  1
  V  V66  1  0.24806821  0.75203107  0.00005215  1
  V  V67  1  0.74969525  0.74830199  0.49798717  1
  V  V68  1  0.62581471  0.24950870  0.87539446  1
  V  V69  1  0.62496151  0.87394437  0.24777304  1
  V  V70  1  0.62550758  -0.00254616  0.12395452  1
  V  V71  1  0.24949966  0.38440369  0.13032864  1
  V  V72  1  0.12323831  0.75191907  0.87463007  1
  V  V73  1  0.24936355  0.24843690  0.49811714  1
  V  V74  1  0.12399881  0.00140659  0.62411599  1
  V  V75  1  0.37637163  0.25213659  0.62565550  1
  V  V76  1  0.50047934  0.12429312  0.12468156  1
  V  V77  1  0.49901152  0.37565724  0.87537856  1
  V  V78  1  0.24662640  0.87624283  0.12637588  1
  V  V79  1  0.36633075  0.62165064  0.25034155  1
  V  V80  1  0.25023670  0.87506295  0.62418097  1
  V  V81  1  0.62510003  0.12420939  -0.00092498  1
  V  V82  1  0.75164815  0.25035350  0.00184328  1
  V  V83  1  0.74980465  -0.00117023  0.75039743  1
  V  V84  1  0.24919626  0.25137707  0.00107637  1
  V  V85  1  0.37533429  0.50112793  0.87550436  1
  V  V86  1  0.25021052  0.50196403  0.75116590  1
  V  V87  1  0.62453850  0.62508304  -0.00027233  1
  V  V88  1  0.12598142  0.37603804  0.75126375  1
  V  V89  1  0.24728009  0.74988863  0.49386888  1
  V  V90  1  0.25110503  0.37703173  0.62582177  1
  V  V91  1  0.12507980  0.25077772  0.87585182  1
  V  V92  1  0.50016828  0.63277778  0.62741160  1
  Zn  Zn93  1  0.74933996  0.12371122  0.87446621  1
  Zn  Zn94  1  0.12669196  0.24778205  0.37287320  1
  Zn  Zn95  1  0.75241387  0.37350652  0.12867368  1
  Zn  Zn96  1  0.00228270  0.49893768  0.50139150  1
  Zn  Zn97  1  0.62947272  0.37414986  0.25269601  1
  Zn  Zn98  1  0.75051634  -0.00030550  0.25002283  1
  Zn  Zn99  1  0.11749069  0.00333525  0.13086638  1
  Zn  Zn100  1  0.62233522  0.62459926  0.49714658  1
  Zn  Zn101  1  0.24730678  0.12479995  0.37615728  1
  Zn  Zn102  1  0.62535463  -0.00012760  0.62406490  1
  Zn  Zn103  1  -0.00232187  0.87692125  0.87467135  1
  Zn  Zn104  1  0.00270145  0.12644272  0.62452875  1
  Zn  Zn105  1  0.87632580  0.37630284  0.00341913  1
  Zn  Zn106  1  0.49529444  0.87217822  0.86954129  1
  Zn  Zn107  1  0.87579968  -0.00199984  0.87559777  1
  Zn  Zn108  1  0.24325201  0.62501910  0.37002738  1
  Zn  Zn109  1  0.74804513  0.62455314  0.87438628  1
  Zn  Zn110  1  0.50001264  0.50290946  0.49670988  1
  Zn  Zn111  1  0.50314580  0.37784143  0.37282194  1
  Zn  Zn112  1  0.37547911  -0.00000609  0.37461591  1
  Zn  Zn113  1  0.62535649  0.24956382  0.37555806  1
  Zn  Zn114  1  0.37830517  0.75313720  0.62734405  1
  Zn  Zn115  1  0.00585523  0.24424609  0.24459145  1
  Zn  Zn116  1  0.74818853  0.12290494  0.37129771  1
  Zn  Zn117  1  0.12322340  0.12660520  0.49872318  1
  Zn  Zn118  1  0.50088999  0.49952811  -0.00025691  1
  Zn  Zn119  1  0.62663707  0.12370832  0.49729967  1
  Zn  Zn120  1  0.12415191  0.50715609  0.13204991  1
  Zn  Zn121  1  0.75102492  0.49668195  0.24971965  1
  Zn  Zn122  1  0.18829208  0.19384670  0.18873649  1
  Zn  Zn123  1  0.18723162  0.18756247  0.68486493  1
  Zn  Zn124  1  0.18385548  0.69352571  0.18876335  1
  Zn  Zn125  1  0.18888952  0.68987425  0.68451623  1
  Zn  Zn126  1  0.69256156  0.18307228  0.18690158  1
  Zn  Zn127  1  0.68706813  0.18500689  0.68408299  1
  Zn  Zn128  1  0.69145439  0.68453201  0.18723041  1
  Zn  Zn129  1  0.68716520  0.68718160  0.68780574  1
  Zn  Zn130  1  0.31380850  0.31431553  0.31328484  1
  Zn  Zn131  1  0.31244291  0.31324675  0.81349468  1
  Zn  Zn132  1  0.31139064  0.81295934  0.31326193  1
  Zn  Zn133  1  0.30947936  0.81449481  0.81358073  1
  Zn  Zn134  1  0.81395017  0.31074228  0.30857300  1
  Zn  Zn135  1  0.81309678  0.31335575  0.81534977  1
  Zn  Zn136  1  0.81258054  0.81030110  0.31002999  1
  Zn  Zn137  1  0.80886507  0.81164105  0.81458180  1
  Zn  Zn138  1  0.18804876  0.43951744  0.43844985  1
  Zn  Zn139  1  0.18679136  0.44043296  0.94001930  1
  Zn  Zn140  1  0.18798340  0.93807092  0.43729080  1
  Zn  Zn141  1  0.18434842  0.94029319  0.93749235  1
  Zn  Zn142  1  0.68879565  0.43272859  0.43444362  1
  Zn  Zn143  1  0.68807087  0.43683455  0.93950183  1
  Zn  Zn144  1  0.68911422  0.93524866  0.43516218  1
  Zn  Zn145  1  0.68751826  0.93487685  0.93505693  1
  Zn  Zn146  1  0.30952009  0.06362333  0.06468939  1
  Zn  Zn147  1  0.31510424  0.06270532  0.56326542  1
  Zn  Zn148  1  0.31165580  0.56430391  0.06077855  1
  Zn  Zn149  1  0.31277837  0.56458601  0.56241304  1
  Zn  Zn150  1  0.81234054  0.06234932  0.06341466  1
  Zn  Zn151  1  0.81461499  0.06123519  0.56465849  1
  Zn  Zn152  1  0.81100657  0.56370305  0.06218390  1
  Zn  Zn153  1  0.81197092  0.56088934  0.56080343  1
  Zn  Zn154  1  0.43898029  0.43938155  0.18696786  1
  Zn  Zn155  1  0.43854608  0.44183273  0.68857600  1
  Zn  Zn156  1  0.43683216  0.93766064  0.18641311  1
  Zn  Zn157  1  0.43609955  0.93978350  0.68487164  1
  Zn  Zn158  1  0.93699545  0.43082940  0.18823987  1
  Zn  Zn159  1  0.93868031  0.43765227  0.68828583  1
  Zn  Zn160  1  0.93867487  0.93317493  0.18702878  1
  Zn  Zn161  1  0.93729532  0.93664889  0.68372089  1
  Zn  Zn162  1  0.06364271  0.06158965  0.31758543  1
  Zn  Zn163  1  0.06086046  0.06194668  0.81741174  1
  Zn  Zn164  1  0.05787533  0.56028584  0.31347412  1
  Zn  Zn165  1  0.06137065  0.56466617  0.81634527  1
  Zn  Zn166  1  0.56544973  0.06386058  0.31394611  1
  Zn  Zn167  1  0.56295035  0.06086914  0.81217689  1
  Zn  Zn168  1  0.55787015  0.56157889  0.31110150  1
  Zn  Zn169  1  0.56155038  0.56310680  0.81150288  1
  Zn  Zn170  1  0.43664834  0.18815399  0.43574595  1
  Zn  Zn171  1  0.43797732  0.18860080  0.93790478  1
  Zn  Zn172  1  0.43615228  0.68638966  0.43921879  1
  Zn  Zn173  1  0.43780760  0.68772652  0.93885882  1
  Zn  Zn174  1  0.93509955  0.18320516  0.43528368  1
  Zn  Zn175  1  0.93798348  0.18616017  0.93620357  1
  Zn  Zn176  1  0.93662259  0.68242236  0.43888736  1
  Zn  Zn177  1  0.93721132  0.68674642  0.93594591  1
  Zn  Zn178  1  0.06414136  0.31713264  0.06323907  1
  Zn  Zn179  1  0.06329614  0.31352788  0.56369550  1
  Zn  Zn180  1  0.06269875  0.81810660  0.06521245  1
  Zn  Zn181  1  0.06314097  0.81197456  0.56211648  1
  Zn  Zn182  1  0.56258392  0.31309873  0.06320519  1
  Zn  Zn183  1  0.56471359  0.31190034  0.56226318  1
  Zn  Zn184  1  0.56030867  0.81185012  0.05959084  1
  Zn  Zn185  1  0.56427660  0.81265063  0.56093938  1
  O  O186  1  0.13169509  0.12606207  0.11190765  1
  O  O187  1  0.12341641  0.11716493  0.62042740  1
  O  O188  1  0.13265438  0.62477988  0.11089968  1
  O  O189  1  0.11990501  0.62073357  0.61928271  1
  O  O190  1  0.61983888  0.11739296  0.11852407  1
  O  O191  1  0.61601377  0.12097513  0.62027182  1
  O  O192  1  0.62004159  0.61882848  0.12018854  1
  O  O193  1  0.61796975  0.61661255  0.62578880  1
  O  O194  1  0.37658471  0.38303844  0.38289897  1
  O  O195  1  0.37892505  0.38073840  0.87980266  1
  O  O196  1  0.38310665  0.87605801  0.38093837  1
  O  O197  1  0.37430250  0.88239595  0.88084891  1
  O  O198  1  0.88369890  0.37800009  0.37899433  1
  O  O199  1  0.88276886  0.38202798  0.87758981  1
  O  O200  1  0.86951710  0.88068378  0.38609861  1
  O  O201  1  0.87540800  0.87512506  0.88403979  1
  O  O202  1  0.25375860  0.00132601  0.36166722  1
  O  O203  1  0.25460585  0.00698482  0.86951052  1
  O  O204  1  0.26464639  0.50331815  0.37923956  1
  O  O205  1  0.25520597  0.50676625  0.87066250  1
  O  O206  1  0.76374323  -0.00098052  0.37385170  1
  O  O207  1  0.75199173  0.00092159  0.86186484  1
  O  O208  1  0.75779319  0.50498970  0.37382489  1
  O  O209  1  0.75602768  0.49975147  0.86847320  1
  O  O210  1  0.24764273  0.48771295  0.11920414  1
  O  O211  1  0.24581301  0.49612623  0.63207707  1
  O  O212  1  0.24895974  0.99494651  0.13759818  1
  O  O213  1  0.24515943  0.99537753  0.63010178  1
  O  O214  1  0.73906744  0.49914110  0.12534335  1
  O  O215  1  0.74233803  0.49439087  0.63009688  1
  O  O216  1  0.74270967  0.99069255  0.12461883  1
  O  O217  1  0.74949442  0.99283795  0.63451639  1
  O  O218  1  0.00846515  0.37108931  0.25966048  1
  O  O219  1  0.00688062  0.37029943  0.75638571  1
  O  O220  1  0.00807095  0.86496889  0.24608064  1
  O  O221  1  0.00569988  0.86902021  0.74947971  1
  O  O222  1  0.49958634  0.36139617  0.24749692  1
  O  O223  1  0.50492185  0.36951936  0.75474633  1
  O  O224  1  0.50418727  0.86891336  0.25375249  1
  O  O225  1  0.51345611  0.88237925  0.74907289  1
  O  O226  1  0.49146929  0.13016785  0.24389223  1
  O  O227  1  0.49469774  0.13029358  0.74468318  1
  O  O228  1  0.48925660  0.63216274  0.24346321  1
  O  O229  1  0.48897159  0.61891034  0.74117041  1
  O  O230  1  0.98761073  0.12538901  0.25607220  1
  O  O231  1  0.99174163  0.13079968  0.75029234  1
  O  O232  1  0.98888915  0.63373691  0.25552688  1
  O  O233  1  0.99434483  0.63125781  0.74520457  1
  O  O234  1  0.36936807  0.25583591  0.00504234  1
  O  O235  1  0.36954283  0.25885271  0.50557117  1
  O  O236  1  0.36784761  0.75595117  0.00478724  1
  O  O237  1  0.36628132  0.75596458  0.50363732  1
  O  O238  1  0.86779550  0.24685629  0.00556862  1
  O  O239  1  0.86953470  0.25389583  0.50695525  1
  O  O240  1  0.87074440  0.75246585  0.00679207  1
  O  O241  1  0.87076975  0.75564853  0.50408425  1
  O  O242  1  0.13925925  0.25204611  0.50189263  1
  O  O243  1  0.12901029  0.24445127  0.99529916  1
  O  O244  1  0.13349707  0.73963151  0.50733381  1
  O  O245  1  0.12800041  0.74519142  0.99604220  1
  O  O246  1  0.63833166  0.24905091  0.50128419  1
  O  O247  1  0.63199667  0.24434307  0.99617698  1
  O  O248  1  0.63251875  0.74928755  0.49089729  1
  O  O249  1  0.62964119  0.74547666  0.99309187  1
  O  O250  1  0.49429909  0.24346292  0.13053448  1
  O  O251  1  0.49514759  0.24567392  0.63061274  1
  O  O252  1  0.49265363  0.74527530  0.12941821  1
  O  O253  1  0.50007867  0.73708036  0.62160429  1
  O  O254  1  0.98858165  0.25315722  0.12286239  1
  O  O255  1  0.99408188  0.25019380  0.63306669  1
  O  O256  1  0.98721087  0.75212352  0.12721519  1
  O  O257  1  0.99356605  0.74439763  0.63070382  1
  O  O258  1  0.00052857  0.26218296  0.37674162  1
  O  O259  1  0.00603007  0.25659657  0.87028345  1
  O  O260  1  -0.00601158  0.75078423  0.36683294  1
  O  O261  1  0.00603014  0.75166386  0.86724150  1
  O  O262  1  0.49891595  0.25097684  0.36201110  1
  O  O263  1  0.50516736  0.25551333  0.86910599  1
  O  O264  1  0.50540586  0.75416783  0.36967972  1
  O  O265  1  0.51331516  0.75307749  0.88008348  1
  O  O266  1  0.25410446  0.13734241  0.50023466  1
  O  O267  1  0.24276014  0.13116315  0.99509826  1
  O  O268  1  0.24251751  0.63372508  0.50136524  1
  O  O269  1  0.24261907  0.63216786  0.99357687  1
  O  O270  1  0.75234023  0.13522987  0.50232726  1
  O  O271  1  0.74388483  0.13310040  0.99728320  1
  O  O272  1  0.74913455  0.63118069  0.49251282  1
  O  O273  1  0.74212196  0.63200225  0.99743272  1
  O  O274  1  0.25396042  0.37025070  0.00728280  1
  O  O275  1  0.25996407  0.36900877  0.50616449  1
  O  O276  1  0.25337948  0.87195001  0.00534694  1
  O  O277  1  0.25415189  0.86976660  0.50437530  1
  O  O278  1  0.75232004  0.36102988  0.00114058  1
  O  O279  1  0.75720970  0.36577554  0.50634408  1
  O  O280  1  0.75510200  0.86877177  0.00529267  1
  O  O281  1  0.75877891  0.86853402  0.50474317  1
  O  O282  1  0.11924062  0.48744674  0.24831413  1
  O  O283  1  0.13077766  0.49621566  0.74778326  1
  O  O284  1  0.13161026  0.99407985  0.24879680  1
  O  O285  1  0.12986532  0.99643202  0.74580156  1
  O  O286  1  0.62532848  0.50126202  0.23776247  1
  O  O287  1  0.62998709  0.49446500  0.74173295  1
  O  O288  1  0.62475006  0.99213441  0.24199722  1
  O  O289  1  0.63444212  0.99135408  0.74860891  1
  O  O290  1  0.36725664  0.00846515  0.24867430  1
  O  O291  1  0.36866172  0.00670332  0.75524673  1
  O  O292  1  0.38012863  0.51145156  0.25694389  1
  O  O293  1  0.36869915  0.50908999  0.75617521  1
  O  O294  1  0.87704344  0.00256052  0.25730025  1
  O  O295  1  0.86731076  0.00629066  0.74858377  1
  O  O296  1  0.87793438  0.50838712  0.25411461  1
  O  O297  1  0.87024072  0.50486964  0.75484886  1
  O  O298  1  0.11904965  0.37542615  0.36954427  1
  O  O299  1  0.12175377  0.37048002  0.87012841  1
  O  O300  1  0.12840255  0.87852206  0.36049745  1
  O  O301  1  0.12457414  0.86908676  0.86766711  1
  O  O302  1  0.61980632  0.36861598  0.37099470  1
  O  O303  1  0.61918386  0.36952045  0.86970633  1
  O  O304  1  0.61984878  0.86779249  0.36760143  1
  O  O305  1  0.62258985  0.86716520  0.86627783  1
  O  O306  1  0.37920383  0.13066102  0.13265813  1
  O  O307  1  0.38097188  0.13189106  0.63208229  1
  O  O308  1  0.37776454  0.63020592  0.13113711  1
  O  O309  1  0.38292623  0.62492862  0.63386762  1
  O  O310  1  0.87225483  0.13205036  0.13305790  1
  O  O311  1  0.87688003  0.13050125  0.63752637  1
  O  O312  1  0.86893433  0.63450429  0.13571889  1
  O  O313  1  0.88013670  0.62923076  0.62946719  1
  O  O314  1  0.25648800  0.26073853  0.11918779  1
  O  O315  1  0.25732455  0.25733142  0.61919760  1
  O  O316  1  0.25480765  0.75690411  0.11873807  1
  O  O317  1  0.25249745  0.75816726  0.61526842  1
  O  O318  1  0.75794117  0.24800644  0.11366148  1
  O  O319  1  0.75614575  0.25535011  0.61889840  1
  O  O320  1  0.75818882  0.75461042  0.11920577  1
  O  O321  1  0.75538482  0.75332879  0.61845949  1
  O  O322  1  0.25199486  0.25075476  0.38763296  1
  O  O323  1  0.24486572  0.24639785  0.88102652  1
  O  O324  1  0.25289985  0.74846937  0.39004763  1
  O  O325  1  0.24311211  0.74624940  0.88130455  1
  O  O326  1  0.75438574  0.24874662  0.38841482  1
  O  O327  1  0.74408130  0.24844052  0.88386431  1
  O  O328  1  0.74543608  0.74343677  0.37850510  1
  O  O329  1  0.73773057  0.74823915  0.88213843  1
  O  O330  1  0.01088660  0.11721350  -0.00699180  1
  O  O331  1  -0.00186060  0.11177637  0.50341472  1
  O  O332  1  0.01023087  0.61721942  -0.00591129  1
  O  O333  1  0.00855758  0.62340893  0.50744119  1
  O  O334  1  0.50444006  0.12014009  0.00545970  1
  O  O335  1  0.49742575  0.11591609  0.50402555  1
  O  O336  1  0.50574105  0.62381988  0.00757371  1
  O  O337  1  0.50201319  0.62138017  0.51118407  1
  O  O338  1  0.48682267  0.37495160  0.50166816  1
  O  O339  1  0.49190094  0.37457433  0.99305901  1
  O  O340  1  0.49549959  0.88145002  0.49537924  1
  O  O341  1  0.49050375  0.88226725  0.99880352  1
  O  O342  1  0.99557586  0.37578823  0.49285073  1
  O  O343  1  1.00145672  0.38616047  0.99277746  1
  O  O344  1  0.98800181  0.88295327  0.50735297  1
  O  O345  1  0.99376796  0.88351661  0.99822426  1
  O  O346  1  0.48705083  0.49826864  0.37801774  1
  O  O347  1  0.49359296  0.49294257  0.87542986  1
  O  O348  1  0.49904689  0.99335760  0.38286533  1
  O  O349  1  0.49156578  0.99953795  0.88112582  1
  O  O350  1  0.99346662  0.48686686  0.37883482  1
  O  O351  1  0.99455130  0.49617404  0.88277089  1
  O  O352  1  0.98776780  1.00070489  0.38659559  1
  O  O353  1  0.99717711  0.99674283  0.88763995  1
  O  O354  1  -0.00033344  -0.00323963  0.11055209  1
  O  O355  1  0.00498935  0.00149717  0.61542712  1
  O  O356  1  0.00138071  0.49424232  0.11165366  1
  O  O357  1  0.00718630  0.50656100  0.62561797  1
  O  O358  1  0.50487490  0.00465349  0.11821981  1
  O  O359  1  0.49998302  0.00586414  0.61394628  1
  O  O360  1  0.50861304  0.50692295  0.12245462  1
  O  O361  1  0.51009935  0.50776524  0.62445881  1
  O  O362  1  0.24266360  0.36999314  0.24078397  1
  O  O363  1  0.24566222  0.38119205  0.74585805  1
  O  O364  1  0.24367128  0.88144038  0.24632689  1
  O  O365  1  0.24412213  0.88220244  0.74466860  1
  O  O366  1  0.74736732  0.37813250  0.24619716  1
  O  O367  1  0.74489460  0.37927834  0.74446865  1
  O  O368  1  0.74258122  0.87423374  0.24248363  1
  O  O369  1  0.74342073  0.88184771  0.74437772  1
  O  O370  1  0.25778789  0.11826541  0.24748156  1
  O  O371  1  0.25543929  0.12148900  0.75537082  1
  O  O372  1  0.26196267  0.63464028  0.25139925  1
  O  O373  1  0.25680439  0.62097218  0.75499413  1
  O  O374  1  0.76425376  0.11913070  0.25080261  1
  O  O375  1  0.75692740  0.11597899  0.74862778  1
  O  O376  1  0.76374612  0.62409099  0.25703980  1
  O  O377  1  0.75647199  0.61742041  0.75004352  1
  O  O378  1  0.37231764  0.12355968  0.36088932  1
  O  O379  1  0.36894878  0.12167754  0.87029615  1
  O  O380  1  0.37378419  0.61877515  0.36629035  1
  O  O381  1  0.37033623  0.62198509  0.86883085  1
  O  O382  1  0.87187478  0.11373070  0.36656494  1
  O  O383  1  0.87192958  0.12382321  0.86087028  1
  O  O384  1  0.87094273  0.61785984  0.36747150  1
  O  O385  1  0.87231374  0.61873335  0.86703830  1
  O  O386  1  0.13375187  0.37720292  0.13352542  1
  O  O387  1  0.13132962  0.38159977  0.63239235  1
  O  O388  1  0.13229722  0.87858300  0.13492090  1
  O  O389  1  0.13049915  0.88162134  0.63077800  1
  O  O390  1  0.62572549  0.38645364  0.12521466  1
  O  O391  1  0.62962677  0.38246771  0.63095019  1
  O  O392  1  0.62854578  0.87784246  0.12848239  1
  O  O393  1  0.63182291  0.87422157  0.63301297  1
  O  O394  1  0.12290343  0.26256916  0.25264837  1
  O  O395  1  0.12116482  0.25578092  0.75554246  1
  O  O396  1  0.11237940  0.75769982  0.24661526  1
  O  O397  1  0.11987479  0.75551615  0.75405341  1
  O  O398  1  0.61326914  0.24655509  0.24580876  1
  O  O399  1  0.62060073  0.25506929  0.75409688  1
  O  O400  1  0.61880471  0.75357483  0.25307364  1
  O  O401  1  0.63242567  0.75993413  0.75932948  1
  O  O402  1  0.38103287  0.24206495  0.24422820  1
  O  O403  1  0.38066321  0.24598738  0.74588616  1
  O  O404  1  0.37955676  0.74405674  0.24438177  1
  O  O405  1  0.36825812  0.73719400  0.74937560  1
  O  O406  1  0.87795501  0.23989642  0.24045713  1
  O  O407  1  0.87913254  0.24327397  0.74658551  1
  O  O408  1  0.88339614  0.74434982  0.24368995  1
  O  O409  1  0.87792045  0.74528580  0.74395835  1
  O  O410  1  0.37486719  0.49162488  0.49424706  1
  O  O411  1  0.37635274  0.49484959  0.99276202  1
  O  O412  1  0.38473952  0.99358530  0.49788794  1
  O  O413  1  0.37772281  0.99687904  0.99591608  1
  O  O414  1  0.87702939  0.49157745  0.49414700  1
  O  O415  1  0.88347853  0.50164348  0.99507461  1
  O  O416  1  0.88033338  0.99144121  0.49486858  1
  O  O417  1  0.88125327  0.99503350  0.99884020  1
  O  O418  1  0.11817165  0.00904081  0.00287899  1
  O  O419  1  0.11501472  -0.00261213  0.50471888  1
  O  O420  1  0.11702866  0.51063348  -0.00008007  1
  O  O421  1  0.12644018  0.50896931  0.51015432  1
  O  O422  1  0.61948261  0.00390891  0.00346339  1
  O  O423  1  0.61318481  -0.00252988  0.50071815  1
  O  O424  1  0.62340260  0.50621455  0.00774301  1
  O  O425  1  0.62590023  0.49900143  0.51291444  1
  O  O426  1  0.36812347  0.37193040  0.12044274  1
  O  O427  1  0.37102875  0.37293241  0.61919769  1
  O  O428  1  0.36751316  0.87001197  0.12014327  1
  O  O429  1  0.36840811  0.87420225  0.61906525  1
  O  O430  1  0.87201304  0.36139495  0.12194467  1
  O  O431  1  0.87015416  0.37009986  0.62133026  1
  O  O432  1  0.86888739  0.86471150  0.11899467  1
  O  O433  1  0.86883233  0.86813494  0.61561948  1
  O  O434  1  0.12971835  0.13015367  0.38136873  1
  O  O435  1  0.13139554  0.13181446  0.88322762  1
  O  O436  1  0.12574899  0.61487612  0.39038123  1
  O  O437  1  0.13085705  0.63241520  0.88328169  1
  O  O438  1  0.63088129  0.13014195  0.37925276  1
  O  O439  1  0.62510467  0.13189626  0.88066291  1
  O  O440  1  0.63097387  0.62984380  0.37404145  1
  O  O441  1  0.62483390  0.63258941  0.87910961  1
