# generated using pymatgen
data_V93Zn93O256
_symmetry_space_group_name_H-M   'P 1'
_cell_length_a   17.04768363
_cell_length_b   17.04395265
_cell_length_c   17.04987236
_cell_angle_alpha   90.10121129
_cell_angle_beta   90.11726206
_cell_angle_gamma   90.09830694
_symmetry_Int_Tables_number   1
_chemical_formula_structural   V93Zn93O256
_chemical_formula_sum   'V93 Zn93 O256'
_cell_volume   4953.98399608
_cell_formula_units_Z   1
loop_
 _symmetry_equiv_pos_site_id
 _symmetry_equiv_pos_as_xyz
  1  'x, y, z'
loop_
 _atom_site_type_symbol
 _atom_site_label
 _atom_site_symmetry_multiplicity
 _atom_site_fract_x
 _atom_site_fract_y
 _atom_site_fract_z
 _atom_site_occupancy
  V  V0  1  0.50090258  0.50440962  0.50255239  1
  V  V1  1  0.12792281  0.12604198  -0.00114032  1
  V  V2  1  0.62751058  0.75154695  0.88204370  1
  V  V3  1  0.37434299  0.25082918  0.62637149  1
  V  V4  1  0.12389463  0.49932658  0.62442009  1
  V  V5  1  0.24869611  0.00040319  0.74966632  1
  V  V6  1  0.63302647  0.13079368  0.49962625  1
  V  V7  1  0.12226359  0.61741968  -0.00045780  1
  V  V8  1  0.87360829  0.12436286  0.74873114  1
  V  V9  1  0.37460302  0.12598686  0.75157699  1
  V  V10  1  0.37532744  0.62547041  0.25060578  1
  V  V11  1  0.62037885  0.87115305  0.74959824  1
  V  V12  1  0.74746734  0.86924478  0.62255019  1
  V  V13  1  0.37459968  0.24885265  0.12310219  1
  V  V14  1  0.50128763  0.75109457  0.25216658  1
  V  V15  1  0.74903239  -0.00179469  0.75008379  1
  V  V16  1  0.25023515  0.49894790  0.24959168  1
  V  V17  1  0.00067698  0.74944748  0.24839981  1
  V  V18  1  0.62594446  0.12578796  0.00002226  1
  V  V19  1  0.62445248  0.50268037  0.62679007  1
  V  V20  1  0.62541884  0.50015947  0.12314881  1
  V  V21  1  0.86963594  0.25030052  0.61834646  1
  V  V22  1  0.50228049  0.37597329  0.37594065  1
  V  V23  1  0.25145131  0.12526438  0.37402976  1
  V  V24  1  0.87489016  0.49885778  0.37342799  1
  V  V25  1  0.75057851  0.00111360  0.24965764  1
  V  V26  1  0.00011409  0.74980009  0.74873422  1
  V  V27  1  0.37512297  0.00025166  0.87580370  1
  V  V28  1  -0.00001733  0.37438237  0.37376382  1
  V  V29  1  0.24894704  0.87521557  0.62519041  1
  V  V30  1  0.12942866  0.25007791  0.87860142  1
  V  V31  1  0.87466725  0.62493630  0.74991008  1
  V  V32  1  0.25073336  0.37076719  0.12221398  1
  V  V33  1  -0.00104301  -0.00167894  -0.00152188  1
  V  V34  1  -0.00089297  0.62233075  0.62450849  1
  V  V35  1  0.75042482  0.37307957  0.61876218  1
  V  V36  1  0.74792153  0.63198654  0.38052410  1
  V  V37  1  0.87618634  0.24928449  0.12250390  1
  V  V38  1  0.50086428  0.25160494  0.75283096  1
  V  V39  1  0.75027326  0.63059615  0.88201150  1
  V  V40  1  0.24875065  0.87561883  0.12506823  1
  V  V41  1  0.87592327  0.62493214  0.24896769  1
  V  V42  1  0.00111112  0.37916475  0.87702434  1
  V  V43  1  0.37730530  0.63236733  0.75124325  1
  V  V44  1  -0.00000269  -0.00140784  0.49956605  1
  V  V45  1  0.49880071  0.63321630  0.63031902  1
  V  V46  1  0.25115410  0.50070752  0.74900715  1
  V  V47  1  0.12313835  0.87398620  0.75048069  1
  V  V48  1  0.12513834  -0.00099972  0.12414004  1
  V  V49  1  -0.00027843  0.49694994  0.49979545  1
  V  V50  1  0.49828906  0.86957149  0.87119146  1
  V  V51  1  0.75015646  0.50074735  0.75075219  1
  V  V52  1  0.86858358  0.86984977  0.49858205  1
  V  V53  1  0.50052405  0.12275113  0.62423397  1
  V  V54  1  0.37553388  0.87547572  0.50046813  1
  V  V55  1  0.87203490  0.74823384  0.62198562  1
  V  V56  1  0.87533106  -0.00068916  0.87493458  1
  V  V57  1  0.37540328  0.50040510  0.37605138  1
  V  V58  1  0.24968155  0.37511850  0.62470407  1
  V  V59  1  0.86748324  0.87076450  -0.00146121  1
  V  V60  1  0.37485192  0.74988345  0.12551974  1
  V  V61  1  0.00034292  0.24853840  0.24902027  1
  V  V62  1  0.24965103  0.62511089  0.37534631  1
  V  V63  1  0.12422790  0.87455263  0.24869961  1
  V  V64  1  0.12648753  0.37438773  0.24863571  1
  V  V65  1  0.37475246  0.87495574  -0.00026399  1
  V  V66  1  0.50034928  0.12556256  0.12592194  1
  V  V67  1  0.62478044  0.37537119  0.75206679  1
  V  V68  1  0.12458448  0.74954722  0.37378414  1
  V  V69  1  0.00027631  0.61729222  0.11964831  1
  V  V70  1  0.37681409  0.50084571  0.87569459  1
  V  V71  1  0.50072135  0.62503275  0.12458923  1
  V  V72  1  0.62527969  0.00065155  0.12593788  1
  V  V73  1  0.62493595  0.87499025  0.25252707  1
  V  V74  1  0.75148110  0.24958927  -0.00165873  1
  V  V75  1  0.37553987  0.00037474  0.37500887  1
  V  V76  1  0.00131697  0.12380282  0.12349953  1
  V  V77  1  0.87712423  0.50046469  0.87661688  1
  V  V78  1  0.87436104  0.00001703  0.37319137  1
  V  V79  1  0.24633458  0.74795129  -0.00059885  1
  V  V80  1  0.12482390  0.37446134  0.75034675  1
  V  V81  1  0.62571867  0.37321648  0.24950474  1
  V  V82  1  0.24978750  0.12755787  0.87809061  1
  V  V83  1  0.25050562  0.25037221  0.49961962  1
  V  V84  1  0.37643728  0.37602940  0.50058487  1
  V  V85  1  0.24903576  0.75026669  0.49976240  1
  V  V86  1  0.87485334  0.12347956  0.24850352  1
  V  V87  1  0.12601963  0.24931163  0.37475273  1
  V  V88  1  0.37423357  0.37380699  0.00002024  1
  V  V89  1  0.86780387  0.74841575  0.11939498  1
  V  V90  1  -0.00036359  0.12576689  0.62461290  1
  V  V91  1  0.87896071  0.37864391  -0.00068690  1
  V  V92  1  0.74915159  0.12552407  0.87423074  1
  Zn  Zn93  1  -0.00099231  0.87266436  0.37473966  1
  Zn  Zn94  1  0.12412028  0.62508818  0.49964918  1
  Zn  Zn95  1  0.24811814  0.62522390  0.87397271  1
  Zn  Zn96  1  0.62771564  0.75559354  0.38229201  1
  Zn  Zn97  1  -0.00076616  0.25010302  0.74905794  1
  Zn  Zn98  1  0.74572412  0.86947765  0.12137552  1
  Zn  Zn99  1  0.50246399  -0.00003128  0.49946102  1
  Zn  Zn100  1  0.50190613  0.24818371  0.25568767  1
  Zn  Zn101  1  0.50268224  0.37496878  0.87769661  1
  Zn  Zn102  1  0.37654474  0.75386740  0.63071553  1
  Zn  Zn103  1  0.63175841  0.63539209  0.51002416  1
  Zn  Zn104  1  0.75470202  0.13381797  0.37877135  1
  Zn  Zn105  1  0.50158080  0.50285233  -0.00116922  1
  Zn  Zn106  1  0.62484338  -0.00163797  0.62377644  1
  Zn  Zn107  1  0.50070817  -0.00068158  -0.00022889  1
  Zn  Zn108  1  0.37687343  0.12473888  0.24979247  1
  Zn  Zn109  1  0.75068980  0.37592247  0.12395457  1
  Zn  Zn110  1  0.24964026  0.00076785  0.24893735  1
  Zn  Zn111  1  0.12570648  0.12415178  0.50064077  1
  Zn  Zn112  1  -0.00157735  0.87272653  0.87487336  1
  Zn  Zn113  1  0.62766448  0.63020251  0.00424902  1
  Zn  Zn114  1  0.62424627  0.25180633  0.87640994  1
  Zn  Zn115  1  0.12486550  0.00164232  0.62434417  1
  Zn  Zn116  1  0.75012775  0.49936413  0.24933520  1
  Zn  Zn117  1  0.86717313  0.36708972  0.49134429  1
  Zn  Zn118  1  0.12205066  0.49510548  0.12088663  1
  Zn  Zn119  1  0.50070654  0.87410156  0.37793166  1
  Zn  Zn120  1  0.12184586  0.74705472  0.87485475  1
  Zn  Zn121  1  0.63435235  0.25866283  0.38427484  1
  Zn  Zn122  1  0.18860602  0.18712047  0.18741680  1
  Zn  Zn123  1  0.18592718  0.18815154  0.68987184  1
  Zn  Zn124  1  0.18606594  0.68624691  0.18605944  1
  Zn  Zn125  1  0.18892608  0.68727711  0.68570003  1
  Zn  Zn126  1  0.68985698  0.18951687  0.18737548  1
  Zn  Zn127  1  0.68634061  0.18931323  0.68723073  1
  Zn  Zn128  1  0.68829861  0.68476602  0.19419300  1
  Zn  Zn129  1  0.68581401  0.68971041  0.69468024  1
  Zn  Zn130  1  0.31565733  0.31171280  0.30985443  1
  Zn  Zn131  1  0.31220070  0.31308337  0.81322920  1
  Zn  Zn132  1  0.31081855  0.81300190  0.31231626  1
  Zn  Zn133  1  0.30878577  0.81326526  0.81489035  1
  Zn  Zn134  1  0.80800271  0.30956507  0.30973825  1
  Zn  Zn135  1  0.81260522  0.31078178  0.80885704  1
  Zn  Zn136  1  0.81367599  0.81301539  0.30881836  1
  Zn  Zn137  1  0.81158646  0.81181327  0.81058451  1
  Zn  Zn138  1  0.18687462  0.43757093  0.43752549  1
  Zn  Zn139  1  0.19169363  0.43707382  0.93661860  1
  Zn  Zn140  1  0.18679568  0.93687540  0.43641703  1
  Zn  Zn141  1  0.18700100  0.93808623  0.93607273  1
  Zn  Zn142  1  0.68546411  0.44645028  0.43832719  1
  Zn  Zn143  1  0.69056052  0.43854454  0.93784505  1
  Zn  Zn144  1  0.68730824  0.94614718  0.43754051  1
  Zn  Zn145  1  0.68637025  0.94007971  0.93739587  1
  Zn  Zn146  1  0.31155185  0.06209814  0.05997702  1
  Zn  Zn147  1  0.31230997  0.06208232  0.56245726  1
  Zn  Zn148  1  0.31122367  0.56072186  0.06321658  1
  Zn  Zn149  1  0.31314018  0.56440232  0.56338049  1
  Zn  Zn150  1  0.81123337  0.05982834  0.06247884  1
  Zn  Zn151  1  0.81280337  0.05682951  0.56451885  1
  Zn  Zn152  1  0.81205662  0.56023269  0.06242065  1
  Zn  Zn153  1  0.81405105  0.55828253  0.56025676  1
  Zn  Zn154  1  0.44022616  0.43809386  0.18872984  1
  Zn  Zn155  1  0.43916058  0.44050280  0.68895261  1
  Zn  Zn156  1  0.43749673  0.93859295  0.18914251  1
  Zn  Zn157  1  0.43596651  0.93873176  0.68877902  1
  Zn  Zn158  1  0.93816731  0.43612750  0.18781623  1
  Zn  Zn159  1  0.93644822  0.43548792  0.68948520  1
  Zn  Zn160  1  0.93749407  0.93454506  0.18453648  1
  Zn  Zn161  1  0.93596881  0.93673087  0.68587956  1
  Zn  Zn162  1  0.06282554  0.06087434  0.31254920  1
  Zn  Zn163  1  0.06162076  0.06125488  0.81200733  1
  Zn  Zn164  1  0.06349753  0.56222009  0.30947360  1
  Zn  Zn165  1  0.06309740  0.56246897  0.81287906  1
  Zn  Zn166  1  0.56271886  0.06213383  0.31480117  1
  Zn  Zn167  1  0.56239411  0.05978294  0.81301555  1
  Zn  Zn168  1  0.56302788  0.56079170  0.31066065  1
  Zn  Zn169  1  0.56262597  0.56465628  0.81219815  1
  Zn  Zn170  1  0.44216622  0.18999093  0.43887191  1
  Zn  Zn171  1  0.43811172  0.18912543  0.93946647  1
  Zn  Zn172  1  0.44016379  0.68954729  0.43958709  1
  Zn  Zn173  1  0.43907623  0.68762462  0.93831787  1
  Zn  Zn174  1  0.93691344  0.18646201  0.43651897  1
  Zn  Zn175  1  0.94041628  0.18895792  0.93549003  1
  Zn  Zn176  1  0.93852713  0.68603266  0.43749638  1
  Zn  Zn177  1  0.93942350  0.68846186  0.93685481  1
  Zn  Zn178  1  0.06268255  0.31076377  0.06026474  1
  Zn  Zn179  1  0.06061746  0.31177899  0.55991023  1
  Zn  Zn180  1  0.05794083  0.80998768  0.06232548  1
  Zn  Zn181  1  0.06095709  0.81149353  0.56275213  1
  Zn  Zn182  1  0.56079513  0.31253038  0.06223464  1
  Zn  Zn183  1  0.56226339  0.31312182  0.56583945  1
  Zn  Zn184  1  0.56067025  0.81361493  0.06234136  1
  Zn  Zn185  1  0.56284793  0.80974180  0.56011127  1
  O  O186  1  0.12101343  0.12015777  0.11961834  1
  O  O187  1  0.11313421  0.12436764  0.62325226  1
  O  O188  1  0.11671229  0.62301095  0.11776042  1
  O  O189  1  0.11759716  0.61675267  0.62402338  1
  O  O190  1  0.61774375  0.12138029  0.12099014  1
  O  O191  1  0.61667208  0.12355719  0.61871779  1
  O  O192  1  0.62088579  0.61760040  0.12666472  1
  O  O193  1  0.61654852  0.62123606  0.63170362  1
  O  O194  1  0.38070813  0.38074849  0.38074283  1
  O  O195  1  0.37348564  0.38276428  0.88360750  1
  O  O196  1  0.37170074  0.88418808  0.38381620  1
  O  O197  1  0.38120460  0.87887427  0.87821431  1
  O  O198  1  0.88062471  0.38281847  0.37119433  1
  O  O199  1  0.88257942  0.37820558  0.87933280  1
  O  O200  1  0.87507247  0.88012167  0.38293559  1
  O  O201  1  0.87451765  0.88011834  0.88148990  1
  O  O202  1  0.25724298  0.00939897  0.37584594  1
  O  O203  1  0.25550450  0.00562008  0.86840620  1
  O  O204  1  0.25597223  0.50426836  0.37005814  1
  O  O205  1  0.26153668  0.50112945  0.86839598  1
  O  O206  1  0.75779651  0.00710244  0.36749977  1
  O  O207  1  0.75584192  0.00588064  0.86931134  1
  O  O208  1  0.76230117  0.50716881  0.37296295  1
  O  O209  1  0.75631147  0.50894693  0.86874389  1
  O  O210  1  0.25133560  0.48726847  0.13238181  1
  O  O211  1  0.24449743  0.49386210  0.62869985  1
  O  O212  1  0.24313798  0.99373746  0.12534865  1
  O  O213  1  0.24794186  0.99458210  0.63169900  1
  O  O214  1  0.73937835  0.49839068  0.12743592  1
  O  O215  1  0.74594374  0.49468166  0.63193551  1
  O  O216  1  0.74265196  0.99763231  0.13215712  1
  O  O217  1  0.74974581  0.98587127  0.63276183  1
  O  O218  1  0.00659826  0.36799571  0.25387036  1
  O  O219  1  0.00651224  0.37309483  0.75932114  1
  O  O220  1  0.00616551  0.86745415  0.24993763  1
  O  O221  1  0.00786190  0.86967518  0.74727919  1
  O  O222  1  0.50933457  0.37585068  0.25749934  1
  O  O223  1  0.50652929  0.36929006  0.74982183  1
  O  O224  1  0.50949774  0.87040062  0.25071268  1
  O  O225  1  0.50791190  0.88141861  0.75968995  1
  O  O226  1  0.50007014  0.12627172  0.23840151  1
  O  O227  1  0.49502131  0.12988627  0.74344718  1
  O  O228  1  0.49426256  0.63071665  0.24521749  1
  O  O229  1  0.48835590  0.61870194  0.74169755  1
  O  O230  1  0.99577786  0.12911191  0.24321020  1
  O  O231  1  0.99303158  0.12283515  0.73873252  1
  O  O232  1  0.99564323  0.63001098  0.24067922  1
  O  O233  1  0.99386851  0.62857183  0.74396711  1
  O  O234  1  0.37884344  0.26005288  0.01222083  1
  O  O235  1  0.37037349  0.25666179  0.50646465  1
  O  O236  1  0.36595506  0.75427384  0.00548229  1
  O  O237  1  0.36818086  0.76213918  0.49932476  1
  O  O238  1  0.87198673  0.25729406  0.00303227  1
  O  O239  1  0.87821212  0.25034052  0.51334789  1
  O  O240  1  0.88104184  0.75897431  0.00803932  1
  O  O241  1  0.88144783  0.76260748  0.50513501  1
  O  O242  1  0.13225281  0.24887895  0.49228102  1
  O  O243  1  0.11913939  0.24240587  0.98670880  1
  O  O244  1  0.13028920  0.74918026  0.49293965  1
  O  O245  1  0.13292286  0.74182129  1.00113380  1
  O  O246  1  0.62115513  0.23480673  0.50519021  1
  O  O247  1  0.63243445  0.24431054  0.99964967  1
  O  O248  1  0.62366591  0.74598682  0.49384675  1
  O  O249  1  0.62486879  0.75223871  0.98669066  1
  O  O250  1  0.49252514  0.24053808  0.12650530  1
  O  O251  1  0.49341683  0.24170589  0.63217604  1
  O  O252  1  0.49436781  0.74526763  0.13149811  1
  O  O253  1  0.49594865  0.73721084  0.62418343  1
  O  O254  1  0.99648715  0.24325893  0.12950428  1
  O  O255  1  0.99204484  0.24058266  0.62539290  1
  O  O256  1  0.99066467  0.73896405  0.12949670  1
  O  O257  1  0.99281289  0.74226731  0.62923599  1
  O  O258  1  0.00533187  0.25387300  0.36861880  1
  O  O259  1  0.00919853  0.25942495  0.87060197  1
  O  O260  1  0.00587525  0.74934317  0.36694697  1
  O  O261  1  0.00167911  0.75258473  0.86408229  1
  O  O262  1  0.50743778  0.26048847  0.37545043  1
  O  O263  1  0.50152133  0.25308887  0.86776919  1
  O  O264  1  0.50136392  0.75317759  0.36550135  1
  O  O265  1  0.50723747  0.76276803  0.87783269  1
  O  O266  1  0.24954707  0.13116446  0.49073149  1
  O  O267  1  0.24052633  0.11888956  0.99034080  1
  O  O268  1  0.24912027  0.63130907  0.49328690  1
  O  O269  1  0.24249625  0.63423834  1.00251040  1
  O  O270  1  0.73562597  0.11894363  0.50492842  1
  O  O271  1  0.74621475  0.12962240  0.99426891  1
  O  O272  1  0.75261090  0.61992731  0.48448133  1
  O  O273  1  0.74872522  0.62014808  0.98511375  1
  O  O274  1  0.26188502  0.37997644  0.01111747  1
  O  O275  1  0.25632764  0.37024257  0.50503321  1
  O  O276  1  0.25334419  0.86681273  0.00458791  1
  O  O277  1  0.25662175  0.87140566  0.50501540  1
  O  O278  1  0.76245698  0.36794007  -0.00086898  1
  O  O279  1  0.74939492  0.38402614  0.51534204  1
  O  O280  1  0.76320401  0.88018725  0.00161618  1
  O  O281  1  0.75957664  0.88369666  0.50937191  1
  O  O282  1  0.13202653  0.49162768  0.24696456  1
  O  O283  1  0.13086154  0.49398196  0.74460865  1
  O  O284  1  0.12580949  0.99338891  0.24226348  1
  O  O285  1  0.12968276  0.99090073  0.74818416  1
  O  O286  1  0.62498470  0.49112903  0.23964092  1
  O  O287  1  0.63050669  0.49535411  0.74567079  1
  O  O288  1  0.62935787  0.99364705  0.24596563  1
  O  O289  1  0.63080096  0.98799310  0.74931208  1
  O  O290  1  0.37080539  0.00156413  0.26163495  1
  O  O291  1  0.36854766  0.00650758  0.75654859  1
  O  O292  1  0.37043637  0.50522210  0.25655134  1
  O  O293  1  0.37005653  0.50672494  0.75792420  1
  O  O294  1  0.87168375  0.00330251  0.25292372  1
  O  O295  1  0.86910234  0.00402819  0.75467854  1
  O  O296  1  0.87751923  0.50514128  0.25972652  1
  O  O297  1  0.87017194  0.50585587  0.75656227  1
  O  O298  1  0.12078908  0.36892980  0.36812712  1
  O  O299  1  0.12042768  0.36963038  0.87278687  1
  O  O300  1  0.12312799  0.86795673  0.36743990  1
  O  O301  1  0.12340553  0.87290978  0.86153342  1
  O  O302  1  0.62079899  0.38115662  0.36683803  1
  O  O303  1  0.62384872  0.37465553  0.86765451  1
  O  O304  1  0.62390926  0.87860448  0.36389188  1
  O  O305  1  0.61848594  0.87116820  0.86995286  1
  O  O306  1  0.38141245  0.13188627  0.12331268  1
  O  O307  1  0.38113042  0.13066855  0.63094672  1
  O  O308  1  0.37934926  0.63006624  0.13138941  1
  O  O309  1  0.38141949  0.62542623  0.63508796  1
  O  O310  1  0.88236433  0.12890789  0.12796976  1
  O  O311  1  0.88018305  0.13051762  0.62801277  1
  O  O312  1  0.88134314  0.62941231  0.12625383  1
  O  O313  1  0.87839763  0.62780661  0.62985731  1
  O  O314  1  0.25977898  0.26127703  0.13123069  1
  O  O315  1  0.25480083  0.25494749  0.62053133  1
  O  O316  1  0.25464500  0.75495563  0.11706924  1
  O  O317  1  0.25258313  0.75725504  0.61774227  1
  O  O318  1  0.75933607  0.25141362  0.11641700  1
  O  O319  1  0.75838891  0.26112776  0.63104727  1
  O  O320  1  0.76430129  0.74718379  0.12968485  1
  O  O321  1  0.75499490  0.76215050  0.63234979  1
  O  O322  1  0.24763125  0.24382728  0.37916867  1
  O  O323  1  0.23776265  0.24475267  0.86977373  1
  O  O324  1  0.24444612  0.74442109  0.37949977  1
  O  O325  1  0.24737267  0.74831778  0.88919654  1
  O  O326  1  0.74705443  0.24635731  0.37683484  1
  O  O327  1  0.75002820  0.24250230  0.87988072  1
  O  O328  1  0.75354104  0.73416541  0.36949278  1
  O  O329  1  0.74201016  0.74033814  0.86881724  1
  O  O330  1  0.00610989  0.11871440  0.00447797  1
  O  O331  1  -0.00102340  0.11527347  0.50797957  1
  O  O332  1  0.01051019  0.63072637  0.00842578  1
  O  O333  1  0.00021319  0.61588702  0.50694203  1
  O  O334  1  0.50579875  0.12404333  0.01055029  1
  O  O335  1  0.50582279  0.12445177  0.51216953  1
  O  O336  1  0.50423981  0.62435527  0.00921645  1
  O  O337  1  0.49660428  0.61922096  0.51268829  1
  O  O338  1  0.49569414  0.38299159  0.49763060  1
  O  O339  1  0.48650105  0.37965821  1.00002462  1
  O  O340  1  0.48686970  0.87810859  0.50039570  1
  O  O341  1  0.49253914  0.87671824  0.99067783  1
  O  O342  1  0.99668074  0.37935605  0.49067807  1
  O  O343  1  0.99054771  0.36883730  0.98890296  1
  O  O344  1  0.98912637  0.88416894  0.50163165  1
  O  O345  1  0.98951277  0.88052818  0.99803555  1
  O  O346  1  0.49427005  0.49723626  0.38180840  1
  O  O347  1  0.48776210  0.49829742  0.87554945  1
  O  O348  1  0.48639482  0.99865543  0.37764846  1
  O  O349  1  0.49321698  0.98991573  0.87710237  1
  O  O350  1  0.99318798  0.49535768  0.37770536  1
  O  O351  1  0.99443527  0.48702878  0.86994530  1
  O  O352  1  0.99415990  0.99816668  0.38453161  1
  O  O353  1  0.99233063  0.99823246  0.88043539  1
  O  O354  1  0.00551004  0.00507843  0.11864986  1
  O  O355  1  -0.00323731  0.00921550  0.61579268  1
  O  O356  1  0.00073544  0.51316462  0.12846184  1
  O  O357  1  0.00361125  0.50237505  0.62073253  1
  O  O358  1  0.50473207  0.00985102  0.12404328  1
  O  O359  1  0.49915947  0.01343476  0.62633039  1
  O  O360  1  0.50875893  0.50736661  0.12527950  1
  O  O361  1  0.50527560  0.50871839  0.62157585  1
  O  O362  1  0.24622496  0.37887470  0.24265155  1
  O  O363  1  0.24516906  0.38045315  0.74357253  1
  O  O364  1  0.24257416  0.87537377  0.24200142  1
  O  O365  1  0.24249353  0.87960961  0.74554602  1
  O  O366  1  0.73977313  0.37921755  0.24515166  1
  O  O367  1  0.74534318  0.38169492  0.74205318  1
  O  O368  1  0.74032464  0.88105712  0.24786428  1
  O  O369  1  0.74169738  0.87917071  0.74293517  1
  O  O370  1  0.25316712  0.12460165  0.26263915  1
  O  O371  1  0.25537740  0.12049043  0.75609883  1
  O  O372  1  0.25586120  0.61987211  0.25448067  1
  O  O373  1  0.25839324  0.61806083  0.75053698  1
  O  O374  1  0.75820092  0.11821059  0.24844582  1
  O  O375  1  0.75403466  0.11846480  0.75327232  1
  O  O376  1  0.75916403  0.61969648  0.26052410  1
  O  O377  1  0.75616557  0.62014688  0.75870394  1
  O  O378  1  0.36836571  0.11868621  0.37690060  1
  O  O379  1  0.37040704  0.12124906  0.87122489  1
  O  O380  1  0.36977706  0.61998619  0.36993381  1
  O  O381  1  0.37416036  0.61726158  0.86907229  1
  O  O382  1  0.87669210  0.11797673  0.36634697  1
  O  O383  1  0.87008986  0.11981443  0.86902008  1
  O  O384  1  0.86913155  0.61748859  0.37037138  1
  O  O385  1  0.86923468  0.62139914  0.87054173  1
  O  O386  1  0.13374261  0.37316287  0.12788383  1
  O  O387  1  0.12962809  0.37872441  0.62996066  1
  O  O388  1  0.12878314  0.87921125  0.12817892  1
  O  O389  1  0.12940444  0.87637774  0.63514127  1
  O  O390  1  0.62373686  0.38351983  0.13190795  1
  O  O391  1  0.63216408  0.38163648  0.63122513  1
  O  O392  1  0.62508083  0.88008982  0.13448479  1
  O  O393  1  0.62988247  0.87430325  0.63316642  1
  O  O394  1  0.11990568  0.25469906  0.25478762  1
  O  O395  1  0.12252002  0.25657245  0.75972319  1
  O  O396  1  0.12036994  0.75470237  0.25342445  1
  O  O397  1  0.12010904  0.75816746  0.74898203  1
  O  O398  1  0.62348929  0.26406203  0.24822310  1
  O  O399  1  0.61866546  0.25721064  0.75128158  1
  O  O400  1  0.62082445  0.76011275  0.25309153  1
  O  O401  1  0.62705767  0.76472757  0.76264691  1
  O  O402  1  0.38048304  0.24836962  0.23715736  1
  O  O403  1  0.37929280  0.24520304  0.74551043  1
  O  O404  1  0.37947481  0.74546572  0.24450311  1
  O  O405  1  0.36767874  0.73659545  0.75189649  1
  O  O406  1  0.88215896  0.24426556  0.24215105  1
  O  O407  1  0.87733906  0.24238194  0.73830375  1
  O  O408  1  0.88134173  0.74484393  0.24019868  1
  O  O409  1  0.87992824  0.74425110  0.74226000  1
  O  O410  1  0.37948085  0.49460592  0.49550164  1
  O  O411  1  0.37523809  0.49384492  0.99163066  1
  O  O412  1  0.37380836  0.99144385  0.49235401  1
  O  O413  1  0.37534528  0.99209215  0.99270261  1
  O  O414  1  0.88140213  0.49519206  0.48788299  1
  O  O415  1  0.87015497  0.48647349  0.99294459  1
  O  O416  1  0.88209785  0.99168652  0.49475896  1
  O  O417  1  0.87990731  0.99209703  0.99507188  1
  O  O418  1  0.11864484  0.00444795  0.00436569  1
  O  O419  1  0.11240433  -0.00001317  0.50188896  1
  O  O420  1  0.13429231  0.51294876  0.00251516  1
  O  O421  1  0.11812685  0.49989877  0.50639166  1
  O  O422  1  0.62370225  0.00725235  0.00776056  1
  O  O423  1  0.61970082  0.01163346  0.50524779  1
  O  O424  1  0.62366619  0.50062878  0.01167681  1
  O  O425  1  0.61847001  0.50965236  0.50932054  1
  O  O426  1  0.37033416  0.36937318  0.12019482  1
  O  O427  1  0.36973311  0.37100268  0.62074052  1
  O  O428  1  0.36984713  0.86967805  0.12004969  1
  O  O429  1  0.36904981  0.87535751  0.61746714  1
  O  O430  1  0.87790794  0.36904993  0.11491244  1
  O  O431  1  0.86703321  0.36721421  0.62491677  1
  O  O432  1  0.87349333  0.86505401  0.11638720  1
  O  O433  1  0.86643407  0.86943519  0.61818828  1
  O  O434  1  0.13461947  0.13020686  0.37590817  1
  O  O435  1  0.12838873  0.13220448  0.87745665  1
  O  O436  1  0.13193159  0.63066851  0.37516531  1
  O  O437  1  0.12739954  0.62630941  0.88432168  1
  O  O438  1  0.62291737  0.12507606  0.39249034  1
  O  O439  1  0.63134422  0.12504116  0.88143555  1
  O  O440  1  0.64283252  0.62123582  0.37110146  1
  O  O441  1  0.63199807  0.63477145  0.87407277  1
