# generated using pymatgen
data_V93Zn93O256
_symmetry_space_group_name_H-M   'P 1'
_cell_length_a   17.06074311
_cell_length_b   17.05363783
_cell_length_c   17.06337868
_cell_angle_alpha   89.91916310
_cell_angle_beta   89.97742259
_cell_angle_gamma   90.08697511
_symmetry_Int_Tables_number   1
_chemical_formula_structural   V93Zn93O256
_chemical_formula_sum   'V93 Zn93 O256'
_cell_volume   4964.54031163
_cell_formula_units_Z   1
loop_
 _symmetry_equiv_pos_site_id
 _symmetry_equiv_pos_as_xyz
  1  'x, y, z'
loop_
 _atom_site_type_symbol
 _atom_site_label
 _atom_site_symmetry_multiplicity
 _atom_site_fract_x
 _atom_site_fract_y
 _atom_site_fract_z
 _atom_site_occupancy
  V  V0  1  0.50500745  0.75765953  0.24763782  1
  V  V1  1  0.75018800  0.12525640  0.87396062  1
  V  V2  1  0.37483126  0.12531276  0.75012706  1
  V  V3  1  0.24976707  0.24926670  0.49930356  1
  V  V4  1  -0.00001065  0.49993260  0.00032799  1
  V  V5  1  0.00030689  0.12489704  0.12493158  1
  V  V6  1  0.12515818  0.49973369  0.12690403  1
  V  V7  1  0.25757067  0.86398213  0.61932827  1
  V  V8  1  0.87487871  0.00105177  0.87463483  1
  V  V9  1  0.49975431  0.12548246  0.62468913  1
  V  V10  1  0.75036093  0.12502101  0.37514819  1
  V  V11  1  0.87476902  0.12464072  0.24994228  1
  V  V12  1  0.12436343  0.12193648  0.00167518  1
  V  V13  1  0.12798721  0.63143241  0.49954482  1
  V  V14  1  0.88132109  0.00097815  0.38018144  1
  V  V15  1  0.87630934  0.75114377  0.62455778  1
  V  V16  1  0.88200961  0.87772843  0.50085730  1
  V  V17  1  0.62463933  0.62464917  0.00030853  1
  V  V18  1  -0.00054588  0.24837435  0.74806779  1
  V  V19  1  0.12652548  0.87508963  0.74911952  1
  V  V20  1  0.62221940  0.62654377  0.50591981  1
  V  V21  1  0.62758532  0.75829419  0.36984053  1
  V  V22  1  0.37567780  0.00059749  0.87573630  1
  V  V23  1  -0.00061684  0.62602828  0.62428662  1
  V  V24  1  0.37417895  0.50055342  0.87391337  1
  V  V25  1  0.12430487  0.25086907  0.87444074  1
  V  V26  1  0.87522367  0.37550421  -0.00006118  1
  V  V27  1  0.62611185  0.37569933  0.74828106  1
  V  V28  1  0.87252192  0.87457506  0.00195102  1
  V  V29  1  0.37696834  0.62458601  0.24713311  1
  V  V30  1  0.12459182  0.25078642  0.37521161  1
  V  V31  1  0.87498481  0.49991502  0.87330463  1
  V  V32  1  0.62575632  0.00088228  0.62537155  1
  V  V33  1  0.50042177  0.12293155  0.12498968  1
  V  V34  1  0.62624259  0.75072871  0.87637436  1
  V  V35  1  0.62524832  0.37501915  0.25005954  1
  V  V36  1  0.62663278  0.87680072  0.74947806  1
  V  V37  1  0.49947365  0.37479193  0.87508302  1
  V  V38  1  0.37431846  -0.00488432  0.37944414  1
  V  V39  1  0.37390053  0.87535273  -0.00120171  1
  V  V40  1  0.49779872  -0.00134501  0.49994729  1
  V  V41  1  0.49644601  0.74224373  0.74500368  1
  V  V42  1  0.75101365  0.62527772  0.87498917  1
  V  V43  1  0.75055835  0.50039612  0.25026989  1
  V  V44  1  0.49962025  0.87637409  0.87569363  1
  V  V45  1  -0.00578997  0.37545370  0.37812267  1
  V  V46  1  0.24983637  0.12526619  0.87492463  1
  V  V47  1  0.74983951  0.24984036  -0.00062084  1
  V  V48  1  0.75245885  0.25326459  0.49923354  1
  V  V49  1  0.62497208  0.12525874  0.50002364  1
  V  V50  1  -0.00661372  0.49696880  0.49893389  1
  V  V51  1  0.50008649  0.24896988  0.24985056  1
  V  V52  1  0.74992853  0.37397193  0.12546303  1
  V  V53  1  0.75065968  0.62523452  0.37483658  1
  V  V54  1  0.75146699  0.75090064  0.50021595  1
  V  V55  1  0.25015640  0.37352559  0.12574964  1
  V  V56  1  0.49954086  0.25084511  0.75011113  1
  V  V57  1  0.24776597  0.37446342  0.62449251  1
  V  V58  1  0.00078116  0.25106109  0.25059765  1
  V  V59  1  0.74670920  -0.00748172  0.25122979  1
  V  V60  1  0.12374132  0.49777468  0.62603388  1
  V  V61  1  0.37429908  0.49843019  0.37404634  1
  V  V62  1  0.00436588  0.87555126  0.37004542  1
  V  V63  1  0.12031452  0.00014351  0.62186625  1
  V  V64  1  0.12504375  0.62482196  0.00035999  1
  V  V65  1  0.87811229  0.62537544  0.25144292  1
  V  V66  1  0.24359617  0.87391289  0.12796141  1
  V  V67  1  0.12516056  0.75019121  0.87513636  1
  V  V68  1  0.25139939  0.63012652  0.37851524  1
  V  V69  1  0.00006106  0.87564195  0.87506015  1
  V  V70  1  0.87625917  0.25377629  0.61995971  1
  V  V71  1  0.11825046  0.12103104  0.50114705  1
  V  V72  1  0.25069972  0.62417530  0.87439965  1
  V  V73  1  0.37423034  0.24919807  0.12518735  1
  V  V74  1  0.25079597  0.75079582  -0.00019145  1
  V  V75  1  0.37447024  0.12310905  0.25049038  1
  V  V76  1  0.62424217  0.50050516  0.12472762  1
  V  V77  1  0.37514570  0.37387557  0.49850767  1
  V  V78  1  0.62516655  0.24982251  0.87530283  1
  V  V79  1  0.87492682  0.24938631  0.12467501  1
  V  V80  1  0.24310077  -0.00609033  0.25122832  1
  V  V81  1  0.25059956  -0.00015982  0.74895808  1
  V  V82  1  0.62383151  -0.00713197  0.12929715  1
  V  V83  1  0.50053147  0.49997532  -0.00018219  1
  V  V84  1  0.24917439  0.12382942  0.37540484  1
  V  V85  1  0.37434675  0.24986271  0.62443903  1
  V  V86  1  0.87526374  0.75035058  0.12614248  1
  V  V87  1  -0.00050531  0.74986400  0.74936108  1
  V  V88  1  0.12712604  0.75322870  0.36911607  1
  V  V89  1  0.50090137  0.50246522  0.50576750  1
  V  V90  1  0.75177392  0.37701572  0.62049670  1
  V  V91  1  0.50005467  0.37456485  0.37455308  1
  V  V92  1  0.62558462  0.24940920  0.37459194  1
  Zn  Zn93  1  0.62492097  0.50403631  0.62756558  1
  Zn  Zn94  1  0.24924971  0.50020045  0.25136840  1
  Zn  Zn95  1  0.74430556  0.87164306  0.12990761  1
  Zn  Zn96  1  0.74834632  0.75051639  0.00237415  1
  Zn  Zn97  1  0.37082590  0.62638238  0.74374305  1
  Zn  Zn98  1  0.42984998  0.68766566  0.58492516  1
  Zn  Zn99  1  0.37519991  0.37269904  0.00014771  1
  Zn  Zn100  1  0.62330506  0.12319638  0.00120173  1
  Zn  Zn101  1  0.74981836  0.50046327  0.74717855  1
  Zn  Zn102  1  0.24967955  0.49979797  0.74992946  1
  Zn  Zn103  1  0.25144335  0.24903324  0.00027133  1
  Zn  Zn104  1  0.37504631  0.85350687  0.50045380  1
  Zn  Zn105  1  0.00176938  0.62588146  0.12649562  1
  Zn  Zn106  1  0.87514367  0.12390908  0.74704176  1
  Zn  Zn107  1  0.87218753  0.49624193  0.37834328  1
  Zn  Zn108  1  0.50028767  0.62620821  0.12409818  1
  Zn  Zn109  1  0.12490298  0.37625361  0.25194868  1
  Zn  Zn110  1  0.12587075  0.37518976  0.75154457  1
  Zn  Zn111  1  -0.00049824  -0.00050680  0.00352872  1
  Zn  Zn112  1  0.75240761  0.87790455  0.62466389  1
  Zn  Zn113  1  0.50412284  0.87767480  0.37420803  1
  Zn  Zn114  1  0.37681998  0.75075262  0.12411066  1
  Zn  Zn115  1  0.50169363  0.00009179  0.00114786  1
  Zn  Zn116  1  0.11999928  -0.00495979  0.13160533  1
  Zn  Zn117  1  -0.00527685  0.11987451  0.62093690  1
  Zn  Zn118  1  0.87401709  0.62547234  0.74872517  1
  Zn  Zn119  1  0.75057777  0.00134380  0.74811215  1
  Zn  Zn120  1  0.00010239  0.37508082  0.87397635  1
  Zn  Zn121  1  0.00626840  0.75435128  0.24659879  1
  Zn  Zn122  1  0.18723429  0.18568381  0.18911067  1
  Zn  Zn123  1  0.18665300  0.18623235  0.68692445  1
  Zn  Zn124  1  0.19116613  0.68645498  0.18807830  1
  Zn  Zn125  1  0.18741008  0.68518554  0.68932219  1
  Zn  Zn126  1  0.68677967  0.18309284  0.18741671  1
  Zn  Zn127  1  0.68858125  0.18946272  0.68789443  1
  Zn  Zn128  1  0.68896136  0.68689021  0.18730998  1
  Zn  Zn129  1  0.68906156  0.69153895  0.68875418  1
  Zn  Zn130  1  0.31122375  0.31201769  0.31014206  1
  Zn  Zn131  1  0.31057315  0.31485658  0.81109183  1
  Zn  Zn132  1  0.31436230  0.81078317  0.31146815  1
  Zn  Zn133  1  0.31283937  0.81312232  0.81046055  1
  Zn  Zn134  1  0.81339118  0.31228045  0.31169388  1
  Zn  Zn135  1  0.81306316  0.31309590  0.80850570  1
  Zn  Zn136  1  0.81630289  0.81191784  0.31489751  1
  Zn  Zn137  1  0.81251534  0.81224053  0.81270559  1
  Zn  Zn138  1  0.18503595  0.43935608  0.43784206  1
  Zn  Zn139  1  0.18896074  0.43616331  0.94060452  1
  Zn  Zn140  1  0.18851933  0.93547775  0.44134241  1
  Zn  Zn141  1  0.18850816  0.93802505  0.93831095  1
  Zn  Zn142  1  0.68673427  0.43894374  0.43781417  1
  Zn  Zn143  1  0.68767448  0.43734210  0.93718331  1
  Zn  Zn144  1  0.69181033  0.93868394  0.44042581  1
  Zn  Zn145  1  0.68653104  0.93949637  0.94044005  1
  Zn  Zn146  1  0.31092346  0.06036584  0.06333639  1
  Zn  Zn147  1  0.30825709  0.06003741  0.56356213  1
  Zn  Zn148  1  0.31206816  0.56136408  0.06099093  1
  Zn  Zn149  1  0.30928614  0.56006321  0.56118770  1
  Zn  Zn150  1  0.80974206  0.06149740  0.06267015  1
  Zn  Zn151  1  0.81145123  0.06475033  0.56305028  1
  Zn  Zn152  1  0.81196121  0.56299581  0.06269752  1
  Zn  Zn153  1  0.81126351  0.56491691  0.56261466  1
  Zn  Zn154  1  0.43757021  0.43777577  0.18671755  1
  Zn  Zn155  1  0.43556592  0.43836508  0.68720956  1
  Zn  Zn156  1  0.43244447  0.93687210  0.18671774  1
  Zn  Zn157  1  0.43887114  0.93584002  0.68832181  1
  Zn  Zn158  1  0.93865052  0.43693573  0.18929726  1
  Zn  Zn159  1  0.93798442  0.43480486  0.68875825  1
  Zn  Zn160  1  0.93585197  0.93906158  0.18982441  1
  Zn  Zn161  1  0.93822625  0.93646559  0.68954248  1
  Zn  Zn162  1  0.06133149  0.06431415  0.31384135  1
  Zn  Zn163  1  0.06183288  0.06271299  0.81044811  1
  Zn  Zn164  1  0.06225886  0.56333772  0.31342257  1
  Zn  Zn165  1  0.06101926  0.56453041  0.81207987  1
  Zn  Zn166  1  0.56240738  0.06109737  0.31166887  1
  Zn  Zn167  1  0.56225665  0.06294186  0.81280484  1
  Zn  Zn168  1  0.56327546  0.56537444  0.31537204  1
  Zn  Zn169  1  0.56488990  0.56042938  0.81333472  1
  Zn  Zn170  1  0.43719618  0.18508934  0.43679398  1
  Zn  Zn171  1  0.43748322  0.18702403  0.94067790  1
  Zn  Zn172  1  0.44277990  0.68618947  0.42228367  1
  Zn  Zn173  1  0.43793974  0.68766872  0.93462736  1
  Zn  Zn174  1  0.93720080  0.18916361  0.43776170  1
  Zn  Zn175  1  0.93843720  0.18702113  0.93789750  1
  Zn  Zn176  1  0.94096011  0.68918260  0.43696934  1
  Zn  Zn177  1  0.93872453  0.68704661  0.93923074  1
  Zn  Zn178  1  0.06231528  0.31302560  0.06128747  1
  Zn  Zn179  1  0.06156804  0.31208871  0.56009150  1
  Zn  Zn180  1  0.06039468  0.81184688  0.06113046  1
  Zn  Zn181  1  0.06467165  0.81441790  0.56092280  1
  Zn  Zn182  1  0.56215829  0.31188461  0.06143499  1
  Zn  Zn183  1  0.56431824  0.31395091  0.56218858  1
  Zn  Zn184  1  0.56034368  0.81218078  0.06178558  1
  Zn  Zn185  1  0.56382637  0.81662872  0.55999943  1
  O  O186  1  0.11980112  0.12472387  0.11603998  1
  O  O187  1  0.12563104  0.11719224  0.61701044  1
  O  O188  1  0.12631431  0.61598323  0.11940195  1
  O  O189  1  0.12087554  0.61828788  0.61732382  1
  O  O190  1  0.61855151  0.11479785  0.12488478  1
  O  O191  1  0.61947534  0.12210057  0.62016477  1
  O  O192  1  0.62627916  0.61733815  0.11819505  1
  O  O193  1  0.63247245  0.62540350  0.60966660  1
  O  O194  1  0.37987337  0.37801677  0.37898685  1
  O  O195  1  0.38012064  0.38241837  0.87711173  1
  O  O196  1  0.37310436  0.88641967  0.37947651  1
  O  O197  1  0.37873203  0.88155665  0.87877887  1
  O  O198  1  0.88914646  0.37637587  0.37009341  1
  O  O199  1  0.87338450  0.38467947  0.88083100  1
  O  O200  1  0.88316056  0.88163241  0.38252237  1
  O  O201  1  0.87869999  0.88139727  0.88223621  1
  O  O202  1  0.25597372  0.00276508  0.37039581  1
  O  O203  1  0.25529013  0.00534934  0.86852185  1
  O  O204  1  0.25476646  0.50916596  0.37326590  1
  O  O205  1  0.25801852  0.50438501  0.87652688  1
  O  O206  1  0.75815654  0.00550614  0.36939578  1
  O  O207  1  0.75795061  0.00850151  0.87511599  1
  O  O208  1  0.75222331  0.50551007  0.36896131  1
  O  O209  1  0.75875967  0.50810475  0.87516504  1
  O  O210  1  0.24124075  0.49187687  0.12485176  1
  O  O211  1  0.23683254  0.49282748  0.62321499  1
  O  O212  1  0.24824387  0.99209747  0.13507537  1
  O  O213  1  0.24000877  0.99320489  0.63150783  1
  O  O214  1  0.74459490  0.49330303  0.13012319  1
  O  O215  1  0.74973110  0.48997824  0.62510301  1
  O  O216  1  0.74290015  0.99955333  0.13478821  1
  O  O217  1  0.74234343  0.99888428  0.62834524  1
  O  O218  1  0.00312507  0.36897098  0.25854724  1
  O  O219  1  0.00387733  0.36180697  0.75272403  1
  O  O220  1  -0.00543645  0.87344794  0.26548656  1
  O  O221  1  0.00697082  0.86916152  0.75586906  1
  O  O222  1  0.50559066  0.36913419  0.25509029  1
  O  O223  1  0.50491321  0.36910453  0.75477985  1
  O  O224  1  0.49116595  0.86112213  0.25265111  1
  O  O225  1  0.50981715  0.86767516  0.75508936  1
  O  O226  1  0.49414042  0.13028525  0.24571870  1
  O  O227  1  0.49468628  0.13134135  0.74434363  1
  O  O228  1  0.49147013  0.63301737  0.25122216  1
  O  O229  1  0.50463591  0.64097478  0.75639530  1
  O  O230  1  0.99387519  0.13113985  0.24565457  1
  O  O231  1  0.99897496  0.13710334  0.74602058  1
  O  O232  1  0.98823354  0.62666191  0.24890429  1
  O  O233  1  0.99851511  0.63266481  0.74237018  1
  O  O234  1  0.37172423  0.25182854  0.00928247  1
  O  O235  1  0.37004684  0.25383976  0.50438136  1
  O  O236  1  0.36819355  0.75611611  -0.00093141  1
  O  O237  1  0.38668300  0.74247105  0.49929634  1
  O  O238  1  0.87002712  0.25543826  0.00510569  1
  O  O239  1  0.86882800  0.24542898  0.51120799  1
  O  O240  1  0.87500614  0.75733667  0.00871449  1
  O  O241  1  0.87172650  0.75766035  0.50411353  1
  O  O242  1  0.13127854  0.24208770  0.49530125  1
  O  O243  1  0.12418514  0.23956539  0.99093822  1
  O  O244  1  0.11916982  0.73659566  0.49101770  1
  O  O245  1  0.13000189  0.74484930  0.99389531  1
  O  O246  1  0.63018221  0.24420997  0.49339555  1
  O  O247  1  0.63236991  0.24866573  0.99315436  1
  O  O248  1  0.62935393  0.74405201  0.49234287  1
  O  O249  1  0.62678584  0.74428189  0.99385910  1
  O  O250  1  0.49538094  0.24481324  0.13164797  1
  O  O251  1  0.49407047  0.24549158  0.62941428  1
  O  O252  1  0.49813641  0.74605392  0.13367599  1
  O  O253  1  0.50730082  0.75317325  0.64083257  1
  O  O254  1  0.99396183  0.24560962  0.13029826  1
  O  O255  1  0.99216030  0.25108758  0.63058031  1
  O  O256  1  0.98969743  0.74839367  0.12818877  1
  O  O257  1  0.99673445  0.74596082  0.62903735  1
  O  O258  1  0.00410040  0.25739110  0.37133042  1
  O  O259  1  0.00761082  0.24938525  0.86682555  1
  O  O260  1  0.00885680  0.75761589  0.37211194  1
  O  O261  1  0.00527162  0.75549103  0.87048903  1
  O  O262  1  0.50529556  0.25396974  0.36959169  1
  O  O263  1  0.50444705  0.25436028  0.86946890  1
  O  O264  1  0.51278745  0.75356104  0.36421193  1
  O  O265  1  0.50763313  0.75708356  0.86628564  1
  O  O266  1  0.24173103  0.13053768  0.49467885  1
  O  O267  1  0.24056061  0.12600929  0.99441959  1
  O  O268  1  0.23902981  0.61743568  0.48888555  1
  O  O269  1  0.24459844  0.63094633  0.99440446  1
  O  O270  1  0.74374556  0.13177071  0.49357372  1
  O  O271  1  0.75018739  0.13138588  0.98907817  1
  O  O272  1  0.74348722  0.63110542  0.49355818  1
  O  O273  1  0.74477510  0.62569285  0.98987227  1
  O  O274  1  0.25141671  0.37105500  0.01406533  1
  O  O275  1  0.25519593  0.36926018  0.50342426  1
  O  O276  1  0.25465845  0.87015764  0.00605043  1
  O  O277  1  0.25376612  0.87715065  0.51583283  1
  O  O278  1  0.75515370  0.36979224  0.00624646  1
  O  O279  1  0.74282750  0.36844363  0.51054706  1
  O  O280  1  0.76318056  0.87308181  0.00127016  1
  O  O281  1  0.76394645  0.86879268  0.50004239  1
  O  O282  1  0.12587206  0.50083739  0.23803507  1
  O  O283  1  0.12168617  0.49905460  0.73621671  1
  O  O284  1  0.13947569  1.00453224  0.25283724  1
  O  O285  1  0.13112473  0.99510380  0.74372932  1
  O  O286  1  0.63006126  0.49518510  0.24613401  1
  O  O287  1  0.62736107  0.49234364  0.74630436  1
  O  O288  1  0.63621315  1.00515447  0.24360052  1
  O  O289  1  0.62416248  0.99137082  0.74507257  1
  O  O290  1  0.36619959  0.00391625  0.26065119  1
  O  O291  1  0.37112194  0.00652664  0.75554733  1
  O  O292  1  0.37645699  0.50882653  0.25586988  1
  O  O293  1  0.37542628  0.49883571  0.76511237  1
  O  O294  1  0.86721020  0.00649646  0.25994703  1
  O  O295  1  0.87267701  0.00012452  0.76221012  1
  O  O296  1  0.86942206  0.50984205  0.24977656  1
  O  O297  1  0.87445895  0.50187161  0.76174820  1
  O  O298  1  0.11604852  0.36920587  0.37376373  1
  O  O299  1  0.12411544  0.36268968  0.87598867  1
  O  O300  1  0.11658203  0.86446472  0.38681619  1
  O  O301  1  0.12058203  0.87056292  0.86991764  1
  O  O302  1  0.62039036  0.36893011  0.36905730  1
  O  O303  1  0.62032667  0.36952589  0.86888056  1
  O  O304  1  0.62779835  0.86181538  0.38081446  1
  O  O305  1  0.62106366  0.87214215  0.86852856  1
  O  O306  1  0.37924956  0.12810596  0.13183605  1
  O  O307  1  0.37924659  0.12996086  0.62999494  1
  O  O308  1  0.37480549  0.62544431  0.13606249  1
  O  O309  1  0.37943070  0.60430525  0.63392391  1
  O  O310  1  0.87937196  0.13010615  0.12935625  1
  O  O311  1  0.87644807  0.13540776  0.62725978  1
  O  O312  1  0.87495884  0.63325838  0.13267800  1
  O  O313  1  0.88151790  0.63281254  0.62594613  1
  O  O314  1  0.25479124  0.25754812  0.12685025  1
  O  O315  1  0.25508311  0.25395015  0.61923000  1
  O  O316  1  0.25195108  0.75771114  0.11928152  1
  O  O317  1  0.24574726  0.76543729  0.63203347  1
  O  O318  1  0.75507160  0.25392700  0.12067663  1
  O  O319  1  0.75718359  0.25649130  0.62000993  1
  O  O320  1  0.76135320  0.75319961  0.12401168  1
  O  O321  1  0.75809430  0.75396686  0.61837212  1
  O  O322  1  0.24517908  0.24406700  0.37939219  1
  O  O323  1  0.24021517  0.24407952  0.87465938  1
  O  O324  1  0.24341548  0.73867491  0.37162029  1
  O  O325  1  0.24405829  0.74580108  0.87936401  1
  O  O326  1  0.74562929  0.24515455  0.37849040  1
  O  O327  1  0.74655841  0.24373593  0.87904078  1
  O  O328  1  0.74504233  0.74514480  0.37922033  1
  O  O329  1  0.74598798  0.74054341  0.87688034  1
  O  O330  1  0.00794222  0.12415178  0.00606617  1
  O  O331  1  0.01462077  0.13045894  0.50093238  1
  O  O332  1  0.00738234  0.61835558  0.00287429  1
  O  O333  1  0.00924607  0.61759463  0.50374834  1
  O  O334  1  0.50180413  0.12140970  0.00936633  1
  O  O335  1  0.50590805  0.12030121  0.50553529  1
  O  O336  1  0.50702083  0.61860787  -0.00016592  1
  O  O337  1  0.50853949  0.61577624  0.49567090  1
  O  O338  1  0.49548388  0.37991592  0.49259604  1
  O  O339  1  0.49943128  0.38156679  0.99283991  1
  O  O340  1  0.49496580  0.88472224  0.49769726  1
  O  O341  1  0.49203101  0.87630656  0.99271256  1
  O  O342  1  1.00574756  0.38525684  0.49011749  1
  O  O343  1  0.99252819  0.38112009  0.99754246  1
  O  O344  1  0.98853224  0.87043382  0.48996767  1
  O  O345  1  0.98916476  0.87687772  0.99376838  1
  O  O346  1  0.49559485  0.49385793  0.38329420  1
  O  O347  1  0.49337780  0.49472188  0.87985958  1
  O  O348  1  0.49081389  0.99947268  0.37903543  1
  O  O349  1  0.49320991  0.99434113  0.87536697  1
  O  O350  1  1.00071899  0.49276822  0.38243869  1
  O  O351  1  0.99082499  0.49967420  0.88044578  1
  O  O352  1  0.98854086  0.99361687  0.37025459  1
  O  O353  1  0.99021918  0.99514656  0.87575925  1
  O  O354  1  0.00234487  0.00739451  0.12511832  1
  O  O355  1  0.01585544  0.00053485  0.63192086  1
  O  O356  1  0.00975492  0.49990607  0.11956068  1
  O  O357  1  0.00520527  0.50345785  0.61803318  1
  O  O358  1  0.50736463  0.00441561  0.12877224  1
  O  O359  1  0.50503093  0.00700373  0.62066538  1
  O  O360  1  0.50701716  0.50134399  0.11861604  1
  O  O361  1  0.50460422  0.48884868  0.60845379  1
  O  O362  1  0.24678791  0.37812716  0.23915881  1
  O  O363  1  0.24551788  0.37888846  0.74065821  1
  O  O364  1  0.25659963  0.88263337  0.24066821  1
  O  O365  1  0.24505879  0.88060511  0.74203489  1
  O  O366  1  0.74494540  0.37964438  0.24499071  1
  O  O367  1  0.74383020  0.37504512  0.73921632  1
  O  O368  1  0.75907770  0.88915751  0.25058187  1
  O  O369  1  0.73690352  0.87576091  0.75004368  1
  O  O370  1  0.25542566  0.11577577  0.25606296  1
  O  O371  1  0.25574132  0.12021899  0.75494996  1
  O  O372  1  0.26041194  0.62291569  0.25925273  1
  O  O373  1  0.25023374  0.62037785  0.75930626  1
  O  O374  1  0.75633864  0.11753050  0.25657935  1
  O  O375  1  0.75195522  0.12531459  0.76298917  1
  O  O376  1  0.75868463  0.61970751  0.25475554  1
  O  O377  1  0.75124628  0.62362657  0.76225548  1
  O  O378  1  0.36893982  0.11659234  0.37021337  1
  O  O379  1  0.36982504  0.12143693  0.86923608  1
  O  O380  1  0.36795815  0.61821026  0.36626069  1
  O  O381  1  0.36941374  0.61570337  0.87236554  1
  O  O382  1  0.87136248  0.11828185  0.37167920  1
  O  O383  1  0.86784210  0.11702967  0.87529627  1
  O  O384  1  0.86992035  0.62627587  0.36584039  1
  O  O385  1  0.86772953  0.61722416  0.87621066  1
  O  O386  1  0.13201662  0.38271492  0.12559627  1
  O  O387  1  0.12877893  0.38349051  0.62261337  1
  O  O388  1  0.13869727  0.87678619  0.11718436  1
  O  O389  1  0.13336125  0.88180737  0.62814691  1
  O  O390  1  0.63053059  0.37956726  0.13113801  1
  O  O391  1  0.63552305  0.37380366  0.63065713  1
  O  O392  1  0.62618054  0.88774075  0.12131069  1
  O  O393  1  0.62683933  0.88211484  0.63379987  1
  O  O394  1  0.11774603  0.24870235  0.25796224  1
  O  O395  1  0.11777120  0.24854219  0.75834028  1
  O  O396  1  0.12416408  0.74297561  0.26429356  1
  O  O397  1  0.11892147  0.75530249  0.75630534  1
  O  O398  1  0.62048986  0.25464177  0.25507204  1
  O  O399  1  0.61855601  0.25520897  0.75559664  1
  O  O400  1  0.61786246  0.74237927  0.25872474  1
  O  O401  1  0.61834937  0.75867033  0.75582887  1
  O  O402  1  0.38073971  0.24313356  0.24583328  1
  O  O403  1  0.37966279  0.24514038  0.74411914  1
  O  O404  1  0.38467442  0.73920305  0.25132184  1
  O  O405  1  0.39287764  0.74935006  0.75564019  1
  O  O406  1  0.87990012  0.24379345  0.24418513  1
  O  O407  1  0.88341112  0.24834775  0.74108458  1
  O  O408  1  0.87498265  0.74148615  0.24224354  1
  O  O409  1  0.88225271  0.75113171  0.74340023  1
  O  O410  1  0.38258049  0.49320172  0.49290774  1
  O  O411  1  0.38089668  0.49885724  0.98936209  1
  O  O412  1  0.37939857  1.00585378  0.48942055  1
  O  O413  1  0.37502734  0.99374128  0.99265690  1
  O  O414  1  0.88988346  0.50835735  0.49791096  1
  O  O415  1  0.87928625  0.49572491  0.99291278  1
  O  O416  1  0.86845374  0.99236394  0.48898113  1
  O  O417  1  0.87526056  0.99228915  0.99159842  1
  O  O418  1  0.12259035  0.01260498  -0.00049146  1
  O  O419  1  0.13189340  0.01042049  0.50924482  1
  O  O420  1  0.12061343  0.50449026  0.00804384  1
  O  O421  1  0.11567968  0.50889067  0.50809238  1
  O  O422  1  0.62327409  0.00341998  0.01214768  1
  O  O423  1  0.61979362  0.00599920  0.50458952  1
  O  O424  1  0.62039834  0.50425704  0.00470691  1
  O  O425  1  0.61696161  0.50969340  0.49806808  1
  O  O426  1  0.36622583  0.36949133  0.12573792  1
  O  O427  1  0.36884225  0.36917035  0.61812415  1
  O  O428  1  0.36289562  0.87368774  0.11727491  1
  O  O429  1  0.36081399  0.87948614  0.62604376  1
  O  O430  1  0.86924095  0.36946321  0.12073570  1
  O  O431  1  0.86444506  0.36477088  0.63020415  1
  O  O432  1  0.87532568  0.86774698  0.11777334  1
  O  O433  1  0.87685486  0.87160140  0.61605120  1
  O  O434  1  0.12955596  0.12946294  0.38311603  1
  O  O435  1  0.12882114  0.13180796  0.88148013  1
  O  O436  1  0.13193540  0.63098854  0.38119844  1
  O  O437  1  0.12994243  0.62990476  0.88080923  1
  O  O438  1  0.63012313  0.13016012  0.37994018  1
  O  O439  1  0.63393502  0.13058941  0.87576924  1
  O  O440  1  0.63120674  0.63475095  0.38414697  1
  O  O441  1  0.63404583  0.62867343  0.88069214  1
