# generated using pymatgen
data_V93Zn93O256
_symmetry_space_group_name_H-M   'P 1'
_cell_length_a   17.04659734
_cell_length_b   17.04444097
_cell_length_c   17.04299951
_cell_angle_alpha   90.07028464
_cell_angle_beta   90.02007629
_cell_angle_gamma   90.03388581
_symmetry_Int_Tables_number   1
_chemical_formula_structural   V93Zn93O256
_chemical_formula_sum   'V93 Zn93 O256'
_cell_volume   4951.83387375
_cell_formula_units_Z   1
loop_
 _symmetry_equiv_pos_site_id
 _symmetry_equiv_pos_as_xyz
  1  'x, y, z'
loop_
 _atom_site_type_symbol
 _atom_site_label
 _atom_site_symmetry_multiplicity
 _atom_site_fract_x
 _atom_site_fract_y
 _atom_site_fract_z
 _atom_site_occupancy
  V  V0  1  0.50081945  0.87279193  0.37042716  1
  V  V1  1  -0.00675258  0.24569847  0.24988137  1
  V  V2  1  0.37441993  0.25067337  0.62562601  1
  V  V3  1  0.12495168  0.49899893  0.62550958  1
  V  V4  1  0.24851739  0.12505907  0.37515385  1
  V  V5  1  0.50182156  0.87816303  0.87972292  1
  V  V6  1  0.87451235  -0.00053383  0.87422266  1
  V  V7  1  0.50163192  0.62481788  0.62529336  1
  V  V8  1  0.62552396  0.62563723  0.49948178  1
  V  V9  1  0.38118711  0.00151768  0.87993277  1
  V  V10  1  0.87000095  0.00185942  0.36081195  1
  V  V11  1  0.74839146  0.24879124  0.00111553  1
  V  V12  1  0.87405854  0.12437161  0.74956819  1
  V  V13  1  0.49916244  0.25084693  0.25081750  1
  V  V14  1  0.25218704  0.87614392  0.12489311  1
  V  V15  1  0.49983961  0.12411818  0.62398530  1
  V  V16  1  0.12297351  0.24873223  0.37476207  1
  V  V17  1  0.13035063  0.74646343  0.37459781  1
  V  V18  1  0.37489935  0.12516655  0.75037836  1
  V  V19  1  0.25086809  0.12412194  0.87419498  1
  V  V20  1  0.12468458  0.12320229  0.49894161  1
  V  V21  1  0.50034996  0.12172991  0.11870542  1
  V  V22  1  0.00346429  0.50037968  0.00187997  1
  V  V23  1  0.74997843  0.62566689  0.87522439  1
  V  V24  1  0.74862670  0.24719495  0.49884977  1
  V  V25  1  0.74876187  0.61934044  0.36843608  1
  V  V26  1  0.62573462  0.75013942  0.87639619  1
  V  V27  1  0.87444093  0.62430991  0.74947275  1
  V  V28  1  -0.00108698  0.12423678  0.62327779  1
  V  V29  1  0.74942852  0.87490463  0.62370770  1
  V  V30  1  0.62469869  0.88005086  0.24947613  1
  V  V31  1  0.74888256  0.37462776  0.62486032  1
  V  V32  1  0.63125564  0.37997423  0.25154762  1
  V  V33  1  0.38052762  0.87894030  0.00132786  1
  V  V34  1  0.63163103  0.50113718  0.13057691  1
  V  V35  1  0.13126122  0.62470357  0.49612760  1
  V  V36  1  0.37374622  0.25414006  0.12604894  1
  V  V37  1  0.87513309  0.74993333  0.62282470  1
  V  V38  1  0.87535352  0.87414098  -0.00022393  1
  V  V39  1  0.12468793  0.12453281  0.00018821  1
  V  V40  1  0.37469225  0.12552246  0.25047636  1
  V  V41  1  0.00078044  0.74905473  0.74962771  1
  V  V42  1  0.87348008  0.37290782  0.00262895  1
  V  V43  1  -0.00019677  0.37292241  0.37452839  1
  V  V44  1  0.38175451  0.75246375  0.13232448  1
  V  V45  1  0.87414617  0.24840020  0.62445179  1
  V  V46  1  -0.00069343  0.62399625  0.62413619  1
  V  V47  1  0.12572382  -0.00146874  0.62469087  1
  V  V48  1  0.00061799  0.74869415  0.24947683  1
  V  V49  1  0.87396429  0.37397863  0.49966072  1
  V  V50  1  0.87300337  0.62053057  0.24972017  1
  V  V51  1  0.25224617  0.75176235  0.00011165  1
  V  V52  1  0.25130605  0.62722892  0.87597143  1
  V  V53  1  0.50078231  0.00002866  0.49860494  1
  V  V54  1  0.37377665  0.37613548  0.50144841  1
  V  V55  1  0.75193538  0.12129532  0.36087685  1
  V  V56  1  0.62609567  0.87607896  0.75023783  1
  V  V57  1  0.12549979  0.87353849  0.25005343  1
  V  V58  1  0.50160897  0.62835087  0.13260480  1
  V  V59  1  0.62499447  0.24851610  0.37526792  1
  V  V60  1  0.49858967  0.37548105  0.37594257  1
  V  V61  1  0.12487041  0.24955113  0.87404342  1
  V  V62  1  0.50117798  0.75173419  0.75095211  1
  V  V63  1  0.87258579  0.49911519  0.37100477  1
  V  V64  1  0.00049811  0.87425117  0.87496239  1
  V  V65  1  0.12716050  0.75075607  0.87531117  1
  V  V66  1  0.25077794  0.25298882  0.00186213  1
  V  V67  1  0.62078344  0.74903067  0.36663564  1
  V  V68  1  0.37732827  0.50088069  0.87800918  1
  V  V69  1  0.36831029  0.50526337  0.37583234  1
  V  V70  1  0.62372826  0.25053779  0.87580890  1
  V  V71  1  0.62417864  -0.00077255  0.62401520  1
  V  V72  1  0.62523020  0.62497629  0.00159135  1
  V  V73  1  0.62302526  0.00089133  0.11984028  1
  V  V74  1  -0.00081399  0.49866421  0.49940114  1
  V  V75  1  0.75148642  0.88108835  0.13000896  1
  V  V76  1  -0.00681012  0.12451674  0.12784213  1
  V  V77  1  0.87397251  0.50069984  0.87420235  1
  V  V78  1  0.87447837  0.75006488  0.12527900  1
  V  V79  1  0.36962433  0.62695241  0.25457822  1
  V  V80  1  0.37501567  0.87444127  0.49930743  1
  V  V81  1  0.12608687  0.00097400  0.12433141  1
  V  V82  1  0.62492499  0.37624534  0.75068874  1
  V  V83  1  -0.00151152  -0.00123131  0.49747725  1
  V  V84  1  0.12387195  0.37491970  0.74993272  1
  V  V85  1  0.00014832  0.62392220  0.12455425  1
  V  V86  1  -0.00002714  0.37362550  0.87480209  1
  V  V87  1  0.87443633  0.87493897  0.49680489  1
  V  V88  1  0.24906893  0.50082528  0.75168888  1
  V  V89  1  0.37348054  0.75165755  0.62472490  1
  V  V90  1  0.37590991  -0.00011024  0.37444578  1
  V  V91  1  0.24954295  0.00083921  0.25011740  1
  V  V92  1  0.12581135  0.87535475  0.74774214  1
  Zn  Zn93  1  0.24727993  0.38012490  0.12890736  1
  Zn  Zn94  1  -0.00148754  0.87546795  0.37163997  1
  Zn  Zn95  1  0.24668182  0.50039100  0.25035795  1
  Zn  Zn96  1  0.50064896  0.49857481  0.00322403  1
  Zn  Zn97  1  0.86988367  0.24407654  0.12961212  1
  Zn  Zn98  1  0.75040993  0.75059618  0.00083602  1
  Zn  Zn99  1  0.12918953  0.50025655  0.12976880  1
  Zn  Zn100  1  0.12597310  0.37657801  0.24782106  1
  Zn  Zn101  1  0.12712631  0.62607555  0.00215636  1
  Zn  Zn102  1  0.74995712  0.50041418  0.74811992  1
  Zn  Zn103  1  0.00140342  0.00051756  -0.00009070  1
  Zn  Zn104  1  0.49902831  0.50071059  0.50126257  1
  Zn  Zn105  1  0.24916851  0.87546502  0.62348254  1
  Zn  Zn106  1  0.62553508  0.49972259  0.62535813  1
  Zn  Zn107  1  0.49945249  0.25145016  0.75165669  1
  Zn  Zn108  1  0.24793775  0.24963857  0.50002369  1
  Zn  Zn109  1  0.24916475  0.37441100  0.62667526  1
  Zn  Zn110  1  0.74854591  0.12318367  0.87536032  1
  Zn  Zn111  1  0.37778652  0.37782426  0.00124011  1
  Zn  Zn112  1  0.74910450  0.00017038  0.74810030  1
  Zn  Zn113  1  0.37596556  0.62580329  0.75089625  1
  Zn  Zn114  1  0.75120571  0.74874761  0.49734724  1
  Zn  Zn115  1  0.62151722  0.12060588  -0.00459285  1
  Zn  Zn116  1  0.49930571  0.37712351  0.87782789  1
  Zn  Zn117  1  0.25228235  0.74795640  0.49607686  1
  Zn  Zn118  1  -0.00005985  0.24979209  0.74984127  1
  Zn  Zn119  1  0.75295685  0.37793882  0.13088310  1
  Zn  Zn120  1  0.25124514  -0.00220817  0.74904424  1
  Zn  Zn121  1  0.62611343  0.12288078  0.49791704  1
  Zn  Zn122  1  0.18314386  0.18899732  0.18907469  1
  Zn  Zn123  1  0.18811745  0.18618780  0.68753650  1
  Zn  Zn124  1  0.18852593  0.68580168  0.18555178  1
  Zn  Zn125  1  0.18791075  0.68537416  0.68775637  1
  Zn  Zn126  1  0.68424743  0.19087057  0.18552825  1
  Zn  Zn127  1  0.68722673  0.18667506  0.68751357  1
  Zn  Zn128  1  0.68962763  0.69120741  0.18787332  1
  Zn  Zn129  1  0.68936865  0.68996514  0.68814292  1
  Zn  Zn130  1  0.30876483  0.31474045  0.31358969  1
  Zn  Zn131  1  0.31161796  0.31486359  0.81268232  1
  Zn  Zn132  1  0.31138927  0.81302446  0.31234171  1
  Zn  Zn133  1  0.31355610  0.81505999  0.81066622  1
  Zn  Zn134  1  0.81213495  0.30882707  0.31495889  1
  Zn  Zn135  1  0.81057835  0.31174567  0.81334979  1
  Zn  Zn136  1  0.80935276  0.80895048  0.31211816  1
  Zn  Zn137  1  0.81156735  0.81166784  0.81078396  1
  Zn  Zn138  1  0.18731915  0.43586424  0.43719465  1
  Zn  Zn139  1  0.18936045  0.43671227  0.93688170  1
  Zn  Zn140  1  0.18831514  0.93412798  0.43760924  1
  Zn  Zn141  1  0.19115903  0.93817124  0.93660645  1
  Zn  Zn142  1  0.68670226  0.43845332  0.43869406  1
  Zn  Zn143  1  0.68752763  0.43978848  0.93951616  1
  Zn  Zn144  1  0.68996965  0.93926869  0.43625745  1
  Zn  Zn145  1  0.69009542  0.93623869  0.93997024  1
  Zn  Zn146  1  0.31271651  0.06476655  0.06167960  1
  Zn  Zn147  1  0.31129861  0.06137800  0.56226252  1
  Zn  Zn148  1  0.31248723  0.56493007  0.06400427  1
  Zn  Zn149  1  0.31227046  0.56156729  0.56502085  1
  Zn  Zn150  1  0.81005519  0.06044046  0.06100340  1
  Zn  Zn151  1  0.80970945  0.06135613  0.55683441  1
  Zn  Zn152  1  0.81229006  0.56285351  0.06129605  1
  Zn  Zn153  1  0.81009980  0.56056190  0.56021369  1
  Zn  Zn154  1  0.44056789  0.44185577  0.19124387  1
  Zn  Zn155  1  0.43845452  0.43860748  0.69166790  1
  Zn  Zn156  1  0.44148172  0.93896583  0.18930838  1
  Zn  Zn157  1  0.43850047  0.93818366  0.69020639  1
  Zn  Zn158  1  0.94020822  0.43547780  0.18902220  1
  Zn  Zn159  1  0.93729830  0.43669139  0.68781242  1
  Zn  Zn160  1  0.94177698  0.93579354  0.18434774  1
  Zn  Zn161  1  0.93870728  0.93707543  0.68609407  1
  Zn  Zn162  1  0.05886862  0.06148247  0.31198125  1
  Zn  Zn163  1  0.06157615  0.06190937  0.81122140  1
  Zn  Zn164  1  0.06172017  0.56166765  0.31260243  1
  Zn  Zn165  1  0.06302299  0.56327710  0.81484425  1
  Zn  Zn166  1  0.56500651  0.06217649  0.30840769  1
  Zn  Zn167  1  0.56124659  0.06442950  0.81001664  1
  Zn  Zn168  1  0.55596142  0.56053079  0.31286639  1
  Zn  Zn169  1  0.56291235  0.56293192  0.81226773  1
  Zn  Zn170  1  0.43756613  0.18768286  0.43879479  1
  Zn  Zn171  1  0.43767335  0.18977997  0.93799950  1
  Zn  Zn172  1  0.43938929  0.68863809  0.43796477  1
  Zn  Zn173  1  0.43922794  0.68804736  0.94206592  1
  Zn  Zn174  1  0.93412683  0.18346587  0.43539998  1
  Zn  Zn175  1  0.93882449  0.18657800  0.93876372  1
  Zn  Zn176  1  0.94108136  0.68676005  0.43523380  1
  Zn  Zn177  1  0.93772177  0.68770341  0.93795279  1
  Zn  Zn178  1  0.06310500  0.31221670  0.06575416  1
  Zn  Zn179  1  0.06118100  0.31058662  0.56216675  1
  Zn  Zn180  1  0.06286909  0.81254983  0.06184585  1
  Zn  Zn181  1  0.06111469  0.81173827  0.56035270  1
  Zn  Zn182  1  0.56021674  0.31582509  0.06312735  1
  Zn  Zn183  1  0.56138770  0.31137804  0.56239697  1
  Zn  Zn184  1  0.56317140  0.81220031  0.06159500  1
  Zn  Zn185  1  0.56216342  0.81210824  0.55871150  1
  O  O186  1  0.11807452  0.11982912  0.11948606  1
  O  O187  1  0.11891378  0.11966543  0.61928945  1
  O  O188  1  0.11535147  0.62331417  0.12112737  1
  O  O189  1  0.11778203  0.61954977  0.61797737  1
  O  O190  1  0.61696144  0.11745477  0.12611552  1
  O  O191  1  0.61795738  0.11847129  0.62360782  1
  O  O192  1  0.61988909  0.62124896  0.12515462  1
  O  O193  1  0.61838074  0.62860198  0.61646779  1
  O  O194  1  0.37934105  0.38107661  0.38415700  1
  O  O195  1  0.37541983  0.38754238  0.87577827  1
  O  O196  1  0.38034881  0.88000294  0.37808096  1
  O  O197  1  0.38089939  0.88328379  0.88001249  1
  O  O198  1  0.87902966  0.37892004  0.38099666  1
  O  O199  1  0.87923465  0.37926035  0.88321486  1
  O  O200  1  0.87205594  0.87988115  0.38296133  1
  O  O201  1  0.88001685  0.88089214  0.87759480  1
  O  O202  1  0.25584639  0.00463447  0.36916275  1
  O  O203  1  0.26132981  0.00672226  0.87271927  1
  O  O204  1  0.26547049  0.49765155  0.37737408  1
  O  O205  1  0.25682209  0.50691900  0.87197709  1
  O  O206  1  0.75754574  0.00914278  0.37762294  1
  O  O207  1  0.76258864  0.00064363  0.87246357  1
  O  O208  1  0.75592896  0.51144802  0.38034616  1
  O  O209  1  0.75722876  0.50736766  0.87422421  1
  O  O210  1  0.24883002  0.49790541  0.12693075  1
  O  O211  1  0.24261364  0.49875014  0.63336084  1
  O  O212  1  0.24650703  0.99630753  0.13076990  1
  O  O213  1  0.24151953  0.99774843  0.62759934  1
  O  O214  1  0.73629096  0.49955705  0.12349431  1
  O  O215  1  0.74661724  0.49091207  0.62628403  1
  O  O216  1  0.74263381  0.98853052  0.12237898  1
  O  O217  1  0.74268015  0.99252231  0.62406786  1
  O  O218  1  0.00155390  0.36414177  0.25774210  1
  O  O219  1  0.00545450  0.37326178  0.75728270  1
  O  O220  1  0.00885321  0.86612783  0.24832684  1
  O  O221  1  0.00471686  0.86782686  0.75480504  1
  O  O222  1  0.50722065  0.36950858  0.25696098  1
  O  O223  1  0.51219760  0.37234873  0.75315140  1
  O  O224  1  0.51298080  0.87795440  0.25648633  1
  O  O225  1  0.50699137  0.87033517  0.75806071  1
  O  O226  1  0.49400596  0.13126040  0.24230224  1
  O  O227  1  0.49217260  0.12881029  0.74158696  1
  O  O228  1  0.49095453  0.62430375  0.23912280  1
  O  O229  1  0.50219573  0.63315958  0.73971340  1
  O  O230  1  1.00554473  0.13338303  0.23919290  1
  O  O231  1  0.98886865  0.12538494  0.74309321  1
  O  O232  1  0.99277861  0.63042812  0.24398023  1
  O  O233  1  0.99468189  0.62967744  0.74454643  1
  O  O234  1  0.36602011  0.24879383  0.00935261  1
  O  O235  1  0.37402174  0.25865564  0.50798597  1
  O  O236  1  0.37096751  0.75746741  0.01096123  1
  O  O237  1  0.37506919  0.75477335  0.50789451  1
  O  O238  1  0.86649375  0.25843640  -0.00182685  1
  O  O239  1  0.86915851  0.25466734  0.50467950  1
  O  O240  1  0.87494512  0.75671286  0.00700509  1
  O  O241  1  0.87671087  0.75894316  0.50326175  1
  O  O242  1  0.12471907  0.24110299  0.49395125  1
  O  O243  1  0.13322598  0.24474233  0.99467149  1
  O  O244  1  0.12428492  0.74198823  0.49253259  1
  O  O245  1  0.13390047  0.75202933  0.99296881  1
  O  O246  1  0.63027932  0.24969940  0.49219939  1
  O  O247  1  0.63320485  0.25231096  0.99268277  1
  O  O248  1  0.62661743  0.73995372  0.48990943  1
  O  O249  1  0.62729642  0.74330734  0.99392356  1
  O  O250  1  0.49220409  0.24313381  0.13130145  1
  O  O251  1  0.48838718  0.24409979  0.62516700  1
  O  O252  1  0.49012846  0.74339542  0.12221449  1
  O  O253  1  0.49343931  0.74383903  0.62886366  1
  O  O254  1  0.99810676  0.24108550  0.13214111  1
  O  O255  1  0.99159741  0.24187161  0.62582551  1
  O  O256  1  0.99433962  0.74440759  0.12950790  1
  O  O257  1  0.99447687  0.74359600  0.62997977  1
  O  O258  1  0.00218451  0.25145474  0.36864703  1
  O  O259  1  0.00707323  0.25592137  0.87471763  1
  O  O260  1  0.00972126  0.75200727  0.36717086  1
  O  O261  1  0.00605426  0.75459786  0.86925848  1
  O  O262  1  0.50424776  0.25496744  0.37034831  1
  O  O263  1  0.51189391  0.25218585  0.87456200  1
  O  O264  1  0.51278090  0.75758841  0.38039738  1
  O  O265  1  0.50599689  0.75588801  0.87046282  1
  O  O266  1  0.24298965  0.12461802  0.49234242  1
  O  O267  1  0.24542524  0.13461522  0.99476592  1
  O  O268  1  0.23462867  0.62647503  0.50701699  1
  O  O269  1  0.24955133  0.63481086  0.99393317  1
  O  O270  1  0.74647237  0.13210195  0.49135708  1
  O  O271  1  0.74778175  0.13692244  0.99799619  1
  O  O272  1  0.74069048  0.62653728  0.49050999  1
  O  O273  1  0.74399106  0.62790399  0.99341409  1
  O  O274  1  0.25281828  0.36104971  0.00041808  1
  O  O275  1  0.26252594  0.37270194  0.50370220  1
  O  O276  1  0.25933161  0.87132134  0.00647125  1
  O  O277  1  0.25949023  0.87071834  0.50299539  1
  O  O278  1  0.75886184  0.36749211  0.00020756  1
  O  O279  1  0.75466802  0.36815623  0.50402585  1
  O  O280  1  0.75731313  0.87230180  0.01083050  1
  O  O281  1  0.75957097  0.87241270  0.50447947  1
  O  O282  1  0.12778641  0.49733920  0.25009471  1
  O  O283  1  0.12828940  0.49506241  0.74583601  1
  O  O284  1  0.13065827  0.99438879  0.24500501  1
  O  O285  1  0.12420620  0.99313924  0.74279914  1
  O  O286  1  0.61825471  0.49013408  0.24391172  1
  O  O287  1  0.62780798  0.48879413  0.74923273  1
  O  O288  1  0.62481274  0.98892023  0.23821449  1
  O  O289  1  0.62602311  0.99356340  0.74302562  1
  O  O290  1  0.36943688  0.00549953  0.25500324  1
  O  O291  1  0.37386882  0.00613037  0.76034042  1
  O  O292  1  0.37554242  0.50930791  0.26000996  1
  O  O293  1  0.36835616  0.50326781  0.75930081  1
  O  O294  1  0.87938297  -0.00894473  0.26262541  1
  O  O295  1  0.87500481  0.00667466  0.75683394  1
  O  O296  1  0.88184637  0.50722310  0.25855849  1
  O  O297  1  0.87483559  0.50645881  0.75654256  1
  O  O298  1  0.11563464  0.36585902  0.37946343  1
  O  O299  1  0.11985237  0.36927059  0.86988202  1
  O  O300  1  0.12211096  0.86623741  0.36829619  1
  O  O301  1  0.12043252  0.87041585  0.86915029  1
  O  O302  1  0.61943845  0.37094148  0.36973998  1
  O  O303  1  0.62687378  0.36778572  0.86728969  1
  O  O304  1  0.62364789  0.86909186  0.36765081  1
  O  O305  1  0.62174203  0.87105913  0.87105383  1
  O  O306  1  0.38121030  0.13270365  0.13025806  1
  O  O307  1  0.37907208  0.13193573  0.62897711  1
  O  O308  1  0.38341095  0.63409705  0.13234840  1
  O  O309  1  0.38526836  0.63404763  0.62480971  1
  O  O310  1  0.88924226  0.12375898  0.11708891  1
  O  O311  1  0.87841912  0.12737810  0.63068265  1
  O  O312  1  0.87900518  0.62978408  0.12995875  1
  O  O313  1  0.87973159  0.62924854  0.62812550  1
  O  O314  1  0.25864822  0.24600332  0.11747546  1
  O  O315  1  0.26272390  0.25084750  0.62281119  1
  O  O316  1  0.25992822  0.75713107  0.12054870  1
  O  O317  1  0.26427124  0.74908542  0.62492878  1
  O  O318  1  0.75101134  0.25392370  0.11468713  1
  O  O319  1  0.75516289  0.25424913  0.61895679  1
  O  O320  1  0.75690244  0.76056486  0.12331435  1
  O  O321  1  0.75777853  0.75619302  0.62129718  1
  O  O322  1  0.24230134  0.24166502  0.37668095  1
  O  O323  1  0.24616403  0.24449459  0.88333144  1
  O  O324  1  0.23509731  0.75263625  0.37495732  1
  O  O325  1  0.24749880  0.74745390  0.88000830  1
  O  O326  1  0.74492868  0.24175004  0.38058958  1
  O  O327  1  0.74094876  0.24891612  0.88364182  1
  O  O328  1  0.73953283  0.73846314  0.37709796  1
  O  O329  1  0.74358142  0.74402171  0.87608345  1
  O  O330  1  0.00787784  0.12407149  0.00857837  1
  O  O331  1  0.00451043  0.11819264  0.50432774  1
  O  O332  1  -0.00118317  0.61491952  0.00496365  1
  O  O333  1  0.00708145  0.61817847  0.50549500  1
  O  O334  1  0.50209316  0.13278897  0.01526845  1
  O  O335  1  0.50103553  0.11742814  0.50567668  1
  O  O336  1  0.50706716  0.62490561  0.01416011  1
  O  O337  1  0.50908709  0.62631441  0.50943657  1
  O  O338  1  0.48901064  0.37635011  0.49613154  1
  O  O339  1  0.49560956  0.38034618  0.99623011  1
  O  O340  1  0.49469574  0.88068337  0.49141681  1
  O  O341  1  0.49288805  0.87077886  0.99230620  1
  O  O342  1  0.99271138  0.37888342  0.49508931  1
  O  O343  1  0.99151292  0.38050765  0.99522388  1
  O  O344  1  0.98879974  0.87967580  0.49777924  1
  O  O345  1  0.99395243  0.87707208  0.99314707  1
  O  O346  1  0.48844546  0.49289886  0.37893165  1
  O  O347  1  0.48854966  0.50286381  0.87628514  1
  O  O348  1  0.49472796  0.99474096  0.37772202  1
  O  O349  1  0.48908895  0.99569427  0.87107777  1
  O  O350  1  0.99282488  0.49332402  0.38182740  1
  O  O351  1  0.99375899  0.49482748  0.88327854  1
  O  O352  1  0.98965770  0.99799677  0.38059045  1
  O  O353  1  0.98997794  0.99343286  0.87521738  1
  O  O354  1  0.00803740  0.00765730  0.12334263  1
  O  O355  1  0.00482839  0.00519394  0.61747842  1
  O  O356  1  -0.00218491  0.50527183  0.11403756  1
  O  O357  1  0.00474789  0.50415756  0.61890789  1
  O  O358  1  0.50832494  0.01160807  0.13002144  1
  O  O359  1  0.50417190  0.00398417  0.61873609  1
  O  O360  1  0.50964591  0.51135683  0.12552530  1
  O  O361  1  0.50141801  0.51400209  0.62538067  1
  O  O362  1  0.24561644  0.37891166  0.24813151  1
  O  O363  1  0.24124849  0.38267771  0.74961621  1
  O  O364  1  0.24531470  0.88166898  0.24387814  1
  O  O365  1  0.24118615  0.87649251  0.74573196  1
  O  O366  1  0.73540936  0.36798731  0.25070653  1
  O  O367  1  0.74143694  0.37492558  0.74381267  1
  O  O368  1  0.73961059  0.86908964  0.23892402  1
  O  O369  1  0.74377209  0.87626554  0.74191306  1
  O  O370  1  0.25447070  0.11979746  0.25502944  1
  O  O371  1  0.25713831  0.12388397  0.75756581  1
  O  O372  1  0.26643867  0.62422518  0.24571682  1
  O  O373  1  0.25171584  0.61886146  0.75785981  1
  O  O374  1  0.74687385  0.13286810  0.26193197  1
  O  O375  1  0.76310151  0.12232037  0.75114989  1
  O  O376  1  0.75595338  0.62965774  0.26112250  1
  O  O377  1  0.75680631  0.62399588  0.75610678  1
  O  O378  1  0.36996043  0.11985653  0.36960301  1
  O  O379  1  0.37230147  0.11955496  0.87164015  1
  O  O380  1  0.38492198  0.61810654  0.36640698  1
  O  O381  1  0.37021544  0.61941861  0.87412184  1
  O  O382  1  0.86461140  0.11315868  0.37933783  1
  O  O383  1  0.87667417  0.11654638  0.86678959  1
  O  O384  1  0.86704426  0.62050589  0.37113162  1
  O  O385  1  0.87070647  0.62119123  0.86903872  1
  O  O386  1  0.12750620  0.37959278  0.12716567  1
  O  O387  1  0.12480412  0.38082372  0.63015663  1
  O  O388  1  0.13233062  0.88000920  0.12970920  1
  O  O389  1  0.12370175  0.88007393  0.62967260  1
  O  O390  1  0.62407656  0.38421757  0.13490466  1
  O  O391  1  0.62940133  0.37359220  0.63382872  1
  O  O392  1  0.63000761  0.88056341  0.13006633  1
  O  O393  1  0.62846451  0.87826705  0.62965129  1
  O  O394  1  0.11289799  0.25040004  0.25820433  1
  O  O395  1  0.12356086  0.25558757  0.75613384  1
  O  O396  1  0.12154196  0.75260730  0.25587455  1
  O  O397  1  0.11948911  0.75436627  0.75469001  1
  O  O398  1  0.61738048  0.25945250  0.25541807  1
  O  O399  1  0.62624447  0.25807062  0.75911698  1
  O  O400  1  0.62753251  0.75944750  0.26006528  1
  O  O401  1  0.62026176  0.75661679  0.75628866  1
  O  O402  1  0.37861199  0.24459018  0.24377212  1
  O  O403  1  0.37591787  0.24601776  0.74176288  1
  O  O404  1  0.37097128  0.74530609  0.23955362  1
  O  O405  1  0.38307416  0.75009303  0.74105154  1
  O  O406  1  0.88801166  0.25374636  0.24813869  1
  O  O407  1  0.87551802  0.24037029  0.74481228  1
  O  O408  1  0.88057091  0.74325231  0.24491811  1
  O  O409  1  0.88162268  0.74433264  0.74347148  1
  O  O410  1  0.37660493  0.49308346  0.49592223  1
  O  O411  1  0.37556881  0.50076022  0.98938819  1
  O  O412  1  0.38089001  0.99465483  0.49346855  1
  O  O413  1  0.37007422  0.99540209  0.98884987  1
  O  O414  1  0.88010155  0.49349479  0.49337314  1
  O  O415  1  0.88193422  0.49159416  0.99493396  1
  O  O416  1  0.87919321  0.98947337  0.49420732  1
  O  O417  1  0.87684891  0.99372502  0.98907226  1
  O  O418  1  0.12634489  0.00620412  0.00602827  1
  O  O419  1  0.11860723  0.00357549  0.50339424  1
  O  O420  1  0.11061750  0.50035092  -0.00349783  1
  O  O421  1  0.11939177  0.50608833  0.50406691  1
  O  O422  1  0.62857149  0.00173193  0.01403835  1
  O  O423  1  0.61729209  -0.00141131  0.50600762  1
  O  O424  1  0.62347843  0.50726629  0.01087761  1
  O  O425  1  0.62089418  0.51327020  0.50133364  1
  O  O426  1  0.37700694  0.36138076  0.12715820  1
  O  O427  1  0.37620239  0.36815584  0.61902751  1
  O  O428  1  0.37295666  0.87049656  0.12328297  1
  O  O429  1  0.37893178  0.86552360  0.61916336  1
  O  O430  1  0.87343371  0.37365212  0.11319170  1
  O  O431  1  0.86998045  0.36862592  0.61947630  1
  O  O432  1  0.86859694  0.87149470  0.12103386  1
  O  O433  1  0.87111609  0.87044065  0.61603880  1
  O  O434  1  0.12878818  0.12802840  0.37993924  1
  O  O435  1  0.12976806  0.12931268  0.87941219  1
  O  O436  1  0.11665846  0.63382833  0.38626841  1
  O  O437  1  0.13188373  0.63339667  0.87766203  1
  O  O438  1  0.63175567  0.13009607  0.37517644  1
  O  O439  1  0.62691390  0.13482260  0.87583482  1
  O  O440  1  0.62813150  0.62956470  0.37824306  1
  O  O441  1  0.62969366  0.63025954  0.88051819  1
