# generated using pymatgen
data_V93Zn93O256
_symmetry_space_group_name_H-M   'P 1'
_cell_length_a   17.05155347
_cell_length_b   17.05145199
_cell_length_c   17.05397720
_cell_angle_alpha   90.04491667
_cell_angle_beta   89.97232719
_cell_angle_gamma   89.95098674
_symmetry_Int_Tables_number   1
_chemical_formula_structural   V93Zn93O256
_chemical_formula_sum   'V93 Zn93 O256'
_cell_volume   4958.50382520
_cell_formula_units_Z   1
loop_
 _symmetry_equiv_pos_site_id
 _symmetry_equiv_pos_as_xyz
  1  'x, y, z'
loop_
 _atom_site_type_symbol
 _atom_site_label
 _atom_site_symmetry_multiplicity
 _atom_site_fract_x
 _atom_site_fract_y
 _atom_site_fract_z
 _atom_site_occupancy
  V  V0  1  0.37605524  0.74891425  0.12442943  1
  V  V1  1  0.37954943  -0.00465374  0.87461366  1
  V  V2  1  0.87568725  0.37919012  0.49340734  1
  V  V3  1  -0.00043698  0.00033534  0.49956954  1
  V  V4  1  0.87678175  0.12500718  0.24791391  1
  V  V5  1  0.12490657  0.87478595  0.74961205  1
  V  V6  1  0.50065765  0.37452268  0.87542025  1
  V  V7  1  0.62538403  0.62457977  0.50057089  1
  V  V8  1  0.37467900  0.37511291  0.00025021  1
  V  V9  1  0.75051189  -0.00004795  0.75038762  1
  V  V10  1  0.12595392  0.00140545  0.12311554  1
  V  V11  1  0.24922848  0.74856141  0.49907582  1
  V  V12  1  0.12402723  0.50043909  0.62622489  1
  V  V13  1  -0.00435046  0.50117878  0.49275397  1
  V  V14  1  0.37844563  0.87415872  -0.00311136  1
  V  V15  1  0.75054623  -0.00232732  0.24884457  1
  V  V16  1  0.87474399  0.12515223  0.75021458  1
  V  V17  1  0.87529885  0.25124844  0.62442785  1
  V  V18  1  0.74909870  0.87377751  0.62518296  1
  V  V19  1  -0.00067408  0.37761452  0.87732094  1
  V  V20  1  0.75847885  0.62015784  0.37365712  1
  V  V21  1  0.37116176  0.50633127  0.87474330  1
  V  V22  1  0.87546827  0.87468090  0.00127455  1
  V  V23  1  0.37589585  -0.00059985  0.37446934  1
  V  V24  1  0.10992032  0.50456893  0.12772560  1
  V  V25  1  0.62140878  0.87422484  0.75715780  1
  V  V26  1  0.75714610  0.49752288  0.25632430  1
  V  V27  1  0.62608455  0.62442673  0.00001876  1
  V  V28  1  0.12480158  0.12608814  0.49957035  1
  V  V29  1  0.12410199  0.37708819  0.75146036  1
  V  V30  1  0.25056779  0.12604377  0.37447448  1
  V  V31  1  0.37587142  0.74963448  0.62548737  1
  V  V32  1  0.24914885  0.25146476  -0.00020741  1
  V  V33  1  0.62632686  -0.00166807  0.12517132  1
  V  V34  1  0.49943430  0.62471788  0.12929478  1
  V  V35  1  0.12615966  0.00092318  0.62607489  1
  V  V36  1  0.87865279  0.50051106  0.87775139  1
  V  V37  1  0.74909395  0.37592473  0.62539245  1
  V  V38  1  0.49957964  0.62560326  0.62668436  1
  V  V39  1  0.49963086  0.37572342  0.37518980  1
  V  V40  1  0.12640295  0.62682091  0.49917744  1
  V  V41  1  0.50050887  -0.00499462  -0.00189687  1
  V  V42  1  0.49972633  0.25062332  0.75101564  1
  V  V43  1  0.25012144  0.37549369  0.62628408  1
  V  V44  1  0.36578791  0.50321118  0.36907240  1
  V  V45  1  0.00020146  0.75078006  0.75041127  1
  V  V46  1  0.62597076  0.12373519  -0.00038867  1
  V  V47  1  0.00078405  0.12665067  0.62509637  1
  V  V48  1  0.12387649  0.87445299  0.25134278  1
  V  V49  1  0.10989473  0.62032513  0.00008905  1
  V  V50  1  0.12550094  0.25157845  0.87616239  1
  V  V51  1  0.37365429  0.37578611  0.50083109  1
  V  V52  1  0.49961997  0.12509416  0.62429003  1
  V  V53  1  0.49959270  0.12424422  0.12492792  1
  V  V54  1  -0.00237131  0.62520349  0.62444733  1
  V  V55  1  0.75024955  0.37134436  0.12472378  1
  V  V56  1  0.25172609  0.87407686  0.12321679  1
  V  V57  1  0.62573221  0.12473021  0.50101561  1
  V  V58  1  0.87565964  0.87580305  0.49944632  1
  V  V59  1  0.74927620  0.62457568  0.87587308  1
  V  V60  1  0.25062957  -0.00055590  0.24863582  1
  V  V61  1  0.24996145  0.87617192  0.62468710  1
  V  V62  1  0.37392575  0.25001985  0.12485270  1
  V  V63  1  0.00151139  0.00080330  -0.00058721  1
  V  V64  1  0.62524895  0.74728105  0.37353825  1
  V  V65  1  0.24970686  0.50782261  0.75466839  1
  V  V66  1  0.74999563  0.74953021  0.00287053  1
  V  V67  1  0.50003679  0.49938557  -0.00032129  1
  V  V68  1  0.87325106  0.62491175  0.75038442  1
  V  V69  1  0.00009844  0.25159758  0.75031600  1
  V  V70  1  0.62438001  0.24933215  0.87518862  1
  V  V71  1  0.62399131  0.49946453  0.62706627  1
  V  V72  1  0.25061958  0.74115313  -0.00314190  1
  V  V73  1  0.37391550  0.25089705  0.62545444  1
  V  V74  1  0.62446299  0.37236249  0.25162223  1
  V  V75  1  0.62489999  0.49782747  0.12574629  1
  V  V76  1  0.24983697  0.38636744  0.12968213  1
  V  V77  1  0.12940653  0.74603849  0.87448392  1
  V  V78  1  0.37479929  0.87458471  0.49911603  1
  V  V79  1  0.12500629  0.25289905  0.37401787  1
  V  V80  1  0.50105935  0.87350573  0.37427756  1
  V  V81  1  -0.00333227  0.74564651  0.24382340  1
  V  V82  1  0.75000962  0.24947113  0.49983132  1
  V  V83  1  0.87368783  0.75016116  0.62569518  1
  V  V84  1  0.00229167  0.25152091  0.24910811  1
  V  V85  1  0.75021317  0.12515908  0.87440235  1
  V  V86  1  0.74953437  0.12471125  0.37548191  1
  V  V87  1  0.49940309  0.75337855  0.75736130  1
  V  V88  1  0.62396593  -0.00046452  0.62494616  1
  V  V89  1  0.25057571  0.12624750  0.87586676  1
  V  V90  1  0.37595445  0.12497234  0.24900656  1
  V  V91  1  0.37440510  0.12472816  0.75059344  1
  V  V92  1  0.87847765  0.37723140  -0.00008969  1
  Zn  Zn93  1  0.00087566  0.87590584  0.87442706  1
  Zn  Zn94  1  0.62677529  0.87179393  0.24903636  1
  Zn  Zn95  1  0.74935781  0.49914952  0.75108986  1
  Zn  Zn96  1  -0.00219990  0.38079425  0.37100530  1
  Zn  Zn97  1  0.88584220  0.73491784  0.11678100  1
  Zn  Zn98  1  0.49993847  0.00097105  0.49980363  1
  Zn  Zn99  1  0.88381187  0.61370554  0.24661647  1
  Zn  Zn100  1  0.24996059  -0.00011782  0.75188032  1
  Zn  Zn101  1  0.24547283  0.62453073  0.36480201  1
  Zn  Zn102  1  0.36222526  0.62157840  0.24268577  1
  Zn  Zn103  1  0.50041464  0.24888881  0.24995266  1
  Zn  Zn104  1  0.87723072  0.00041689  0.87443217  1
  Zn  Zn105  1  0.49827854  0.74844900  0.25014501  1
  Zn  Zn106  1  0.75117081  0.87104170  0.12735650  1
  Zn  Zn107  1  0.49718450  0.50123846  0.50100021  1
  Zn  Zn108  1  0.12573964  0.75086778  0.37341054  1
  Zn  Zn109  1  0.24889283  0.25061808  0.50105544  1
  Zn  Zn110  1  0.62280445  0.24896275  0.37574737  1
  Zn  Zn111  1  0.12409980  0.12665150  0.00020080  1
  Zn  Zn112  1  0.75111037  0.24826890  -0.00061416  1
  Zn  Zn113  1  0.87894923  0.25051801  0.12183874  1
  Zn  Zn114  1  0.00036821  0.87589028  0.37433067  1
  Zn  Zn115  1  0.00289697  0.12695468  0.12338546  1
  Zn  Zn116  1  0.37189869  0.62910394  0.75328331  1
  Zn  Zn117  1  0.87705499  -0.00109478  0.37351801  1
  Zn  Zn118  1  0.62061119  0.75209134  0.87836732  1
  Zn  Zn119  1  0.62609711  0.37494331  0.75148753  1
  Zn  Zn120  1  0.12876248  0.38553728  0.25354322  1
  Zn  Zn121  1  0.75206644  0.74850402  0.49848379  1
  Zn  Zn122  1  0.18901148  0.18869972  0.18567324  1
  Zn  Zn123  1  0.18845412  0.18820524  0.68982646  1
  Zn  Zn124  1  0.18563003  0.68616064  0.18404609  1
  Zn  Zn125  1  0.18715415  0.68849376  0.68458028  1
  Zn  Zn126  1  0.68564875  0.18665237  0.18927644  1
  Zn  Zn127  1  0.68700198  0.18837848  0.68762321  1
  Zn  Zn128  1  0.68976657  0.68342334  0.18843542  1
  Zn  Zn129  1  0.68709466  0.68848643  0.68890782  1
  Zn  Zn130  1  0.31216868  0.31363729  0.31013026  1
  Zn  Zn131  1  0.31261233  0.31613197  0.81253788  1
  Zn  Zn132  1  0.31237210  0.80700187  0.31097136  1
  Zn  Zn133  1  0.31098730  0.81355613  0.81192666  1
  Zn  Zn134  1  0.81219200  0.30943754  0.31308629  1
  Zn  Zn135  1  0.81029231  0.31265522  0.81171743  1
  Zn  Zn136  1  0.81357846  0.81032661  0.31451964  1
  Zn  Zn137  1  0.81108101  0.81340184  0.81574193  1
  Zn  Zn138  1  0.18623455  0.43716975  0.44029958  1
  Zn  Zn139  1  0.18752365  0.43937161  0.94035778  1
  Zn  Zn140  1  0.18878270  0.93903222  0.43763626  1
  Zn  Zn141  1  0.19031923  0.93505763  0.93585999  1
  Zn  Zn142  1  0.68596082  0.43754193  0.43990379  1
  Zn  Zn143  1  0.68963565  0.43731723  0.93779280  1
  Zn  Zn144  1  0.68845293  0.93808600  0.43708390  1
  Zn  Zn145  1  0.69025113  0.93862453  0.93765957  1
  Zn  Zn146  1  0.31240968  0.06275162  0.06022019  1
  Zn  Zn147  1  0.31204233  0.06265099  0.56099686  1
  Zn  Zn148  1  0.31071606  0.56274071  0.06065223  1
  Zn  Zn149  1  0.31329571  0.56149764  0.56246964  1
  Zn  Zn150  1  0.81365904  0.06231902  0.06307023  1
  Zn  Zn151  1  0.81206053  0.06152883  0.56433265  1
  Zn  Zn152  1  0.81563382  0.56045672  0.06511293  1
  Zn  Zn153  1  0.81025269  0.56213796  0.56138879  1
  Zn  Zn154  1  0.43725047  0.43689111  0.18901199  1
  Zn  Zn155  1  0.43736927  0.43775055  0.68999460  1
  Zn  Zn156  1  0.43895774  0.93613425  0.18648154  1
  Zn  Zn157  1  0.43847103  0.93722974  0.68804175  1
  Zn  Zn158  1  0.93817665  0.43499223  0.18631916  1
  Zn  Zn159  1  0.93598665  0.43901746  0.68624427  1
  Zn  Zn160  1  0.93802517  0.93455856  0.18257778  1
  Zn  Zn161  1  0.93850601  0.93812053  0.68635112  1
  Zn  Zn162  1  0.06210549  0.06241884  0.31351426  1
  Zn  Zn163  1  0.06349810  0.06338598  0.81375370  1
  Zn  Zn164  1  0.06550508  0.56544030  0.31204274  1
  Zn  Zn165  1  0.06110385  0.56483119  0.81456102  1
  Zn  Zn166  1  0.56355010  0.06175445  0.31282847  1
  Zn  Zn167  1  0.56205362  0.06271517  0.81199842  1
  Zn  Zn168  1  0.56450154  0.55775105  0.31325058  1
  Zn  Zn169  1  0.56069433  0.56461715  0.81221654  1
  Zn  Zn170  1  0.43711753  0.18943065  0.43896555  1
  Zn  Zn171  1  0.43761784  0.18496534  0.93861405  1
  Zn  Zn172  1  0.43836439  0.68602657  0.44003355  1
  Zn  Zn173  1  0.43808866  0.68587277  0.94006613  1
  Zn  Zn174  1  0.93703707  0.18841846  0.43547520  1
  Zn  Zn175  1  0.93661807  0.18923832  0.93745103  1
  Zn  Zn176  1  0.94112843  0.69263319  0.43242712  1
  Zn  Zn177  1  0.93754467  0.68963026  0.93365273  1
  Zn  Zn178  1  0.06400061  0.31672578  0.06317996  1
  Zn  Zn179  1  0.06180239  0.31479509  0.56177158  1
  Zn  Zn180  1  0.06456512  0.81352585  0.06197633  1
  Zn  Zn181  1  0.06157667  0.81299630  0.56404493  1
  Zn  Zn182  1  0.56226881  0.30988666  0.06182041  1
  Zn  Zn183  1  0.56132324  0.31266377  0.56156254  1
  Zn  Zn184  1  0.56386208  0.81356983  0.06326501  1
  Zn  Zn185  1  0.56284431  0.81116698  0.56323689  1
  O  O186  1  0.12490480  0.11640115  0.12161228  1
  O  O187  1  0.12017548  0.12216805  0.62028713  1
  O  O188  1  0.12683455  0.61410210  0.11133540  1
  O  O189  1  0.11767205  0.62076043  0.61707144  1
  O  O190  1  0.62025375  0.11881334  0.11949335  1
  O  O191  1  0.61977098  0.11942229  0.62084588  1
  O  O192  1  0.61825675  0.61812494  0.11987930  1
  O  O193  1  0.62114333  0.61831111  0.62101198  1
  O  O194  1  0.37935823  0.38390481  0.37851713  1
  O  O195  1  0.38115128  0.38352493  0.88096638  1
  O  O196  1  0.38224976  0.87813254  0.37879221  1
  O  O197  1  0.36808746  0.88742139  0.88066255  1
  O  O198  1  0.87677231  0.36910219  0.39014800  1
  O  O199  1  0.87785252  0.38151603  0.88068025  1
  O  O200  1  0.87522155  0.87646730  0.38906507  1
  O  O201  1  0.87778295  0.87733967  0.88745330  1
  O  O202  1  0.25604901  0.00591157  0.36843861  1
  O  O203  1  0.26062540  0.00698108  0.87513247  1
  O  O204  1  0.26303601  0.49993542  0.37974833  1
  O  O205  1  0.25940139  0.49222490  0.86578146  1
  O  O206  1  0.75256733  0.00577618  0.36484424  1
  O  O207  1  0.75236682  0.00762540  0.86732183  1
  O  O208  1  0.74199750  0.50801131  0.36705437  1
  O  O209  1  0.76009072  0.50556548  0.87324147  1
  O  O210  1  0.24373291  0.49052759  0.11745848  1
  O  O211  1  0.24408566  0.49475339  0.63396614  1
  O  O212  1  0.24664368  0.99407143  0.12925838  1
  O  O213  1  0.24363030  0.99423735  0.62613024  1
  O  O214  1  0.74430050  0.48744915  0.13369498  1
  O  O215  1  0.73987813  0.49531111  0.62592152  1
  O  O216  1  0.74535467  0.99953435  0.13448964  1
  O  O217  1  0.74366861  0.99438856  0.63178535  1
  O  O218  1  0.00333670  0.36505059  0.25300737  1
  O  O219  1  0.00453756  0.37095532  0.75519095  1
  O  O220  1  0.01023252  0.87078171  0.24957029  1
  O  O221  1  0.00673819  0.86822714  0.74953497  1
  O  O222  1  0.50604689  0.37435691  0.25831908  1
  O  O223  1  0.50104594  0.36784008  0.75763367  1
  O  O224  1  0.50238442  0.87312409  0.26312369  1
  O  O225  1  0.51013712  0.86507708  0.74381239  1
  O  O226  1  0.49371231  0.12426502  0.24330655  1
  O  O227  1  0.49387658  0.13089410  0.74400913  1
  O  O228  1  0.50043520  0.62096352  0.23570536  1
  O  O229  1  0.49797806  0.63552824  0.74349939  1
  O  O230  1  0.99230700  0.13219665  0.24953755  1
  O  O231  1  0.99558681  0.13190313  0.74471991  1
  O  O232  1  1.00013078  0.64205537  0.25736695  1
  O  O233  1  0.99394808  0.63084122  0.74406952  1
  O  O234  1  0.37001419  0.25593909  0.00489529  1
  O  O235  1  0.37128569  0.25702709  0.50747988  1
  O  O236  1  0.36849452  0.75360702  0.00271900  1
  O  O237  1  0.36977808  0.75524389  0.50570702  1
  O  O238  1  0.87073738  0.26122729  0.00158437  1
  O  O239  1  0.87121342  0.25744410  0.50598849  1
  O  O240  1  0.86809181  0.75620434  -0.00107845  1
  O  O241  1  0.87607710  0.75961556  0.50654590  1
  O  O242  1  0.12408504  0.24561656  0.49005085  1
  O  O243  1  0.13063197  0.25142509  0.99305502  1
  O  O244  1  0.12886692  0.74113429  0.50207076  1
  O  O245  1  0.13099092  0.74196343  0.99464017  1
  O  O246  1  0.63252948  0.24317212  0.50018735  1
  O  O247  1  0.62654588  0.24157755  0.99335163  1
  O  O248  1  0.62720458  0.74418240  0.48959382  1
  O  O249  1  0.63245713  0.74475614  0.99765069  1
  O  O250  1  0.49203605  0.24257303  0.12506688  1
  O  O251  1  0.49356086  0.24514917  0.63077623  1
  O  O252  1  0.49603432  0.73937390  0.12393344  1
  O  O253  1  0.49511878  0.74544036  0.63364085  1
  O  O254  1  1.00187758  0.24929594  0.13674423  1
  O  O255  1  0.99584921  0.24618294  0.63064064  1
  O  O256  1  1.00335550  0.75404143  0.13925286  1
  O  O257  1  0.99380617  0.74408764  0.63095281  1
  O  O258  1  0.00982711  0.25026333  0.36673999  1
  O  O259  1  0.00521664  0.25703181  0.86886016  1
  O  O260  1  0.00638118  0.75792622  0.36285007  1
  O  O261  1  0.01137298  0.75222062  0.86811650  1
  O  O262  1  0.49842033  0.26380957  0.37294919  1
  O  O263  1  0.50406342  0.25428024  0.87115604  1
  O  O264  1  0.50758003  0.75572485  0.37438441  1
  O  O265  1  0.49991308  0.74408156  0.86185885  1
  O  O266  1  0.24291786  0.12754004  0.49273391  1
  O  O267  1  0.24920637  0.13350053  0.99326778  1
  O  O268  1  0.23868737  0.62963369  0.50340060  1
  O  O269  1  0.24368306  0.63846973  1.00258427  1
  O  O270  1  0.74634342  0.12944468  0.49613634  1
  O  O271  1  0.74437361  0.12518552  0.99384807  1
  O  O272  1  0.74427305  0.62511836  0.48990634  1
  O  O273  1  0.74551064  0.63095484  0.99582987  1
  O  O274  1  0.25595707  0.37044984  0.00732142  1
  O  O275  1  0.25482280  0.37357793  0.50922778  1
  O  O276  1  0.25632328  0.86508497  0.00490737  1
  O  O277  1  0.25482970  0.86947271  0.50519923  1
  O  O278  1  0.75741296  0.37349312  0.00956755  1
  O  O279  1  0.75752774  0.37083056  0.50507978  1
  O  O280  1  0.75759596  0.86669751  -0.00020168  1
  O  O281  1  0.75953085  0.87424039  0.50616749  1
  O  O282  1  0.11970162  0.50339661  0.23268397  1
  O  O283  1  0.13018387  0.49696921  0.74726889  1
  O  O284  1  0.13063294  0.99345755  0.24431762  1
  O  O285  1  0.12598936  0.99403407  0.74382626  1
  O  O286  1  0.63379550  0.49127871  0.24429928  1
  O  O287  1  0.62568847  0.49930080  0.73843088  1
  O  O288  1  0.63659499  1.00047231  0.24486294  1
  O  O289  1  0.62889665  0.99272126  0.74497558  1
  O  O290  1  0.36950985  0.00434135  0.25440784  1
  O  O291  1  0.37487946  0.00518499  0.75850713  1
  O  O292  1  0.37813338  0.50042973  0.26560360  1
  O  O293  1  0.36641053  0.50098885  0.75806973  1
  O  O294  1  0.86835121  0.00748631  0.24822561  1
  O  O295  1  0.86932707  0.00669864  0.74972099  1
  O  O296  1  0.86124710  0.49391547  0.25017828  1
  O  O297  1  0.87267253  0.50650561  0.75847572  1
  O  O298  1  0.12376089  0.36580085  0.37295043  1
  O  O299  1  0.11911279  0.37232043  0.87114060  1
  O  O300  1  0.12712763  0.87635463  0.36129101  1
  O  O301  1  0.12434496  0.86388095  0.86895935  1
  O  O302  1  0.61506799  0.37505444  0.37166469  1
  O  O303  1  0.61850646  0.36908629  0.87547109  1
  O  O304  1  0.61836446  0.86542704  0.37568894  1
  O  O305  1  0.63053262  0.87419292  0.86061688  1
  O  O306  1  0.37944103  0.12925983  0.12936974  1
  O  O307  1  0.37917819  0.13023629  0.62997795  1
  O  O308  1  0.38497914  0.62882884  0.12123642  1
  O  O309  1  0.38111278  0.63201674  0.62646603  1
  O  O310  1  0.87654360  0.12916941  0.13705692  1
  O  O311  1  0.88092450  0.13160341  0.63005835  1
  O  O312  1  0.86817535  0.62594638  0.13547669  1
  O  O313  1  0.87825588  0.63013265  0.62977062  1
  O  O314  1  0.25483422  0.25848066  0.11798638  1
  O  O315  1  0.25591637  0.25759344  0.62616443  1
  O  O316  1  0.25537842  0.75549608  0.11457405  1
  O  O317  1  0.25572371  0.75630798  0.61942465  1
  O  O318  1  0.75139855  0.26278865  0.12689183  1
  O  O319  1  0.75574681  0.25511747  0.61935508  1
  O  O320  1  0.74836964  0.74956323  0.11120774  1
  O  O321  1  0.75612676  0.75540645  0.62246942  1
  O  O322  1  0.24016321  0.24517606  0.37445358  1
  O  O323  1  0.24542190  0.24794113  0.87978704  1
  O  O324  1  0.24709733  0.74692970  0.38529702  1
  O  O325  1  0.23941522  0.75408156  0.88299274  1
  O  O326  1  0.74800059  0.24256852  0.38258065  1
  O  O327  1  0.74232312  0.24287840  0.87475847  1
  O  O328  1  0.74073433  0.74022899  0.37463804  1
  O  O329  1  0.74875895  0.74318412  0.88716290  1
  O  O330  1  0.00039522  0.11467812  0.00167822  1
  O  O331  1  0.00461110  0.12138553  0.50571030  1
  O  O332  1  0.01170690  0.63197956  0.00136222  1
  O  O333  1  0.00525511  0.62007688  0.50420122  1
  O  O334  1  0.50582107  0.11683019  0.00604433  1
  O  O335  1  0.50639514  0.12475020  0.50664751  1
  O  O336  1  0.50585537  0.61895159  0.00911434  1
  O  O337  1  0.50778439  0.62385210  0.50900974  1
  O  O338  1  0.49280759  0.37620492  0.49135948  1
  O  O339  1  0.49433665  0.38059176  0.99605463  1
  O  O340  1  0.49449416  0.87453058  0.48937926  1
  O  O341  1  0.49154690  0.88202382  1.00500342  1
  O  O342  1  0.99245735  0.38453797  0.49994487  1
  O  O343  1  0.98669174  0.36980227  0.99354330  1
  O  O344  1  0.99086860  0.88129209  0.50247486  1
  O  O345  1  0.99340306  0.88263444  0.99948136  1
  O  O346  1  0.49213475  0.48927564  0.37762404  1
  O  O347  1  0.49251211  0.49471821  0.88002185  1
  O  O348  1  0.49509372  0.99005224  0.37638111  1
  O  O349  1  0.48731933  1.00699221  0.88153414  1
  O  O350  1  1.00589291  0.50032540  0.38897066  1
  O  O351  1  0.98664451  0.49437223  0.86977086  1
  O  O352  1  0.99729231  0.99711227  0.38348156  1
  O  O353  1  0.99977098  0.99784228  0.88604236  1
  O  O354  1  0.00695025  0.00082555  0.11469990  1
  O  O355  1  0.00652807  0.00774296  0.61988544  1
  O  O356  1  0.01145751  0.49526143  0.12062348  1
  O  O357  1  0.00499713  0.50626239  0.61719986  1
  O  O358  1  0.50586206  0.00512503  0.11933079  1
  O  O359  1  0.50574640  0.00697088  0.62337452  1
  O  O360  1  0.50398084  0.50520372  0.11910882  1
  O  O361  1  0.50788101  0.50568633  0.62576287  1
  O  O362  1  0.24519713  0.36933483  0.23464735  1
  O  O363  1  0.24334202  0.38498688  0.74559626  1
  O  O364  1  0.24365239  0.87898162  0.24381751  1
  O  O365  1  0.24256714  0.87641170  0.74187293  1
  O  O366  1  0.74567003  0.37883626  0.24537126  1
  O  O367  1  0.74685500  0.37745737  0.74091078  1
  O  O368  1  0.75147568  0.88582121  0.24977981  1
  O  O369  1  0.74274135  0.87900837  0.74452914  1
  O  O370  1  0.25616832  0.11908276  0.25458726  1
  O  O371  1  0.25717605  0.12382663  0.75729231  1
  O  O372  1  0.25014861  0.62871175  0.25256527  1
  O  O373  1  0.24974387  0.61161455  0.74515741  1
  O  O374  1  0.75787033  0.11812610  0.25399841  1
  O  O375  1  0.75526343  0.11969049  0.75348263  1
  O  O376  1  0.74696827  0.61212237  0.25909054  1
  O  O377  1  0.75652122  0.62546653  0.75781989  1
  O  O378  1  0.37091390  0.12011864  0.36983724  1
  O  O379  1  0.36988880  0.11749135  0.87028703  1
  O  O380  1  0.37683750  0.60945999  0.37738759  1
  O  O381  1  0.37890811  0.60986884  0.87498704  1
  O  O382  1  0.86947317  0.12368462  0.36373566  1
  O  O383  1  0.86886975  0.12503005  0.86708846  1
  O  O384  1  0.86154749  0.63210988  0.36969393  1
  O  O385  1  0.87106563  0.61743540  0.87144316  1
  O  O386  1  0.13149164  0.39157544  0.12085677  1
  O  O387  1  0.12857612  0.38117709  0.63165533  1
  O  O388  1  0.13205870  0.88100535  0.13277446  1
  O  O389  1  0.13020272  0.88076783  0.62951954  1
  O  O390  1  0.63188974  0.37806626  0.12928143  1
  O  O391  1  0.62921837  0.38403072  0.62467638  1
  O  O392  1  0.62878235  0.88249099  0.12957139  1
  O  O393  1  0.62994792  0.87933520  0.63279118  1
  O  O394  1  0.11724208  0.24803874  0.25887687  1
  O  O395  1  0.11956108  0.25768464  0.75592189  1
  O  O396  1  0.11659345  0.76011785  0.24806744  1
  O  O397  1  0.12139052  0.75261592  0.75636501  1
  O  O398  1  0.62156944  0.25683816  0.25453860  1
  O  O399  1  0.61685460  0.25025183  0.75670214  1
  O  O400  1  0.62297714  0.74903894  0.26175214  1
  O  O401  1  0.61707833  0.75778953  0.75182287  1
  O  O402  1  0.37619824  0.24260826  0.24261647  1
  O  O403  1  0.38001008  0.24528147  0.74575368  1
  O  O404  1  0.37957714  0.74555181  0.23980985  1
  O  O405  1  0.38186782  0.75040367  0.74514899  1
  O  O406  1  0.88521090  0.24263028  0.25021907  1
  O  O407  1  0.88090801  0.24588958  0.74407956  1
  O  O408  1  0.89146071  0.75727127  0.24783516  1
  O  O409  1  0.87987464  0.74541324  0.74628190  1
  O  O410  1  0.37690410  0.49330998  0.49095845  1
  O  O411  1  0.37940256  0.49491096  0.99250960  1
  O  O412  1  0.37622146  0.99291293  0.49224671  1
  O  O413  1  0.37993916  0.99472018  0.99294457  1
  O  O414  1  0.88479007  0.49140769  0.50687066  1
  O  O415  1  0.86818506  0.48906283  0.98885518  1
  O  O416  1  0.88045818  0.99095162  0.50208981  1
  O  O417  1  0.88384205  0.99247198  1.00013683  1
  O  O418  1  0.11730810  -0.00205353  0.00436252  1
  O  O419  1  0.12000850  0.00620437  0.50585671  1
  O  O420  1  0.12605087  0.51516934  0.00308011  1
  O  O421  1  0.11717578  0.50752932  0.50686685  1
  O  O422  1  0.62085279  0.00407574  0.00465546  1
  O  O423  1  0.62436137  0.00601309  0.50731899  1
  O  O424  1  0.62001492  0.50408116  0.00623770  1
  O  O425  1  0.62235021  0.50529574  0.51208263  1
  O  O426  1  0.36887891  0.37186117  0.11999317  1
  O  O427  1  0.37038230  0.37074649  0.62131506  1
  O  O428  1  0.37065615  0.86890935  0.11817549  1
  O  O429  1  0.37040553  0.87010253  0.61920547  1
  O  O430  1  0.86685805  0.37539102  0.11648528  1
  O  O431  1  0.87020406  0.37013120  0.61611225  1
  O  O432  1  0.87270827  0.86938160  0.11069285  1
  O  O433  1  0.86969123  0.87016683  0.61831803  1
  O  O434  1  0.13040596  0.13286713  0.37943742  1
  O  O435  1  0.13202247  0.13390208  0.87591863  1
  O  O436  1  0.12615156  0.62581632  0.38994148  1
  O  O437  1  0.12065322  0.63446933  0.88720520  1
  O  O438  1  0.63095487  0.12566221  0.38254792  1
  O  O439  1  0.62996815  0.12900176  0.88002614  1
  O  O440  1  0.62944343  0.63082920  0.37999013  1
  O  O441  1  0.63087709  0.62463989  0.88292999  1
