# generated using pymatgen
data_V93Zn93O256
_symmetry_space_group_name_H-M   'P 1'
_cell_length_a   17.05390426
_cell_length_b   17.05664107
_cell_length_c   17.05488609
_cell_angle_alpha   90.07287234
_cell_angle_beta   90.02354691
_cell_angle_gamma   90.05077397
_symmetry_Int_Tables_number   1
_chemical_formula_structural   V93Zn93O256
_chemical_formula_sum   'V93 Zn93 O256'
_cell_volume   4960.95851490
_cell_formula_units_Z   1
loop_
 _symmetry_equiv_pos_site_id
 _symmetry_equiv_pos_as_xyz
  1  'x, y, z'
loop_
 _atom_site_type_symbol
 _atom_site_label
 _atom_site_symmetry_multiplicity
 _atom_site_fract_x
 _atom_site_fract_y
 _atom_site_fract_z
 _atom_site_occupancy
  V  V0  1  -0.00007382  0.87508041  0.37413492  1
  V  V1  1  0.63448330  0.13174198  0.49355764  1
  V  V2  1  -0.00046335  0.37764559  0.87944701  1
  V  V3  1  0.00081907  0.87468467  0.87311602  1
  V  V4  1  0.37412269  0.87363235  0.00045882  1
  V  V5  1  0.75050657  0.37081575  0.61933720  1
  V  V6  1  0.11804067  0.49947707  0.12142996  1
  V  V7  1  0.87763349  0.50088927  0.87962967  1
  V  V8  1  0.87532967  0.12597601  0.75033653  1
  V  V9  1  0.87613905  0.37776829  0.00039289  1
  V  V10  1  0.25055233  0.37475298  0.12577150  1
  V  V11  1  0.62490029  0.37552552  0.74894030  1
  V  V12  1  0.12544575  0.24910531  0.87630253  1
  V  V13  1  0.12567832  0.74894822  0.37428721  1
  V  V14  1  0.87342176  0.87402105  -0.00146152  1
  V  V15  1  0.62707293  0.87644962  0.24790785  1
  V  V16  1  0.49991876  0.87381562  0.87378727  1
  V  V17  1  0.87356293  0.75117485  0.62377328  1
  V  V18  1  0.50151005  0.12525311  0.62381825  1
  V  V19  1  0.49862570  0.49983987  -0.00062514  1
  V  V20  1  0.49792338  0.62475709  0.12425322  1
  V  V21  1  0.49922026  0.74923502  0.24866487  1
  V  V22  1  0.24700632  0.37987496  0.63091415  1
  V  V23  1  0.37880646  0.37646654  0.50084744  1
  V  V24  1  0.50093877  0.00056866  0.00067622  1
  V  V25  1  0.87592090  0.50204995  0.37500172  1
  V  V26  1  0.61749619  0.62147981  0.49941761  1
  V  V27  1  0.74849772  0.75081723  -0.00081427  1
  V  V28  1  0.24959313  0.49981352  0.25137910  1
  V  V29  1  0.36921418  0.49803933  0.87050665  1
  V  V30  1  0.62381186  0.49961340  0.12350639  1
  V  V31  1  0.24934780  0.74868486  0.00094662  1
  V  V32  1  0.12773708  0.12573596  0.50065233  1
  V  V33  1  0.24990226  0.62516599  0.37575595  1
  V  V34  1  0.49931285  0.87432510  0.37489689  1
  V  V35  1  0.50145724  0.37833049  0.37756952  1
  V  V36  1  0.00148635  0.12565063  0.62621257  1
  V  V37  1  0.87460440  0.25153260  0.62264547  1
  V  V38  1  0.87424565  0.37265837  0.50060848  1
  V  V39  1  0.75004720  0.87577620  0.62336863  1
  V  V40  1  0.37711598  0.12449481  0.25023236  1
  V  V41  1  -0.00459813  0.12504843  0.12856637  1
  V  V42  1  0.62447839  0.37435305  0.24979972  1
  V  V43  1  0.37398217  0.62350627  0.74823885  1
  V  V44  1  0.37707623  0.50062368  0.37841447  1
  V  V45  1  0.62538558  0.74880586  0.37512113  1
  V  V46  1  0.87320060  0.62427234  0.74933025  1
  V  V47  1  0.75614435  0.00807311  0.25485225  1
  V  V48  1  0.12575090  -0.00165060  0.12631917  1
  V  V49  1  0.62367557  0.62585413  -0.00200011  1
  V  V50  1  0.37562992  0.24901090  0.12614421  1
  V  V51  1  0.62606474  -0.00003460  0.62379160  1
  V  V52  1  0.62362508  0.87433986  0.74845881  1
  V  V53  1  0.12273281  0.74979880  0.87518887  1
  V  V54  1  0.24992913  -0.00828253  0.74718677  1
  V  V55  1  0.13009312  -0.00782672  0.62635855  1
  V  V56  1  0.37569043  0.12336091  0.74957789  1
  V  V57  1  0.25114856  0.12530736  0.37586357  1
  V  V58  1  0.37108587  0.87488147  0.50631094  1
  V  V59  1  0.62596731  0.25050978  0.87504666  1
  V  V60  1  0.62379730  0.74966038  0.87342769  1
  V  V61  1  0.37436911  0.37386918  0.00094598  1
  V  V62  1  0.25055611  0.75358435  0.50627419  1
  V  V63  1  0.37572029  0.00016679  0.37488166  1
  V  V64  1  0.87597325  0.24995245  0.12688004  1
  V  V65  1  0.50060571  0.24859780  0.75072921  1
  V  V66  1  0.00085112  0.25110376  0.75164425  1
  V  V67  1  0.87529443  0.00132825  0.87464390  1
  V  V68  1  0.75059103  0.25018896  0.00043037  1
  V  V69  1  0.74951788  0.37607478  0.12460669  1
  V  V70  1  0.00245560  0.37586646  0.37606692  1
  V  V71  1  0.87424168  0.74966023  0.12381949  1
  V  V72  1  0.00305372  0.50110842  0.50295204  1
  V  V73  1  -0.00106909  0.62473544  0.62441764  1
  V  V74  1  -0.00139051  -0.00159460  0.50024011  1
  V  V75  1  0.62437495  0.12433549  0.00068462  1
  V  V76  1  0.37415420  -0.00105576  0.87528136  1
  V  V77  1  -0.00369149  0.24758532  0.25191914  1
  V  V78  1  0.74972409  0.62565077  0.37512264  1
  V  V79  1  0.49961969  0.37448618  0.87500683  1
  V  V80  1  0.11669888  0.62019759  0.00000549  1
  V  V81  1  0.24933608  0.12507150  0.87473068  1
  V  V82  1  0.12532788  0.37478836  0.25083078  1
  V  V83  1  0.37377880  0.74862680  0.12471925  1
  V  V84  1  -0.00087774  0.00067852  0.00052518  1
  V  V85  1  0.50018846  0.00020298  0.49956682  1
  V  V86  1  0.87446742  0.62585516  0.24995447  1
  V  V87  1  -0.00036685  0.74923106  0.24887866  1
  V  V88  1  0.24664697  0.61952213  0.86985440  1
  V  V89  1  0.75154568  0.12568638  0.87480395  1
  V  V90  1  0.37505497  0.24970490  0.62474533  1
  V  V91  1  0.61728348  0.50061171  0.62084788  1
  V  V92  1  0.74993032  0.49983376  0.74964871  1
  Zn  Zn93  1  -0.00379828  0.62142168  0.12220664  1
  Zn  Zn94  1  0.75032974  0.87815698  0.12463960  1
  Zn  Zn95  1  0.74883526  0.62474168  0.87397293  1
  Zn  Zn96  1  0.50174173  0.12376691  0.12621700  1
  Zn  Zn97  1  0.37466344  0.62459671  0.24993389  1
  Zn  Zn98  1  0.62576666  0.00315232  0.12568286  1
  Zn  Zn99  1  0.75039700  0.00148450  0.74949016  1
  Zn  Zn100  1  0.00151270  0.75197560  0.74857358  1
  Zn  Zn101  1  0.25013320  -0.00290776  0.24852198  1
  Zn  Zn102  1  0.13291394  0.50742848  0.63370319  1
  Zn  Zn103  1  0.24944245  0.87390582  0.12759182  1
  Zn  Zn104  1  0.24995185  0.24803575  0.00013657  1
  Zn  Zn105  1  0.12683611  0.25066053  0.37435113  1
  Zn  Zn106  1  0.75053404  0.50145340  0.24900109  1
  Zn  Zn107  1  0.63196352  0.25654030  0.37995033  1
  Zn  Zn108  1  0.87876657  0.00574951  0.36997684  1
  Zn  Zn109  1  0.25061446  0.25042330  0.50146248  1
  Zn  Zn110  1  0.12778701  0.87366623  0.24863829  1
  Zn  Zn111  1  0.74812010  0.75021385  0.49886878  1
  Zn  Zn112  1  0.49558968  0.62475873  0.62194194  1
  Zn  Zn113  1  0.12666776  0.12444657  0.00128179  1
  Zn  Zn114  1  0.77336191  0.14828331  0.37003886  1
  Zn  Zn115  1  0.12707831  0.87085706  0.74786509  1
  Zn  Zn116  1  0.50188346  0.24910989  0.25244771  1
  Zn  Zn117  1  0.87301300  0.87541299  0.49818545  1
  Zn  Zn118  1  0.49874075  0.74897243  0.74583588  1
  Zn  Zn119  1  0.37321692  0.75320588  0.62869144  1
  Zn  Zn120  1  0.13146639  0.38269470  0.75690071  1
  Zn  Zn121  1  0.12735042  0.62580064  0.50186666  1
  Zn  Zn122  1  0.18619060  0.18595747  0.18854431  1
  Zn  Zn123  1  0.18909145  0.18828901  0.68918504  1
  Zn  Zn124  1  0.18678508  0.68541274  0.18814033  1
  Zn  Zn125  1  0.18692810  0.68771451  0.68874591  1
  Zn  Zn126  1  0.68795373  0.18841090  0.18755759  1
  Zn  Zn127  1  0.68812381  0.18755829  0.68601721  1
  Zn  Zn128  1  0.68825483  0.68780638  0.18600901  1
  Zn  Zn129  1  0.68684046  0.68703760  0.68686541  1
  Zn  Zn130  1  0.31223655  0.31115425  0.31287008  1
  Zn  Zn131  1  0.31305676  0.31025523  0.81137699  1
  Zn  Zn132  1  0.31125293  0.81288805  0.31254309  1
  Zn  Zn133  1  0.31166253  0.80827788  0.81525202  1
  Zn  Zn134  1  0.81269535  0.31716208  0.31311075  1
  Zn  Zn135  1  0.81297583  0.31350935  0.80992371  1
  Zn  Zn136  1  0.81259182  0.81458561  0.31209352  1
  Zn  Zn137  1  0.81098868  0.81250476  0.81087740  1
  Zn  Zn138  1  0.18938459  0.43728370  0.44192315  1
  Zn  Zn139  1  0.18732843  0.43573489  0.94098606  1
  Zn  Zn140  1  0.18764445  0.93657736  0.43614831  1
  Zn  Zn141  1  0.18674768  0.93664464  0.93892694  1
  Zn  Zn142  1  0.68932266  0.44097855  0.43778788  1
  Zn  Zn143  1  0.68922230  0.43841546  0.93729862  1
  Zn  Zn144  1  0.68661724  0.94004605  0.43639305  1
  Zn  Zn145  1  0.68756768  0.93790882  0.93601904  1
  Zn  Zn146  1  0.31090498  0.06249032  0.06114937  1
  Zn  Zn147  1  0.31319226  0.06081261  0.56361665  1
  Zn  Zn148  1  0.30861155  0.56234293  0.06056928  1
  Zn  Zn149  1  0.31228221  0.56260488  0.55976230  1
  Zn  Zn150  1  0.81105563  0.06144087  0.06609756  1
  Zn  Zn151  1  0.81370088  0.06402530  0.56213090  1
  Zn  Zn152  1  0.80958276  0.56432528  0.06185984  1
  Zn  Zn153  1  0.80822553  0.56075822  0.56057386  1
  Zn  Zn154  1  0.43774507  0.43761041  0.19051967  1
  Zn  Zn155  1  0.43597899  0.43709689  0.68870642  1
  Zn  Zn156  1  0.43838490  0.93744353  0.18531086  1
  Zn  Zn157  1  0.43954611  0.93850734  0.68735587  1
  Zn  Zn158  1  0.93714952  0.43595686  0.19023523  1
  Zn  Zn159  1  0.93894690  0.43761284  0.69197253  1
  Zn  Zn160  1  0.93730999  0.93483422  0.18616910  1
  Zn  Zn161  1  0.93928829  0.93827427  0.68892811  1
  Zn  Zn162  1  0.06292799  0.06295744  0.31153665  1
  Zn  Zn163  1  0.06327077  0.06194012  0.81186777  1
  Zn  Zn164  1  0.06320597  0.56422449  0.31172995  1
  Zn  Zn165  1  0.06106601  0.56100230  0.80883811  1
  Zn  Zn166  1  0.56403989  0.06095091  0.31340818  1
  Zn  Zn167  1  0.56394199  0.06056567  0.81296423  1
  Zn  Zn168  1  0.56175478  0.56158210  0.31134137  1
  Zn  Zn169  1  0.55982854  0.56220246  0.81096396  1
  Zn  Zn170  1  0.44301127  0.19137675  0.43815506  1
  Zn  Zn171  1  0.43727677  0.18604114  0.93826572  1
  Zn  Zn172  1  0.43681184  0.68919313  0.43708424  1
  Zn  Zn173  1  0.43694864  0.68748212  0.93555184  1
  Zn  Zn174  1  0.93942758  0.18849904  0.43846686  1
  Zn  Zn175  1  0.93870582  0.18783094  0.94098476  1
  Zn  Zn176  1  0.93646753  0.68870397  0.43783104  1
  Zn  Zn177  1  0.93653069  0.68858722  0.93596936  1
  Zn  Zn178  1  0.06297032  0.31235933  0.06183648  1
  Zn  Zn179  1  0.06192854  0.31145418  0.56233638  1
  Zn  Zn180  1  0.06089720  0.81141049  0.06115229  1
  Zn  Zn181  1  0.06324999  0.81098026  0.56010815  1
  Zn  Zn182  1  0.56104529  0.31087122  0.06299390  1
  Zn  Zn183  1  0.56126225  0.31284693  0.56278907  1
  Zn  Zn184  1  0.56101876  0.81290204  0.06207358  1
  Zn  Zn185  1  0.55894077  0.80800711  0.56253390  1
  O  O186  1  0.11513093  0.11743843  0.12357208  1
  O  O187  1  0.12202428  0.11760317  0.61831946  1
  O  O188  1  0.12448305  0.61591516  0.11651179  1
  O  O189  1  0.11176007  0.62609146  0.62283637  1
  O  O190  1  0.62170164  0.12613017  0.11608615  1
  O  O191  1  0.62120301  0.12048907  0.61612884  1
  O  O192  1  0.61797649  0.61985249  0.11835690  1
  O  O193  1  0.62525185  0.61658601  0.61693177  1
  O  O194  1  0.38064811  0.38008735  0.38133691  1
  O  O195  1  0.37860590  0.38024631  0.87913343  1
  O  O196  1  0.38083695  0.88078342  0.38276794  1
  O  O197  1  0.37953795  0.87960437  0.88067938  1
  O  O198  1  0.88377854  0.38252475  0.38084172  1
  O  O199  1  0.88043384  0.38091794  0.87970885  1
  O  O200  1  0.88814538  0.87838319  0.37825500  1
  O  O201  1  0.87963413  0.88091223  0.87866674  1
  O  O202  1  0.25619222  0.01147066  0.37526361  1
  O  O203  1  0.25430721  0.00533486  0.86748328  1
  O  O204  1  0.25723193  0.50376406  0.37165163  1
  O  O205  1  0.25886450  0.50751579  0.88182632  1
  O  O206  1  0.75230083  -0.00264757  0.36138149  1
  O  O207  1  0.75751995  0.00765265  0.87291541  1
  O  O208  1  0.75877054  0.50715633  0.37296653  1
  O  O209  1  0.75968634  0.49956133  0.86781455  1
  O  O210  1  0.24221117  0.49412712  0.13103181  1
  O  O211  1  0.25017488  0.48328556  0.61744664  1
  O  O212  1  0.23789031  0.99973184  0.12476924  1
  O  O213  1  0.24153394  1.00629668  0.63533714  1
  O  O214  1  0.74150460  0.49347505  0.12454675  1
  O  O215  1  0.74203408  0.49075177  0.63104473  1
  O  O216  1  0.74594584  0.99804124  0.13815517  1
  O  O217  1  0.74596845  0.99123459  0.62569884  1
  O  O218  1  0.00679630  0.36811358  0.25620873  1
  O  O219  1  -0.00224644  0.36717831  0.76403945  1
  O  O220  1  0.00077102  0.86910530  0.25982835  1
  O  O221  1  0.00385984  0.87325323  0.75796075  1
  O  O222  1  0.50799321  0.37454711  0.25835073  1
  O  O223  1  0.50485442  0.36842359  0.75559104  1
  O  O224  1  0.50765310  0.87053910  0.25516102  1
  O  O225  1  0.50558940  0.87425579  0.75626761  1
  O  O226  1  0.48881391  0.12724588  0.25122418  1
  O  O227  1  0.49604807  0.12892453  0.74447791  1
  O  O228  1  0.49877053  0.63092875  0.24240095  1
  O  O229  1  0.48555341  0.62660827  0.75132994  1
  O  O230  1  1.00600998  0.13663387  0.24107888  1
  O  O231  1  0.99532344  0.13086155  0.74517462  1
  O  O232  1  0.99237199  0.63197700  0.24903426  1
  O  O233  1  0.99127811  0.62688168  0.73826564  1
  O  O234  1  0.37434760  0.25493035  0.00922404  1
  O  O235  1  0.37577969  0.25920603  0.50637526  1
  O  O236  1  0.36957180  0.75356761  0.00413393  1
  O  O237  1  0.36713244  0.75865669  0.49888725  1
  O  O238  1  0.86937117  0.25704842  0.00632615  1
  O  O239  1  0.88698149  0.26099645  0.51084903  1
  O  O240  1  0.86856744  0.75421911  0.00324278  1
  O  O241  1  0.87203547  0.75240615  0.51248425  1
  O  O242  1  0.12517102  0.23524640  0.49872083  1
  O  O243  1  0.12679779  0.24859945  0.98768312  1
  O  O244  1  0.13445350  0.74986354  0.49321026  1
  O  O245  1  0.12944601  0.73998195  0.99534408  1
  O  O246  1  0.62023143  0.23445751  0.50260204  1
  O  O247  1  0.63057344  0.24626496  0.99387287  1
  O  O248  1  0.62624391  0.74101644  0.49269208  1
  O  O249  1  0.62821105  0.74560344  0.99393296  1
  O  O250  1  0.48625046  0.24849999  0.12768133  1
  O  O251  1  0.49484313  0.24559534  0.63220923  1
  O  O252  1  0.49395344  0.74382564  0.12889226  1
  O  O253  1  0.49202624  0.74340281  0.62781438  1
  O  O254  1  0.99703117  0.24420255  0.13165599  1
  O  O255  1  0.99657825  0.24513116  0.63220522  1
  O  O256  1  0.99248423  0.74750135  0.13067238  1
  O  O257  1  0.99124589  0.74192371  0.62326801  1
  O  O258  1  0.00345554  0.25674831  0.36678708  1
  O  O259  1  0.00683868  0.25605390  0.87162404  1
  O  O260  1  0.00437816  0.75737366  0.37163354  1
  O  O261  1  0.00515619  0.75617915  0.87287980  1
  O  O262  1  0.50555784  0.26544537  0.37296223  1
  O  O263  1  0.50545707  0.25508298  0.87025783  1
  O  O264  1  0.50538469  0.75492153  0.36818681  1
  O  O265  1  0.50572034  0.75718290  0.87332303  1
  O  O266  1  0.24370616  0.12445808  0.49350658  1
  O  O267  1  0.24752087  0.12789897  0.99017098  1
  O  O268  1  0.24957178  0.63396427  0.49335880  1
  O  O269  1  0.24060373  0.62872797  0.98950350  1
  O  O270  1  0.73583441  0.11968615  0.49838951  1
  O  O271  1  0.74575863  0.13154130  0.99475855  1
  O  O272  1  0.73924697  0.62679036  0.49315120  1
  O  O273  1  0.74081702  0.63227562  0.99703292  1
  O  O274  1  0.25762614  0.37168762  0.00769179  1
  O  O275  1  0.26150799  0.37018818  0.50765577  1
  O  O276  1  0.25679368  0.86663546  0.00078381  1
  O  O277  1  0.26002596  0.86619927  0.49174273  1
  O  O278  1  0.75476444  0.36875516  0.00526595  1
  O  O279  1  0.75764586  0.38320623  0.51250688  1
  O  O280  1  0.75555915  0.86917338  0.00076455  1
  O  O281  1  0.75096920  0.87506236  0.51132206  1
  O  O282  1  0.13044578  0.49477806  0.24268899  1
  O  O283  1  0.11780533  0.49277181  0.74326519  1
  O  O284  1  0.12503999  0.99907741  0.23809551  1
  O  O285  1  0.13362734  1.00021405  0.74220447  1
  O  O286  1  0.62458310  0.48987697  0.24229470  1
  O  O287  1  0.62955400  0.49443781  0.74305352  1
  O  O288  1  0.63272738  0.99065693  0.25088044  1
  O  O289  1  0.62707887  0.99352542  0.74202715  1
  O  O290  1  0.37520342  0.00952708  0.25546812  1
  O  O291  1  0.36857462  0.00410249  0.75434059  1
  O  O292  1  0.36790660  0.49912864  0.26142886  1
  O  O293  1  0.37880569  0.50582753  0.76399282  1
  O  O294  1  0.85918731  -0.00625613  0.24830884  1
  O  O295  1  0.87490510  0.00880368  0.75608618  1
  O  O296  1  0.87525182  0.50686878  0.25724874  1
  O  O297  1  0.86929304  0.50414881  0.75879753  1
  O  O298  1  0.12057581  0.37437104  0.37058647  1
  O  O299  1  0.11736670  0.36776083  0.87733649  1
  O  O300  1  0.11437451  0.86941090  0.37409699  1
  O  O301  1  0.11804969  0.86761136  0.87617881  1
  O  O302  1  0.61717522  0.38161004  0.36812787  1
  O  O303  1  0.61981094  0.37036929  0.86951813  1
  O  O304  1  0.61925095  0.86980436  0.36722569  1
  O  O305  1  0.61964987  0.87009458  0.86845532  1
  O  O306  1  0.37365109  0.13203760  0.13391723  1
  O  O307  1  0.38173409  0.12881950  0.62978426  1
  O  O308  1  0.38040579  0.62944005  0.12466118  1
  O  O309  1  0.37364595  0.61850724  0.63804737  1
  O  O310  1  0.88787569  0.13249255  0.12041947  1
  O  O311  1  0.88159931  0.13096393  0.62939401  1
  O  O312  1  0.87600609  0.63016258  0.13031343  1
  O  O313  1  0.87922581  0.63189008  0.62755215  1
  O  O314  1  0.25999351  0.25485092  0.12585155  1
  O  O315  1  0.25824743  0.25772149  0.62358992  1
  O  O316  1  0.25567222  0.74839411  0.11817029  1
  O  O317  1  0.25176495  0.74436668  0.61033050  1
  O  O318  1  0.75651495  0.25592119  0.12033179  1
  O  O319  1  0.75670688  0.26371525  0.63123543  1
  O  O320  1  0.75605734  0.75243537  0.11729977  1
  O  O321  1  0.75713261  0.75880765  0.62378056  1
  O  O322  1  0.24887854  0.23723700  0.37803794  1
  O  O323  1  0.24122488  0.24496234  0.87361011  1
  O  O324  1  0.24558894  0.74403178  0.38232223  1
  O  O325  1  0.24327158  0.73878742  0.88146453  1
  O  O326  1  0.74415901  0.25479591  0.37275323  1
  O  O327  1  0.74550395  0.24653244  0.88021053  1
  O  O328  1  0.74338447  0.74457161  0.37578982  1
  O  O329  1  0.74258175  0.74841150  0.88062889  1
  O  O330  1  0.00243715  0.11965460  0.01075727  1
  O  O331  1  0.01121472  0.11624783  0.50564503  1
  O  O332  1  0.01336447  0.62750102  0.00009368  1
  O  O333  1  -0.00115483  0.61726984  0.50799192  1
  O  O334  1  0.50651004  0.11804483  -0.00100811  1
  O  O335  1  0.50669225  0.11906605  0.50550583  1
  O  O336  1  0.50389998  0.61899022  0.00403105  1
  O  O337  1  0.51343993  0.62693042  0.49874071  1
  O  O338  1  0.48924283  0.37237352  0.49230314  1
  O  O339  1  0.49417593  0.37977474  0.99413606  1
  O  O340  1  0.49295194  0.88010726  0.49363686  1
  O  O341  1  0.49431963  0.88040512  0.99335385  1
  O  O342  1  0.99639211  0.38391449  0.49730378  1
  O  O343  1  0.99278783  0.36868600  0.98705160  1
  O  O344  1  1.00158001  0.88341346  0.49196459  1
  O  O345  1  0.99256481  0.88054027  0.99309660  1
  O  O346  1  0.48871128  0.48953182  0.36910573  1
  O  O347  1  0.49063060  0.49343134  0.88032477  1
  O  O348  1  0.49458241  0.99400802  0.38044692  1
  O  O349  1  0.49339360  0.99414748  0.87958653  1
  O  O350  1  0.99688738  0.49689831  0.38454029  1
  O  O351  1  0.98741915  0.48985522  0.87015705  1
  O  O352  1  1.00401551  0.99198577  0.38353996  1
  O  O353  1  0.99482868  0.99627593  0.88068490  1
  O  O354  1  0.00442222  0.00753156  0.12201022  1
  O  O355  1  0.00971042  0.00584933  0.61889136  1
  O  O356  1  0.01455138  0.49965776  0.13061556  1
  O  O357  1  -0.00640355  0.50956108  0.61645153  1
  O  O358  1  0.50310034  0.00287288  0.11606762  1
  O  O359  1  0.50628251  0.00600676  0.61910743  1
  O  O360  1  0.50330365  0.50406918  0.11859922  1
  O  O361  1  0.51412910  0.50059059  0.63128568  1
  O  O362  1  0.24461102  0.37943912  0.24584277  1
  O  O363  1  0.25356266  0.37166868  0.73430029  1
  O  O364  1  0.24625824  0.87936401  0.24678511  1
  O  O365  1  0.24968726  0.88852115  0.75622600  1
  O  O366  1  0.74066668  0.37954603  0.24211049  1
  O  O367  1  0.74406404  0.38000352  0.74114901  1
  O  O368  1  0.73981452  0.88215842  0.24947253  1
  O  O369  1  0.74386310  0.87700979  0.73816223  1
  O  O370  1  0.25949417  0.12364358  0.25937750  1
  O  O371  1  0.25672610  0.11611232  0.75535517  1
  O  O372  1  0.25235568  0.61787450  0.25782199  1
  O  O373  1  0.25636822  0.62709844  0.76285773  1
  O  O374  1  0.74246925  0.11103979  0.25408659  1
  O  O375  1  0.75699952  0.12550563  0.75634492  1
  O  O376  1  0.75554151  0.62344786  0.25641216  1
  O  O377  1  0.75603611  0.61783037  0.75065658  1
  O  O378  1  0.37031347  0.12205243  0.36990931  1
  O  O379  1  0.37057106  0.11892903  0.86862286  1
  O  O380  1  0.37073161  0.61465051  0.37551181  1
  O  O381  1  0.36603270  0.61692024  0.87024024  1
  O  O382  1  0.87854685  0.11719156  0.38146260  1
  O  O383  1  0.87118679  0.12178484  0.87083341  1
  O  O384  1  0.86980037  0.62185104  0.37030248  1
  O  O385  1  0.87485914  0.61596373  0.86922933  1
  O  O386  1  0.13009850  0.38116187  0.12894775  1
  O  O387  1  0.14187638  0.36974761  0.62286682  1
  O  O388  1  0.12342507  0.88616500  0.12492569  1
  O  O389  1  0.12041650  0.88892696  0.62544282  1
  O  O390  1  0.62810070  0.37955747  0.13062685  1
  O  O391  1  0.63113905  0.38079620  0.62786603  1
  O  O392  1  0.62467375  0.87510998  0.13802779  1
  O  O393  1  0.63168145  0.87911704  0.62717054  1
  O  O394  1  0.11524328  0.25669088  0.25025807  1
  O  O395  1  0.12021945  0.25366145  0.76122597  1
  O  O396  1  0.11766178  0.74999647  0.25631064  1
  O  O397  1  0.12343642  0.75224068  0.75849327  1
  O  O398  1  0.62262773  0.26530095  0.24821867  1
  O  O399  1  0.61981322  0.25530088  0.75508545  1
  O  O400  1  0.61975887  0.75731262  0.25459580  1
  O  O401  1  0.62357629  0.75626815  0.75553648  1
  O  O402  1  0.37564429  0.24185006  0.24300341  1
  O  O403  1  0.38211020  0.24271808  0.74571361  1
  O  O404  1  0.38209294  0.74804204  0.24416692  1
  O  O405  1  0.37300414  0.73787287  0.74898266  1
  O  O406  1  0.88970296  0.26051041  0.24283293  1
  O  O407  1  0.88126667  0.24491093  0.74398224  1
  O  O408  1  0.87942565  0.74541571  0.24434720  1
  O  O409  1  0.87507676  0.74429583  0.73809128  1
  O  O410  1  0.37022881  0.48947495  0.48807703  1
  O  O411  1  0.37896468  0.49442330  0.99107138  1
  O  O412  1  0.37953675  0.99375245  0.49485962  1
  O  O413  1  0.37953073  0.99439513  0.99396103  1
  O  O414  1  0.88434837  0.49494276  0.49530180  1
  O  O415  1  0.86720114  0.49444992  0.98774836  1
  O  O416  1  0.89157118  0.99773622  0.50497749  1
  O  O417  1  0.87944494  0.99497692  0.99479641  1
  O  O418  1  0.11714625  0.00119746  0.00889645  1
  O  O419  1  0.12046669  0.00689421  0.50713086  1
  O  O420  1  0.13111383  0.50821140  0.01052177  1
  O  O421  1  0.11304266  0.50133909  0.50666245  1
  O  O422  1  0.61932192  0.00640140  -0.00039387  1
  O  O423  1  0.61892774  0.00928356  0.50410638  1
  O  O424  1  0.61807412  0.50417772  0.00354097  1
  O  O425  1  0.62975776  0.50873889  0.51042743  1
  O  O426  1  0.37075738  0.36791744  0.12216215  1
  O  O427  1  0.36892713  0.37193145  0.61865487  1
  O  O428  1  0.37464173  0.86698248  0.11744114  1
  O  O429  1  0.37907635  0.87698780  0.60955437  1
  O  O430  1  0.87026255  0.37143094  0.11976185  1
  O  O431  1  0.86800035  0.37236205  0.62215799  1
  O  O432  1  0.87412755  0.86738837  0.11587270  1
  O  O433  1  0.86789309  0.86776749  0.62580340  1
  O  O434  1  0.13418283  0.12296214  0.38399738  1
  O  O435  1  0.12921956  0.13443399  0.87506745  1
  O  O436  1  0.13139261  0.63078548  0.37834739  1
  O  O437  1  0.12932950  0.62642606  0.88078883  1
  O  O438  1  0.62189313  0.12659978  0.38960550  1
  O  O439  1  0.63118488  0.13146104  0.87936851  1
  O  O440  1  0.62896186  0.62749669  0.38042943  1
  O  O441  1  0.62431204  0.63017908  0.88063611  1
