# generated using pymatgen
data_V93Zn93O256
_symmetry_space_group_name_H-M   'P 1'
_cell_length_a   17.04485254
_cell_length_b   17.04804671
_cell_length_c   17.04718031
_cell_angle_alpha   89.99093255
_cell_angle_beta   89.93570425
_cell_angle_gamma   89.99808428
_symmetry_Int_Tables_number   1
_chemical_formula_structural   V93Zn93O256
_chemical_formula_sum   'V93 Zn93 O256'
_cell_volume   4953.59105975
_cell_formula_units_Z   1
loop_
 _symmetry_equiv_pos_site_id
 _symmetry_equiv_pos_as_xyz
  1  'x, y, z'
loop_
 _atom_site_type_symbol
 _atom_site_label
 _atom_site_symmetry_multiplicity
 _atom_site_fract_x
 _atom_site_fract_y
 _atom_site_fract_z
 _atom_site_occupancy
  V  V0  1  0.49612750  0.24655112  0.75207731  1
  V  V1  1  0.62351595  0.75207284  0.37601716  1
  V  V2  1  0.87396588  0.00063106  0.87362906  1
  V  V3  1  0.25089610  0.87419706  0.62392278  1
  V  V4  1  0.25099583  0.12368365  0.37469185  1
  V  V5  1  0.12512350  0.24861170  0.37425353  1
  V  V6  1  0.62285973  0.25090664  0.37401252  1
  V  V7  1  0.74828253  0.62718295  0.87614693  1
  V  V8  1  0.37509464  0.37388590  0.50061199  1
  V  V9  1  0.75093166  0.87419569  0.62405255  1
  V  V10  1  0.12501719  0.37804533  0.74383264  1
  V  V11  1  0.00019229  0.74845827  0.74849881  1
  V  V12  1  0.24836564  0.25355374  0.00274404  1
  V  V13  1  0.62461555  0.87455315  0.75049215  1
  V  V14  1  0.75028088  0.74932456  0.49998255  1
  V  V15  1  0.62137270  0.87762542  0.25625436  1
  V  V16  1  -0.00137052  0.37491279  0.87495628  1
  V  V17  1  0.25194271  0.62368844  0.87248192  1
  V  V18  1  0.37527137  0.87740967  -0.00079688  1
  V  V19  1  0.25060922  0.75075838  -0.00081385  1
  V  V20  1  0.12557781  -0.00139398  0.62338068  1
  V  V21  1  0.62866207  0.38372805  0.25174891  1
  V  V22  1  0.37324383  0.24608007  0.62907664  1
  V  V23  1  0.75108490  0.62121699  0.36761155  1
  V  V24  1  0.87426854  0.50026273  0.87559852  1
  V  V25  1  0.87592088  0.62429823  0.74916163  1
  V  V26  1  0.12517402  0.12309835  0.49995401  1
  V  V27  1  0.87483597  0.87329963  0.49868692  1
  V  V28  1  0.12613854  0.74812912  0.37390390  1
  V  V29  1  0.62530032  0.49952603  0.62534439  1
  V  V30  1  0.37548693  0.00719837  0.87108123  1
  V  V31  1  0.12517095  0.24758099  0.87593909  1
  V  V32  1  0.75083720  0.25075597  0.50133745  1
  V  V33  1  0.49812460  0.12481867  0.62852150  1
  V  V34  1  0.38047798  0.87349953  0.49620898  1
  V  V35  1  0.62580630  0.62382308  0.50088008  1
  V  V36  1  0.37194298  0.37753639  0.00423399  1
  V  V37  1  0.49984593  0.37572812  0.87643458  1
  V  V38  1  0.62393536  0.37608975  0.75047805  1
  V  V39  1  0.37568266  0.74833086  0.62530873  1
  V  V40  1  0.49997588  0.49955706  0.50120666  1
  V  V41  1  0.12512757  0.87443374  0.74800443  1
  V  V42  1  0.74891818  0.25095766  0.00138445  1
  V  V43  1  0.75355790  0.00485858  0.24947605  1
  V  V44  1  0.12476454  0.62401104  0.00002029  1
  V  V45  1  0.25411082  0.00705715  0.74961154  1
  V  V46  1  0.12660303  0.62152648  0.49990632  1
  V  V47  1  0.38070760  -0.00308330  0.37431558  1
  V  V48  1  0.12610386  0.87380874  0.24899013  1
  V  V49  1  0.12544936  0.75013697  0.87408996  1
  V  V50  1  0.87411116  0.87602607  -0.00073931  1
  V  V51  1  0.25031668  0.24979684  0.50066666  1
  V  V52  1  0.00308936  0.49813739  0.50069506  1
  V  V53  1  0.00002973  0.87494256  0.87346110  1
  V  V54  1  0.25133124  -0.00028623  0.24915078  1
  V  V55  1  0.87359210  0.24939081  0.62402956  1
  V  V56  1  0.37632700  0.75017992  0.12594857  1
  V  V57  1  -0.00101188  0.24961899  0.75015563  1
  V  V58  1  0.25120836  0.49779765  0.24736249  1
  V  V59  1  0.74923893  0.49998253  0.74985162  1
  V  V60  1  0.74774959  0.75131214  -0.00130664  1
  V  V61  1  0.49888522  0.00126756  0.00007647  1
  V  V62  1  0.36968825  0.25374866  0.12741574  1
  V  V63  1  0.87523582  0.24353073  0.12906249  1
  V  V64  1  0.74984721  0.00059441  0.74984959  1
  V  V65  1  0.87244633  0.49909405  0.36770621  1
  V  V66  1  0.12852767  0.37322382  0.24546606  1
  V  V67  1  0.50259894  0.50228964  0.00394513  1
  V  V68  1  0.24935553  0.87649486  0.12389124  1
  V  V69  1  0.24708906  0.49905729  0.74343353  1
  V  V70  1  0.75250091  0.12543654  0.37272991  1
  V  V71  1  0.75009620  0.38281274  0.13053137  1
  V  V72  1  -0.00067267  0.37407993  0.37542506  1
  V  V73  1  0.62488913  0.00038409  0.62482976  1
  V  V74  1  0.00047668  0.12292045  0.62432880  1
  V  V75  1  0.37438961  0.49986946  0.37496457  1
  V  V76  1  0.62545516  0.12744486  0.00043976  1
  V  V77  1  0.12897868  0.49668401  0.12360222  1
  V  V78  1  -0.00360044  0.24261323  0.25001990  1
  V  V79  1  0.49789243  0.12830747  0.12644170  1
  V  V80  1  0.87387506  0.37523926  0.00088457  1
  V  V81  1  0.00027847  0.87336960  0.37407559  1
  V  V82  1  0.87596816  0.00352679  0.37208067  1
  V  V83  1  0.87661300  0.74972334  0.12793720  1
  V  V84  1  0.62506775  0.12511693  0.50069404  1
  V  V85  1  0.50085973  -0.00179541  0.49881460  1
  V  V86  1  0.74917584  0.87667252  0.12561001  1
  V  V87  1  0.50015672  0.74997214  0.75146643  1
  V  V88  1  0.00237919  0.00315849  0.00059437  1
  V  V89  1  0.00404006  0.61974525  0.62471448  1
  V  V90  1  0.00069559  0.50005360  0.00034905  1
  V  V91  1  0.87368416  0.12447251  0.74966403  1
  V  V92  1  0.49860742  0.75420999  0.25461300  1
  Zn  Zn93  1  0.62356947  0.62805187  0.00244778  1
  Zn  Zn94  1  0.87375443  0.37559914  0.50132645  1
  Zn  Zn95  1  0.75178027  0.37515584  0.62525106  1
  Zn  Zn96  1  0.12710915  0.12481788  0.00265129  1
  Zn  Zn97  1  0.62882152  0.50633691  0.13153970  1
  Zn  Zn98  1  0.62443243  0.00132383  0.12669407  1
  Zn  Zn99  1  0.62265702  0.75138463  0.87809185  1
  Zn  Zn100  1  0.50113316  0.37528325  0.37384493  1
  Zn  Zn101  1  0.37560768  0.12729937  0.25232083  1
  Zn  Zn102  1  0.37671884  0.62011572  0.74821132  1
  Zn  Zn103  1  0.00051999  0.74683563  0.24793869  1
  Zn  Zn104  1  -0.00030403  0.62400340  0.12720875  1
  Zn  Zn105  1  -0.00015415  0.12218150  0.12765619  1
  Zn  Zn106  1  0.87521655  0.62030914  0.24678037  1
  Zn  Zn107  1  0.74912965  0.12706394  0.87492150  1
  Zn  Zn108  1  0.49821017  0.25228221  0.25094944  1
  Zn  Zn109  1  0.25029749  0.62449436  0.37430305  1
  Zn  Zn110  1  0.50082935  0.87639031  0.87613585  1
  Zn  Zn111  1  0.24665903  0.37808341  0.62262746  1
  Zn  Zn112  1  0.25418678  0.12852636  0.87234603  1
  Zn  Zn113  1  0.37529079  0.49952774  0.87440198  1
  Zn  Zn114  1  0.00054835  -0.00246308  0.49933850  1
  Zn  Zn115  1  0.50245279  0.62627325  0.12671876  1
  Zn  Zn116  1  0.12537600  0.00218558  0.12486345  1
  Zn  Zn117  1  0.37621156  0.62482740  0.24924034  1
  Zn  Zn118  1  0.25215050  0.74773539  0.49896012  1
  Zn  Zn119  1  0.62612504  0.25177958  0.87502132  1
  Zn  Zn120  1  0.50083711  0.62305088  0.62685790  1
  Zn  Zn121  1  0.87586214  0.74889863  0.62345414  1
  Zn  Zn122  1  0.18603127  0.18303548  0.18598291  1
  Zn  Zn123  1  0.18546576  0.18846491  0.68629758  1
  Zn  Zn124  1  0.18971912  0.68443183  0.18676697  1
  Zn  Zn125  1  0.18713288  0.68631119  0.68516725  1
  Zn  Zn126  1  0.68754255  0.19119499  0.18779948  1
  Zn  Zn127  1  0.68551155  0.18859066  0.68824576  1
  Zn  Zn128  1  0.68565732  0.68951405  0.18555909  1
  Zn  Zn129  1  0.68743124  0.68678775  0.68737819  1
  Zn  Zn130  1  0.31162868  0.31399078  0.31335793  1
  Zn  Zn131  1  0.31227396  0.31566045  0.81477442  1
  Zn  Zn132  1  0.31108198  0.81346021  0.31278488  1
  Zn  Zn133  1  0.31390958  0.81700753  0.81217700  1
  Zn  Zn134  1  0.81253632  0.31396893  0.31331704  1
  Zn  Zn135  1  0.81032239  0.31217348  0.81300183  1
  Zn  Zn136  1  0.80954025  0.81387506  0.31262657  1
  Zn  Zn137  1  0.81283868  0.81183625  0.81138595  1
  Zn  Zn138  1  0.18794587  0.43492744  0.43485120  1
  Zn  Zn139  1  0.18759465  0.43600835  0.93387081  1
  Zn  Zn140  1  0.19151093  0.93553265  0.43695162  1
  Zn  Zn141  1  0.18856414  0.93771546  0.93459094  1
  Zn  Zn142  1  0.68956846  0.43680019  0.43905638  1
  Zn  Zn143  1  0.68612132  0.43774929  0.93872154  1
  Zn  Zn144  1  0.68931380  0.93757036  0.43741787  1
  Zn  Zn145  1  0.68530442  0.93867407  0.93653703  1
  Zn  Zn146  1  0.31208323  0.06610027  0.06074001  1
  Zn  Zn147  1  0.31302457  0.06255980  0.56198901  1
  Zn  Zn148  1  0.31335653  0.56455414  0.06441330  1
  Zn  Zn149  1  0.31244603  0.56234341  0.56233267  1
  Zn  Zn150  1  0.81259425  0.06214413  0.06186120  1
  Zn  Zn151  1  0.81286376  0.06212775  0.55996346  1
  Zn  Zn152  1  0.81210733  0.56563978  0.06108647  1
  Zn  Zn153  1  0.81437451  0.56209504  0.56035026  1
  Zn  Zn154  1  0.44211318  0.43506198  0.18896471  1
  Zn  Zn155  1  0.43528135  0.43529809  0.68817220  1
  Zn  Zn156  1  0.43723802  0.93781188  0.18625512  1
  Zn  Zn157  1  0.43751452  0.93568376  0.68674706  1
  Zn  Zn158  1  0.94120767  0.43246947  0.18636706  1
  Zn  Zn159  1  0.93676934  0.43663930  0.68627824  1
  Zn  Zn160  1  0.93881508  0.93450575  0.18796047  1
  Zn  Zn161  1  0.93696196  0.93691123  0.68591426  1
  Zn  Zn162  1  0.06455197  0.05966162  0.31307709  1
  Zn  Zn163  1  0.06316126  0.06207412  0.81124953  1
  Zn  Zn164  1  0.05871552  0.56323155  0.31081157  1
  Zn  Zn165  1  0.06393908  0.56125623  0.81287709  1
  Zn  Zn166  1  0.56324296  0.06486125  0.31201005  1
  Zn  Zn167  1  0.56262551  0.06319104  0.81413356  1
  Zn  Zn168  1  0.55975501  0.56705940  0.31431398  1
  Zn  Zn169  1  0.56289889  0.56391432  0.81599278  1
  Zn  Zn170  1  0.43755614  0.18468309  0.44104188  1
  Zn  Zn171  1  0.43709583  0.18958593  0.93923938  1
  Zn  Zn172  1  0.44020428  0.68476494  0.43598977  1
  Zn  Zn173  1  0.43671021  0.68788400  0.93739968  1
  Zn  Zn174  1  0.93800528  0.18587293  0.43865024  1
  Zn  Zn175  1  0.93508655  0.18723346  0.93805757  1
  Zn  Zn176  1  0.93722979  0.68597112  0.43586827  1
  Zn  Zn177  1  0.93662198  0.68739619  0.93875873  1
  Zn  Zn178  1  0.06037637  0.31315132  0.06382571  1
  Zn  Zn179  1  0.06092649  0.30997654  0.56218115  1
  Zn  Zn180  1  0.06252793  0.81460501  0.06146397  1
  Zn  Zn181  1  0.06156060  0.80934124  0.56021535  1
  Zn  Zn182  1  0.56242486  0.31544601  0.06552524  1
  Zn  Zn183  1  0.56153623  0.31483683  0.56378311  1
  Zn  Zn184  1  0.56281831  0.81505921  0.06644332  1
  Zn  Zn185  1  0.56256263  0.81185072  0.56367804  1
  O  O186  1  0.11874941  0.12022157  0.11967406  1
  O  O187  1  0.11998022  0.11910734  0.61945167  1
  O  O188  1  0.12459569  0.61463841  0.11754423  1
  O  O189  1  0.11449858  0.62930536  0.61337833  1
  O  O190  1  0.61559830  0.12718206  0.11705060  1
  O  O191  1  0.61906240  0.11912815  0.61965469  1
  O  O192  1  0.62266441  0.62172402  0.12122462  1
  O  O193  1  0.62458436  0.61762753  0.61819527  1
  O  O194  1  0.37576207  0.38426528  0.38123685  1
  O  O195  1  0.38110202  0.37502939  0.88828932  1
  O  O196  1  0.36932711  0.88517474  0.38541701  1
  O  O197  1  0.37621756  0.88687356  0.88185276  1
  O  O198  1  0.88080481  0.38192147  0.37855752  1
  O  O199  1  0.87928135  0.38050705  0.88044362  1
  O  O200  1  0.87888240  0.88228638  0.37928327  1
  O  O201  1  0.88077001  0.88060928  0.87896899  1
  O  O202  1  0.26014106  0.00415585  0.37027765  1
  O  O203  1  0.25704917  0.00211764  0.86644899  1
  O  O204  1  0.25817772  0.49936003  0.36644068  1
  O  O205  1  0.24999043  0.50954115  0.86758614  1
  O  O206  1  0.75704454  0.00455548  0.36818599  1
  O  O207  1  0.75634801  0.00221207  0.86809884  1
  O  O208  1  0.76122178  0.50954373  0.38381237  1
  O  O209  1  0.75552782  0.50581989  0.87070862  1
  O  O210  1  0.23967046  0.50227902  0.13343219  1
  O  O211  1  0.25304282  0.49863910  0.63873657  1
  O  O212  1  0.25146920  0.99420599  0.13029143  1
  O  O213  1  0.24674628  0.99488302  0.63133734  1
  O  O214  1  0.75149044  0.48606321  0.12049230  1
  O  O215  1  0.74496562  0.49974337  0.63183012  1
  O  O216  1  0.75091277  0.99596887  0.13455860  1
  O  O217  1  0.74432721  0.99497746  0.62950467  1
  O  O218  1  0.01051367  0.36519001  0.25552749  1
  O  O219  1  0.00618227  0.37034590  0.75544890  1
  O  O220  1  0.00820277  0.87096450  0.25644660  1
  O  O221  1  0.00522876  0.86925978  0.75384320  1
  O  O222  1  0.51193481  0.36954673  0.25374811  1
  O  O223  1  0.50416804  0.36718138  0.75616236  1
  O  O224  1  0.51127053  0.86864950  0.24530562  1
  O  O225  1  0.50615446  0.86581752  0.74853628  1
  O  O226  1  0.49901069  0.12916863  0.23833651  1
  O  O227  1  0.50645142  0.13795917  0.74464899  1
  O  O228  1  0.49774359  0.63895100  0.24825764  1
  O  O229  1  0.49691273  0.63596161  0.74912305  1
  O  O230  1  1.00646605  0.13949888  0.25087841  1
  O  O231  1  0.99456944  0.13005433  0.74431220  1
  O  O232  1  0.99484755  0.62975104  0.24493067  1
  O  O233  1  0.99795071  0.62690763  0.74265317  1
  O  O234  1  0.36770951  0.25783800  0.00661659  1
  O  O235  1  0.36997327  0.25439257  0.50720766  1
  O  O236  1  0.36939082  0.75689550  0.00444800  1
  O  O237  1  0.37707595  0.75642856  0.50640974  1
  O  O238  1  0.87071919  0.25677345  0.00817985  1
  O  O239  1  0.86894513  0.24906791  0.50593946  1
  O  O240  1  0.86935889  0.75678252  0.00680577  1
  O  O241  1  0.86864411  0.75545140  0.49950976  1
  O  O242  1  0.12970305  0.24384924  0.49393863  1
  O  O243  1  0.13170960  0.25511061  0.99204956  1
  O  O244  1  0.12651502  0.74041930  0.49048696  1
  O  O245  1  0.13082289  0.74527094  0.99348603  1
  O  O246  1  0.62940535  0.24535658  0.49306520  1
  O  O247  1  0.62906095  0.24301658  1.00151186  1
  O  O248  1  0.62951349  0.74517206  0.49567404  1
  O  O249  1  0.63277192  0.75206911  0.99921950  1
  O  O250  1  0.48899793  0.24265854  0.12337381  1
  O  O251  1  0.49284149  0.24598062  0.63244665  1
  O  O252  1  0.49352865  0.75184384  0.13614410  1
  O  O253  1  0.49149911  0.74890033  0.63311075  1
  O  O254  1  0.99162334  0.25102156  0.13290624  1
  O  O255  1  0.99464179  0.24233699  0.63082355  1
  O  O256  1  0.98824042  0.75009432  0.12218760  1
  O  O257  1  0.99888643  0.73847396  0.63017452  1
  O  O258  1  0.00462229  0.25347810  0.36851992  1
  O  O259  1  0.00548207  0.25553165  0.87063382  1
  O  O260  1  0.01109029  0.75420381  0.37393685  1
  O  O261  1  0.00561776  0.75463550  0.86955545  1
  O  O262  1  0.51235831  0.24910570  0.37675549  1
  O  O263  1  0.49917337  0.25578492  0.86709671  1
  O  O264  1  0.50723648  0.74689262  0.36400396  1
  O  O265  1  0.49796975  0.75379752  0.86331040  1
  O  O266  1  0.24437373  0.13003796  0.49467440  1
  O  O267  1  0.24830975  0.14023039  0.99519985  1
  O  O268  1  0.23793680  0.62431783  0.49860632  1
  O  O269  1  0.24473303  0.62968804  0.99121711  1
  O  O270  1  0.74339631  0.12992344  0.49364186  1
  O  O271  1  0.73975671  0.13092999  1.00259420  1
  O  O272  1  0.74528206  0.63037929  0.49203569  1
  O  O273  1  0.75009621  0.63320543  0.99258342  1
  O  O274  1  0.25915027  0.36502986  -0.00598527  1
  O  O275  1  0.25429544  0.36801546  0.50213741  1
  O  O276  1  0.25465693  0.86959025  0.00351489  1
  O  O277  1  0.26270653  0.87278832  0.50616373  1
  O  O278  1  0.75433671  0.37013300  0.00884278  1
  O  O279  1  0.75254803  0.36567501  0.50377277  1
  O  O280  1  0.75523088  0.87296529  0.00527413  1
  O  O281  1  0.75445691  0.86920597  0.50492069  1
  O  O282  1  0.13033145  0.49254749  0.24410628  1
  O  O283  1  0.13291401  0.48788621  0.75771069  1
  O  O284  1  0.13324723  0.99141142  0.25025104  1
  O  O285  1  0.13226137  0.99327500  0.74416899  1
  O  O286  1  0.61973616  0.48752371  0.25314954  1
  O  O287  1  0.62941573  0.49598347  0.74558054  1
  O  O288  1  0.63315179  0.99334206  0.25123245  1
  O  O289  1  0.62946182  0.99567263  0.74413194  1
  O  O290  1  0.37100764  -0.00025226  0.25991785  1
  O  O291  1  0.36522313  -0.00770401  0.75785208  1
  O  O292  1  0.36726475  0.49549896  0.25689118  1
  O  O293  1  0.36425885  0.50002341  0.75458970  1
  O  O294  1  0.86440453  -0.00820247  0.26026171  1
  O  O295  1  0.86985659  0.00471686  0.75397480  1
  O  O296  1  0.88247081  0.49717165  0.26394803  1
  O  O297  1  0.87049783  0.50470382  0.75617434  1
  O  O298  1  0.11937662  0.36823776  0.36561708  1
  O  O299  1  0.11902219  0.36528943  0.86715885  1
  O  O300  1  0.12234339  0.86620119  0.37108742  1
  O  O301  1  0.11984624  0.86913529  0.86792539  1
  O  O302  1  0.62709317  0.36615549  0.36925597  1
  O  O303  1  0.61732671  0.37371388  0.86909985  1
  O  O304  1  0.63290405  0.86887747  0.36396175  1
  O  O305  1  0.62161112  0.87319684  0.86573256  1
  O  O306  1  0.38276858  0.13557202  0.12480361  1
  O  O307  1  0.38176375  0.13794921  0.61830653  1
  O  O308  1  0.37658212  0.63564930  0.12864760  1
  O  O309  1  0.37619491  0.63741656  0.62536166  1
  O  O310  1  0.87614015  0.14035059  0.12056138  1
  O  O311  1  0.88062901  0.12823726  0.63004466  1
  O  O312  1  0.87455544  0.63606827  0.12651274  1
  O  O313  1  0.88613397  0.62558338  0.63007018  1
  O  O314  1  0.25941997  0.24562310  0.11617172  1
  O  O315  1  0.25837324  0.24957862  0.62029058  1
  O  O316  1  0.25536215  0.75570057  0.11882433  1
  O  O317  1  0.25989774  0.75496048  0.62410599  1
  O  O318  1  0.75779339  0.25871412  0.12161442  1
  O  O319  1  0.75586638  0.24913724  0.61905057  1
  O  O320  1  0.75797822  0.75712677  0.11931918  1
  O  O321  1  0.75192198  0.75597544  0.61851313  1
  O  O322  1  0.24480813  0.24433199  0.38027726  1
  O  O323  1  0.24180848  0.24947921  0.88122438  1
  O  O324  1  0.23937758  0.74672393  0.37699567  1
  O  O325  1  0.24515803  0.74390746  0.87765738  1
  O  O326  1  0.74246766  0.24469868  0.37979844  1
  O  O327  1  0.74758675  0.24743192  0.88488890  1
  O  O328  1  0.74463713  0.74224887  0.38113366  1
  O  O329  1  0.75064261  0.74493475  0.88124044  1
  O  O330  1  -0.00003277  0.11265670  -0.00144653  1
  O  O331  1  0.00784909  0.12161737  0.50601490  1
  O  O332  1  0.00731086  0.61752722  -0.00042560  1
  O  O333  1  0.00689247  0.61786827  0.50527916  1
  O  O334  1  0.50624662  0.12303037  0.00838427  1
  O  O335  1  0.50665358  0.11820299  0.50793794  1
  O  O336  1  0.49865850  0.61446126  0.00044242  1
  O  O337  1  0.50828741  0.61767674  0.50163100  1
  O  O338  1  0.49335017  0.38162826  0.49710858  1
  O  O339  1  0.49212541  0.38188442  0.99706184  1
  O  O340  1  0.48834470  0.88140113  0.50627349  1
  O  O341  1  0.49352540  0.88385309  1.00147105  1
  O  O342  1  1.00234306  0.38285650  0.49426083  1
  O  O343  1  0.99401035  0.38037972  0.99420692  1
  O  O344  1  0.99403331  0.87551418  0.49237250  1
  O  O345  1  0.99467671  0.88319804  0.99274507  1
  O  O346  1  0.48915090  0.49949320  0.38099318  1
  O  O347  1  0.49629036  0.49457155  0.88491921  1
  O  O348  1  0.48831630  1.00787059  0.38134046  1
  O  O349  1  0.49167462  0.99941393  0.88023007  1
  O  O350  1  0.99317223  0.49450704  0.38219126  1
  O  O351  1  0.99451692  0.49455282  0.88023684  1
  O  O352  1  0.99101809  0.99345413  0.37425602  1
  O  O353  1  0.99476909  0.99407294  0.87996909  1
  O  O354  1  -0.00160483  0.00007662  0.11357659  1
  O  O355  1  0.00764309  0.00503612  0.62372534  1
  O  O356  1  0.01073118  0.49936634  0.11851366  1
  O  O357  1  -0.00446274  0.50907261  0.61442075  1
  O  O358  1  0.49850391  0.01293018  0.11961333  1
  O  O359  1  0.50509087  0.00492655  0.62032035  1
  O  O360  1  0.50090501  0.50171689  0.11544674  1
  O  O361  1  0.50546176  0.50091959  0.61963489  1
  O  O362  1  0.23767025  0.38429587  0.25555429  1
  O  O363  1  0.24149015  0.38227875  0.75089869  1
  O  O364  1  0.24563228  0.88026882  0.24360361  1
  O  O365  1  0.24381097  0.88337872  0.74364563  1
  O  O366  1  0.74125283  0.36918082  0.24120871  1
  O  O367  1  0.74293223  0.38224931  0.74988611  1
  O  O368  1  0.74140549  0.88487270  0.24602420  1
  O  O369  1  0.74555409  0.88061508  0.74363564  1
  O  O370  1  0.25247863  0.11802152  0.25706394  1
  O  O371  1  0.24338616  0.11054479  0.75025434  1
  O  O372  1  0.25193063  0.61023007  0.25299802  1
  O  O373  1  0.24704576  0.61700104  0.75740290  1
  O  O374  1  0.74242484  0.11242030  0.25515368  1
  O  O375  1  0.75502223  0.11842720  0.75077096  1
  O  O376  1  0.75062256  0.63059195  0.26486053  1
  O  O377  1  0.75605503  0.61980475  0.75561943  1
  O  O378  1  0.36911860  0.11527872  0.37628212  1
  O  O379  1  0.37476038  0.11157225  0.87982333  1
  O  O380  1  0.37208724  0.61190627  0.37382738  1
  O  O381  1  0.36041548  0.62579609  0.87273598  1
  O  O382  1  0.86938093  0.11169809  0.38056833  1
  O  O383  1  0.87322028  0.11871034  0.86736877  1
  O  O384  1  0.86779769  0.61703062  0.37331701  1
  O  O385  1  0.87045749  0.61918131  0.86934962  1
  O  O386  1  0.12024274  0.38358542  0.13531449  1
  O  O387  1  0.12575910  0.36603143  0.64007101  1
  O  O388  1  0.13217817  0.87674230  0.13026298  1
  O  O389  1  0.13023665  0.87814203  0.62806987  1
  O  O390  1  0.63398961  0.37553354  0.13490716  1
  O  O391  1  0.62656530  0.38217973  0.63262158  1
  O  O392  1  0.63189477  0.87925175  0.13718140  1
  O  O393  1  0.63106231  0.88149584  0.62944921  1
  O  O394  1  0.11999798  0.25686163  0.25356504  1
  O  O395  1  0.11966529  0.25645856  0.75824457  1
  O  O396  1  0.12704802  0.75413477  0.25862282  1
  O  O397  1  0.12008011  0.75447434  0.75434294  1
  O  O398  1  0.62480977  0.25732960  0.26142686  1
  O  O399  1  0.61409116  0.25689073  0.75103174  1
  O  O400  1  0.61878330  0.75939132  0.25503039  1
  O  O401  1  0.61516030  0.75565312  0.74861872  1
  O  O402  1  0.37487669  0.25040911  0.24057747  1
  O  O403  1  0.38434816  0.25711959  0.74153091  1
  O  O404  1  0.38369499  0.75353243  0.24649647  1
  O  O405  1  0.38198160  0.75262455  0.74023275  1
  O  O406  1  0.88563416  0.25780288  0.24179102  1
  O  O407  1  0.87999831  0.24452787  0.74548475  1
  O  O408  1  0.87397059  0.75343039  0.23679893  1
  O  O409  1  0.88297501  0.74223583  0.74848337  1
  O  O410  1  0.37796845  0.49453210  0.49361658  1
  O  O411  1  0.38001642  0.49110388  1.00114443  1
  O  O412  1  0.37989772  0.99261584  0.49413206  1
  O  O413  1  0.37863629  0.99667735  0.99217346  1
  O  O414  1  0.88779268  0.49958713  0.49048542  1
  O  O415  1  0.88049267  0.49480814  0.99496491  1
  O  O416  1  0.87495029  0.99226487  0.48865182  1
  O  O417  1  0.88182085  0.99523750  0.99393143  1
  O  O418  1  0.11381874  -0.00019648  -0.00220540  1
  O  O419  1  0.12609050  0.00474705  0.50532530  1
  O  O420  1  0.12231736  0.50171772  0.00573721  1
  O  O421  1  0.11340919  0.50863334  0.48949153  1
  O  O422  1  0.61914124  0.01054847  0.00347971  1
  O  O423  1  0.62115131  0.00461409  0.50448820  1
  O  O424  1  0.61250441  0.49918220  0.00364227  1
  O  O425  1  0.62014292  0.50385121  0.50501138  1
  O  O426  1  0.38049032  0.36507351  0.11478011  1
  O  O427  1  0.37293906  0.36242172  0.61866290  1
  O  O428  1  0.36869700  0.87030193  0.11882407  1
  O  O429  1  0.37091320  0.86682568  0.61647352  1
  O  O430  1  0.86860263  0.36726169  0.12083380  1
  O  O431  1  0.87403529  0.36544170  0.62239798  1
  O  O432  1  0.86928909  0.86872832  0.11870883  1
  O  O433  1  0.86871282  0.87337071  0.61777433  1
  O  O434  1  0.13104871  0.12935870  0.38021400  1
  O  O435  1  0.12397708  0.13937375  0.87612035  1
  O  O436  1  0.12394169  0.63196289  0.38266321  1
  O  O437  1  0.13336443  0.63011597  0.87950802  1
  O  O438  1  0.63077450  0.13297596  0.38067015  1
  O  O439  1  0.62481992  0.12805141  0.88946267  1
  O  O440  1  0.63310174  0.62994338  0.38128453  1
  O  O441  1  0.63393929  0.62968054  0.87921168  1
