# generated using pymatgen
data_V93Zn93O256
_symmetry_space_group_name_H-M   'P 1'
_cell_length_a   17.05304119
_cell_length_b   17.05053354
_cell_length_c   17.05133918
_cell_angle_alpha   89.97749616
_cell_angle_beta   89.87825937
_cell_angle_gamma   90.02883038
_symmetry_Int_Tables_number   1
_chemical_formula_structural   V93Zn93O256
_chemical_formula_sum   'V93 Zn93 O256'
_cell_volume   4957.89401896
_cell_formula_units_Z   1
loop_
 _symmetry_equiv_pos_site_id
 _symmetry_equiv_pos_as_xyz
  1  'x, y, z'
loop_
 _atom_site_type_symbol
 _atom_site_label
 _atom_site_symmetry_multiplicity
 _atom_site_fract_x
 _atom_site_fract_y
 _atom_site_fract_z
 _atom_site_occupancy
  V  V0  1  -0.00026727  0.12400589  0.12566756  1
  V  V1  1  0.25456539  0.87547390  0.62216695  1
  V  V2  1  0.87396664  0.12391267  0.25187281  1
  V  V3  1  0.12481303  0.75118568  0.87444091  1
  V  V4  1  0.62544078  0.25153366  0.87405118  1
  V  V5  1  0.74239049  -0.00459066  0.75100722  1
  V  V6  1  0.49965025  0.75108366  0.25020461  1
  V  V7  1  -0.00204818  0.62298896  0.62761074  1
  V  V8  1  0.12568313  0.62419445  0.00342934  1
  V  V9  1  0.49918050  0.00560374  0.00345815  1
  V  V10  1  0.50046519  0.24197865  0.24496734  1
  V  V11  1  0.74998235  0.74884290  0.49895956  1
  V  V12  1  0.62493419  0.62424822  0.49702275  1
  V  V13  1  0.87432848  0.87377065  0.50156595  1
  V  V14  1  0.87876077  0.24239704  0.62430869  1
  V  V15  1  -0.00005214  0.24943881  0.24964465  1
  V  V16  1  0.75101323  0.25143547  -0.00042525  1
  V  V17  1  -0.00035391  0.49755168  -0.00079457  1
  V  V18  1  0.87290259  -0.00120300  0.37681645  1
  V  V19  1  0.62654623  0.50152784  0.12355793  1
  V  V20  1  0.62183558  0.87493637  0.25118106  1
  V  V21  1  0.25342085  0.75269543  0.50036252  1
  V  V22  1  0.87438349  0.75053952  0.12556107  1
  V  V23  1  0.12306713  0.12357757  0.50151890  1
  V  V24  1  0.62863986  0.62997844  -0.00297975  1
  V  V25  1  0.75043010  0.37230006  0.62711250  1
  V  V26  1  0.00032952  0.37392621  0.37398107  1
  V  V27  1  0.24938208  0.12678847  0.87579917  1
  V  V28  1  0.37799651  0.63098020  0.74692691  1
  V  V29  1  0.37394326  0.00115807  0.87674423  1
  V  V30  1  0.50016201  0.49869969  0.49755540  1
  V  V31  1  0.37513759  0.37357977  0.49899114  1
  V  V32  1  0.62392302  0.12140222  0.50167708  1
  V  V33  1  0.12974999  0.62469251  0.49722878  1
  V  V34  1  0.12570316  0.24805516  0.37616025  1
  V  V35  1  0.49853287  0.62444552  0.62370170  1
  V  V36  1  0.25025118  0.50138680  0.74857920  1
  V  V37  1  0.25199657  0.62674365  0.87400173  1
  V  V38  1  0.25049932  0.87666486  0.12508608  1
  V  V39  1  0.75051935  0.12581027  0.87518037  1
  V  V40  1  0.12364889  0.00051380  0.12587075  1
  V  V41  1  0.50252053  0.37550920  0.87293393  1
  V  V42  1  -0.00079407  0.00032320  0.00063345  1
  V  V43  1  0.37684673  0.87691127  -0.00121850  1
  V  V44  1  0.75374345  0.37544715  0.12177747  1
  V  V45  1  0.37626255  0.37702075  -0.00117625  1
  V  V46  1  0.25058157  0.25143746  -0.00108505  1
  V  V47  1  0.37471341  0.12695350  0.75010871  1
  V  V48  1  0.25176321  0.75144388  -0.00095585  1
  V  V49  1  0.87439595  0.49894033  0.37414136  1
  V  V50  1  0.12044771  0.00230788  0.62760417  1
  V  V51  1  0.62427322  0.24772239  0.37553112  1
  V  V52  1  -0.00112277  0.87466592  0.87576646  1
  V  V53  1  0.00113654  0.49845511  0.49939718  1
  V  V54  1  0.50013001  0.62597269  0.12402221  1
  V  V55  1  0.00106932  0.24419409  0.74793672  1
  V  V56  1  0.50189578  0.50188153  -0.00167882  1
  V  V57  1  0.12880102  0.74691618  0.37595336  1
  V  V58  1  0.25040125  0.37790622  0.12700009  1
  V  V59  1  0.37487142  0.25017566  0.62445412  1
  V  V60  1  0.62656052  0.49764826  0.62665208  1
  V  V61  1  0.62389108  0.12598878  0.00287394  1
  V  V62  1  0.49808090  0.12511382  0.62546012  1
  V  V63  1  0.87639507  0.12329227  0.74841574  1
  V  V64  1  0.49261238  -0.00728944  0.50082129  1
  V  V65  1  0.37723898  0.50201852  0.87340555  1
  V  V66  1  0.37221880  -0.00573598  0.37774516  1
  V  V67  1  0.74865622  0.87524461  0.12539881  1
  V  V68  1  0.49976291  0.37371316  0.37289700  1
  V  V69  1  0.62410869  0.75816326  0.86686270  1
  V  V70  1  0.12516394  0.49929411  0.62432388  1
  V  V71  1  0.62052140  0.00514481  0.12703116  1
  V  V72  1  0.24917013  0.00198317  0.25148728  1
  V  V73  1  0.38002880  0.24490773  0.12475758  1
  V  V74  1  0.87481492  -0.00117312  0.87547910  1
  V  V75  1  0.87399233  0.74350740  0.62888679  1
  V  V76  1  0.25119865  0.37421025  0.62361616  1
  V  V77  1  0.62506468  0.37485522  0.24968217  1
  V  V78  1  0.62480577  0.74995509  0.37424309  1
  V  V79  1  0.12575902  0.37380791  0.74967576  1
  V  V80  1  0.36916432  0.50173193  0.37222939  1
  V  V81  1  0.24768629  0.00031352  0.75115157  1
  V  V82  1  -0.00241909  0.00142672  0.50765492  1
  V  V83  1  0.36952774  0.62384592  0.25176933  1
  V  V84  1  -0.00314127  0.74530735  0.75088333  1
  V  V85  1  0.87593130  0.37137909  0.49995646  1
  V  V86  1  0.74279376  0.87432233  0.62975959  1
  V  V87  1  0.37624373  0.75119477  0.12451957  1
  V  V88  1  0.12618627  0.37501779  0.25000729  1
  V  V89  1  -0.00117903  0.74865886  0.25143042  1
  V  V90  1  0.12458029  0.87423818  0.25110848  1
  V  V91  1  0.12533098  0.25098328  0.87472208  1
  V  V92  1  0.75120652  0.50026249  0.24996003  1
  Zn  Zn93  1  -0.00057029  0.87352543  0.37814227  1
  Zn  Zn94  1  0.25145604  0.12579081  0.37375613  1
  Zn  Zn95  1  0.75079110  0.24567424  0.49951531  1
  Zn  Zn96  1  0.12422575  0.12697579  0.00103567  1
  Zn  Zn97  1  0.50472096  0.88175373  0.86548504  1
  Zn  Zn98  1  0.12414632  0.87508497  0.75050016  1
  Zn  Zn99  1  0.87588647  0.24932522  0.12332733  1
  Zn  Zn100  1  0.50489584  0.76375477  0.74113912  1
  Zn  Zn101  1  0.12492704  0.50114497  0.12819848  1
  Zn  Zn102  1  0.87432126  0.62367278  0.25137780  1
  Zn  Zn103  1  0.74840478  0.12528465  0.37646947  1
  Zn  Zn104  1  0.62733059  0.37545924  0.75155848  1
  Zn  Zn105  1  0.49482203  0.87167828  0.38037156  1
  Zn  Zn106  1  0.87447435  0.50540920  0.86560260  1
  Zn  Zn107  1  0.25063598  0.24716777  0.49858574  1
  Zn  Zn108  1  0.37556644  0.12333918  0.24908651  1
  Zn  Zn109  1  0.61527414  -0.00712630  0.63284499  1
  Zn  Zn110  1  -0.00104065  0.62339974  0.12591857  1
  Zn  Zn111  1  0.75299445  0.75091520  -0.00420159  1
  Zn  Zn112  1  0.87424630  0.87609871  0.00101380  1
  Zn  Zn113  1  0.24644227  0.50473297  0.25319263  1
  Zn  Zn114  1  0.75768876  0.62836748  0.86050349  1
  Zn  Zn115  1  -0.00344748  0.37660538  0.87299984  1
  Zn  Zn116  1  0.50246955  0.25216204  0.74888370  1
  Zn  Zn117  1  0.87840662  0.37333280  -0.00408908  1
  Zn  Zn118  1  0.74636361  0.00094851  0.25231283  1
  Zn  Zn119  1  0.75152565  0.62420038  0.37376962  1
  Zn  Zn120  1  0.76956828  0.51417355  0.74244188  1
  Zn  Zn121  1  0.37787750  0.75503823  0.61735483  1
  Zn  Zn122  1  0.18850288  0.18799167  0.18736109  1
  Zn  Zn123  1  0.18840180  0.18611130  0.68571918  1
  Zn  Zn124  1  0.18878017  0.69091949  0.18693276  1
  Zn  Zn125  1  0.18559445  0.68826328  0.68582800  1
  Zn  Zn126  1  0.68988491  0.18804751  0.18855533  1
  Zn  Zn127  1  0.68752976  0.18555308  0.68794168  1
  Zn  Zn128  1  0.68853729  0.68632218  0.18824008  1
  Zn  Zn129  1  0.68608916  0.68513615  0.68559089  1
  Zn  Zn130  1  0.31259487  0.31115594  0.31231176  1
  Zn  Zn131  1  0.31394904  0.31355940  0.81087981  1
  Zn  Zn132  1  0.31112073  0.81294238  0.31280351  1
  Zn  Zn133  1  0.31298048  0.81661919  0.81064829  1
  Zn  Zn134  1  0.81060431  0.31113698  0.31273089  1
  Zn  Zn135  1  0.81567050  0.31821945  0.81337858  1
  Zn  Zn136  1  0.81015045  0.81437651  0.31242173  1
  Zn  Zn137  1  0.81123620  0.81081822  0.81309828  1
  Zn  Zn138  1  0.18819854  0.43456025  0.43744454  1
  Zn  Zn139  1  0.18641023  0.43808256  0.93628220  1
  Zn  Zn140  1  0.18669478  0.93467352  0.43716910  1
  Zn  Zn141  1  0.18538084  0.93817128  0.93903362  1
  Zn  Zn142  1  0.68928885  0.43434715  0.43867728  1
  Zn  Zn143  1  0.69214759  0.44164913  0.93212513  1
  Zn  Zn144  1  0.68485702  0.93577387  0.44049947  1
  Zn  Zn145  1  0.68852747  0.93800935  0.94032342  1
  Zn  Zn146  1  0.30998036  0.06419701  0.06286516  1
  Zn  Zn147  1  0.31009183  0.06233836  0.56211810  1
  Zn  Zn148  1  0.31373407  0.56344604  0.06244854  1
  Zn  Zn149  1  0.31270947  0.56225729  0.56088850  1
  Zn  Zn150  1  0.81101926  0.06232663  0.06323296  1
  Zn  Zn151  1  0.80812193  0.06050213  0.56515300  1
  Zn  Zn152  1  0.81812819  0.56739135  0.05400066  1
  Zn  Zn153  1  0.81203998  0.56121162  0.56008274  1
  Zn  Zn154  1  0.43912037  0.43606564  0.18672781  1
  Zn  Zn155  1  0.43895187  0.43818214  0.68778665  1
  Zn  Zn156  1  0.43652733  0.93840960  0.18963976  1
  Zn  Zn157  1  0.43422331  0.93963379  0.68925720  1
  Zn  Zn158  1  0.93931958  0.43992783  0.18484856  1
  Zn  Zn159  1  0.93897342  0.43144864  0.68762081  1
  Zn  Zn160  1  0.93783767  0.93635302  0.18973017  1
  Zn  Zn161  1  0.93348345  0.93196661  0.69038842  1
  Zn  Zn162  1  0.06045252  0.06114754  0.31576003  1
  Zn  Zn163  1  0.06197682  0.06454905  0.81501810  1
  Zn  Zn164  1  0.06259828  0.56246720  0.31274875  1
  Zn  Zn165  1  0.06145517  0.56283070  0.81394873  1
  Zn  Zn166  1  0.55908184  0.06034155  0.31629089  1
  Zn  Zn167  1  0.56038034  0.06609798  0.81569302  1
  Zn  Zn168  1  0.56113001  0.56312541  0.31042038  1
  Zn  Zn169  1  0.56664302  0.56758547  0.81172988  1
  Zn  Zn170  1  0.43681329  0.18322621  0.43564762  1
  Zn  Zn171  1  0.43858454  0.18832827  0.93742103  1
  Zn  Zn172  1  0.43762492  0.68471622  0.43465249  1
  Zn  Zn173  1  0.44215045  0.69063380  0.93455997  1
  Zn  Zn174  1  0.94083985  0.18464694  0.43812063  1
  Zn  Zn175  1  0.93742158  0.18827726  0.93688499  1
  Zn  Zn176  1  0.93841207  0.68446404  0.43910955  1
  Zn  Zn177  1  0.93743943  0.68648832  0.93838533  1
  Zn  Zn178  1  0.06373524  0.31184810  0.06343367  1
  Zn  Zn179  1  0.06200812  0.31075456  0.56362225  1
  Zn  Zn180  1  0.06163727  0.81354386  0.06257968  1
  Zn  Zn181  1  0.06319039  0.81533309  0.56452360  1
  Zn  Zn182  1  0.56410669  0.31445730  0.06100928  1
  Zn  Zn183  1  0.56149029  0.31042846  0.56130783  1
  Zn  Zn184  1  0.56172977  0.81595290  0.05913447  1
  Zn  Zn185  1  0.56239471  0.80980439  0.56196474  1
  O  O186  1  0.11757854  0.11847503  0.12520104  1
  O  O187  1  0.12882453  0.11118294  0.61696766  1
  O  O188  1  0.12834371  0.62616478  0.11296030  1
  O  O189  1  0.11830363  0.61859532  0.61724041  1
  O  O190  1  0.63389187  0.11224420  0.11984606  1
  O  O191  1  0.61793285  0.12176923  0.61683459  1
  O  O192  1  0.61803206  0.62150290  0.11887954  1
  O  O193  1  0.61825979  0.61661516  0.61616451  1
  O  O194  1  0.38116061  0.38154559  0.37821985  1
  O  O195  1  0.38032842  0.38244237  0.87948210  1
  O  O196  1  0.37541822  0.88862350  0.37070156  1
  O  O197  1  0.37281034  0.88442439  0.88298729  1
  O  O198  1  0.88106570  0.37758915  0.38023043  1
  O  O199  1  0.87964588  0.38261637  0.87971979  1
  O  O200  1  0.87541395  0.88304340  0.38205643  1
  O  O201  1  0.88092215  0.88055388  0.87736917  1
  O  O202  1  0.25527872  -0.00092618  0.36997236  1
  O  O203  1  0.25357067  0.00624113  0.87184711  1
  O  O204  1  0.26523950  0.49355003  0.37293068  1
  O  O205  1  0.25688922  0.50687165  0.86859162  1
  O  O206  1  0.76235122  0.00007305  0.37635006  1
  O  O207  1  0.75444355  0.00417224  0.86943744  1
  O  O208  1  0.75664992  0.49668572  0.36819444  1
  O  O209  1  0.74953113  0.50538023  0.86218372  1
  O  O210  1  0.25141032  0.48727404  0.12568053  1
  O  O211  1  0.24460611  0.49472704  0.62929988  1
  O  O212  1  0.24415208  0.99519623  0.13040340  1
  O  O213  1  0.24130689  0.99359882  0.62973862  1
  O  O214  1  0.74604373  0.49270407  0.12835085  1
  O  O215  1  0.74243514  0.48992917  0.62081236  1
  O  O216  1  0.74025389  0.99114354  0.12680679  1
  O  O217  1  0.74910417  0.98986952  0.63477469  1
  O  O218  1  0.00571260  0.36955237  0.25447786  1
  O  O219  1  0.00924404  0.36105613  0.75005083  1
  O  O220  1  0.00601387  0.86345435  0.25205513  1
  O  O221  1  0.00181231  0.86335046  0.75620707  1
  O  O222  1  0.50667897  0.36692058  0.25367874  1
  O  O223  1  0.50341202  0.37417190  0.75779806  1
  O  O224  1  0.50534931  0.86729486  0.25070270  1
  O  O225  1  0.49706508  0.87564805  0.75253198  1
  O  O226  1  0.50050691  0.13943723  0.25206193  1
  O  O227  1  0.49188339  0.12528140  0.74358165  1
  O  O228  1  0.49130934  0.63094688  0.24265994  1
  O  O229  1  0.49047737  0.62523210  0.74249026  1
  O  O230  1  0.99188979  0.12852034  0.24669463  1
  O  O231  1  0.99342257  0.13651178  0.75464459  1
  O  O232  1  1.00010788  0.63759565  0.24783440  1
  O  O233  1  1.00715117  0.63790112  0.74375210  1
  O  O234  1  0.37194573  0.25729977  0.00607358  1
  O  O235  1  0.37471399  0.25548748  0.50533773  1
  O  O236  1  0.37145180  0.75555455  0.00451284  1
  O  O237  1  0.35743026  0.73867986  0.49825186  1
  O  O238  1  0.86679450  0.25156888  0.00350562  1
  O  O239  1  0.87744885  0.25157651  0.50857028  1
  O  O240  1  0.87505272  0.75578091  0.01487370  1
  O  O241  1  0.87094955  0.75459667  0.50757770  1
  O  O242  1  0.12165770  0.23846887  0.49672990  1
  O  O243  1  0.13294213  0.24965004  0.99328876  1
  O  O244  1  0.12851181  0.74327781  0.49442962  1
  O  O245  1  0.13111814  0.74354500  0.99555971  1
  O  O246  1  0.62203881  0.23712763  0.49431321  1
  O  O247  1  0.63045317  0.24486476  0.99525471  1
  O  O248  1  0.63023545  0.74389588  0.49365387  1
  O  O249  1  0.62381297  0.74360934  0.99242012  1
  O  O250  1  0.49117340  0.25954288  0.13266434  1
  O  O251  1  0.49239973  0.24315410  0.62602887  1
  O  O252  1  0.49445546  0.74664415  0.12934131  1
  O  O253  1  0.49557787  0.74157086  0.62377261  1
  O  O254  1  0.99847188  0.24310154  0.13238999  1
  O  O255  1  0.98944360  0.25320794  0.63504687  1
  O  O256  1  0.99250339  0.75134852  0.13484996  1
  O  O257  1  0.99341112  0.74593659  0.63137375  1
  O  O258  1  0.00547078  0.25491662  0.36945066  1
  O  O259  1  0.00671033  0.25133189  0.86551748  1
  O  O260  1  0.00831352  0.75079334  0.36848140  1
  O  O261  1  0.00355916  0.75363546  0.86842665  1
  O  O262  1  0.50391002  0.25477893  0.36545632  1
  O  O263  1  0.50700719  0.25710587  0.87515367  1
  O  O264  1  0.50524755  0.75202183  0.36938484  1
  O  O265  1  0.51343833  0.75436104  0.87235439  1
  O  O266  1  0.23469141  0.12409460  0.49747818  1
  O  O267  1  0.24876921  0.13364010  0.99371682  1
  O  O268  1  0.23526283  0.63337783  0.50839611  1
  O  O269  1  0.24585700  0.63104308  0.99439385  1
  O  O270  1  0.73671210  0.12391050  0.49968940  1
  O  O271  1  0.74452146  0.13055055  0.99466090  1
  O  O272  1  0.74255044  0.63114298  0.49813830  1
  O  O273  1  0.73326395  0.63011745  1.00844254  1
  O  O274  1  0.25639662  0.37148540  0.00662008  1
  O  O275  1  0.25704372  0.37304080  0.50688614  1
  O  O276  1  0.25565668  0.87091219  0.00598944  1
  O  O277  1  0.24074304  0.86399499  0.51035020  1
  O  O278  1  0.74833309  0.37096077  0.00980525  1
  O  O279  1  0.75700129  0.37015809  0.51004013  1
  O  O280  1  0.75137412  0.87364158  0.01442798  1
  O  O281  1  0.75496739  0.86949438  0.50956059  1
  O  O282  1  0.12895921  0.49337303  0.24903086  1
  O  O283  1  0.13048432  0.49555190  0.74403481  1
  O  O284  1  0.12744951  0.99347738  0.24643557  1
  O  O285  1  0.12833567  1.00137819  0.74262093  1
  O  O286  1  0.62916802  0.49444447  0.24344972  1
  O  O287  1  0.62161144  0.49966770  0.73115245  1
  O  O288  1  0.62282385  0.99565622  0.24245703  1
  O  O289  1  0.63867950  1.00706342  0.75105078  1
  O  O290  1  0.36868501  0.00258601  0.25665300  1
  O  O291  1  0.36581878  0.00833591  0.75714154  1
  O  O292  1  0.37635789  0.50677809  0.25537203  1
  O  O293  1  0.36999244  0.50996167  0.75366297  1
  O  O294  1  0.87646773  0.00684877  0.26083694  1
  O  O295  1  0.86741945  0.00408633  0.75557774  1
  O  O296  1  0.87032813  0.49990620  0.25623954  1
  O  O297  1  0.88259029  0.50106927  0.74942855  1
  O  O298  1  0.11919834  0.36893582  0.37044200  1
  O  O299  1  0.12708267  0.36811204  0.86569076  1
  O  O300  1  0.12039049  0.86463527  0.36973697  1
  O  O301  1  0.11796189  0.86855335  0.87467895  1
  O  O302  1  0.61922059  0.36875206  0.36980724  1
  O  O303  1  0.61995095  0.36914949  0.87439708  1
  O  O304  1  0.62255930  0.86847908  0.36871678  1
  O  O305  1  0.62586825  0.86156198  0.88190522  1
  O  O306  1  0.37002312  0.14183905  0.12549833  1
  O  O307  1  0.37771228  0.13009488  0.62981678  1
  O  O308  1  0.38146249  0.63079149  0.13032845  1
  O  O309  1  0.37984524  0.62390220  0.63266208  1
  O  O310  1  0.87971677  0.12277689  0.13730821  1
  O  O311  1  0.86775944  0.13550936  0.63079123  1
  O  O312  1  0.87596201  0.63908359  0.12828678  1
  O  O313  1  0.88201420  0.63749188  0.61459319  1
  O  O314  1  0.25821702  0.26039951  0.12020601  1
  O  O315  1  0.25610740  0.25660133  0.62245257  1
  O  O316  1  0.25673421  0.75740344  0.11863393  1
  O  O317  1  0.24778447  0.75863623  0.61729538  1
  O  O318  1  0.74929952  0.25995278  0.11956040  1
  O  O319  1  0.75925038  0.25560282  0.62315667  1
  O  O320  1  0.75720865  0.75990191  0.12754409  1
  O  O321  1  0.75662608  0.75616849  0.61993833  1
  O  O322  1  0.24165293  0.24809054  0.37826615  1
  O  O323  1  0.24639553  0.24648594  0.87907924  1
  O  O324  1  0.23632019  0.75665647  0.38365639  1
  O  O325  1  0.24603458  0.74615478  0.87997193  1
  O  O326  1  0.74077662  0.24728243  0.37869623  1
  O  O327  1  0.74566110  0.24539283  0.87977037  1
  O  O328  1  0.74337250  0.74917629  0.38142484  1
  O  O329  1  0.73751572  0.74971595  0.87799714  1
  O  O330  1  0.00055237  0.11890123  0.00747548  1
  O  O331  1  0.00946103  0.11133790  0.49841094  1
  O  O332  1  0.01352674  0.61933381  0.00244301  1
  O  O333  1  0.01032736  0.61867278  0.50660951  1
  O  O334  1  0.50620793  0.11342663  -0.00305203  1
  O  O335  1  0.50618847  0.11579610  0.50550442  1
  O  O336  1  0.50773111  0.62124999  0.00464232  1
  O  O337  1  0.50453809  0.61795995  0.50377209  1
  O  O338  1  0.49443316  0.37970316  0.49309314  1
  O  O339  1  0.49575619  0.38276650  0.99347847  1
  O  O340  1  0.50452326  0.88872857  0.50134385  1
  O  O341  1  0.49403224  0.88870229  0.99678885  1
  O  O342  1  0.99630084  0.37909117  0.49440217  1
  O  O343  1  1.00451393  0.38526533  0.99899445  1
  O  O344  1  0.99338745  0.88429587  0.50063335  1
  O  O345  1  0.99823134  0.88210384  0.99428170  1
  O  O346  1  0.49197387  0.49326792  0.37776665  1
  O  O347  1  0.49670209  0.49732787  0.87895529  1
  O  O348  1  0.49008991  0.99706526  0.38373816  1
  O  O349  1  0.49304090  1.00129948  0.88572509  1
  O  O350  1  0.99548275  0.49277864  0.38012913  1
  O  O351  1  1.00396834  0.49898652  0.88825307  1
  O  O352  1  0.98858274  0.99694811  0.38637528  1
  O  O353  1  0.99445791  0.99531709  0.87980510  1
  O  O354  1  0.00443092  0.00374565  0.12150744  1
  O  O355  1  0.00667124  -0.00815061  0.61795573  1
  O  O356  1  0.00692059  0.50415601  0.11680984  1
  O  O357  1  0.00719284  0.50206622  0.61761646  1
  O  O358  1  0.51050456  -0.00521811  0.11675374  1
  O  O359  1  0.49705779  0.00665969  0.61717295  1
  O  O360  1  0.50596556  0.50473674  0.11830131  1
  O  O361  1  0.50718698  0.50273527  0.61592087  1
  O  O362  1  0.24558725  0.37517276  0.24056724  1
  O  O363  1  0.24636571  0.38186842  0.74326322  1
  O  O364  1  0.24371187  0.88016816  0.24366824  1
  O  O365  1  0.24539705  0.88231753  0.74207991  1
  O  O366  1  0.74418689  0.37918839  0.24114840  1
  O  O367  1  0.74905694  0.37434354  0.73336827  1
  O  O368  1  0.74159304  0.87786579  0.24114351  1
  O  O369  1  0.75639838  0.88462780  0.74140444  1
  O  O370  1  0.25098264  0.11662579  0.25193917  1
  O  O371  1  0.25484809  0.12022277  0.75585423  1
  O  O372  1  0.26556174  0.62411715  0.24184312  1
  O  O373  1  0.25684373  0.62088969  0.75335286  1
  O  O374  1  0.76134568  0.12166165  0.25351079  1
  O  O375  1  0.75670418  0.11604667  0.75585528  1
  O  O376  1  0.75193200  0.61542759  0.25276885  1
  O  O377  1  0.75421774  0.62654985  0.74641234  1
  O  O378  1  0.37192257  0.11216881  0.37132179  1
  O  O379  1  0.36880224  0.12086465  0.87076188  1
  O  O380  1  0.38232854  0.61338146  0.36242173  1
  O  O381  1  0.37231243  0.62180095  0.86700204  1
  O  O382  1  0.87548974  0.11623534  0.36874984  1
  O  O383  1  0.86889036  0.11904055  0.86883544  1
  O  O384  1  0.87337878  0.61472323  0.37452779  1
  O  O385  1  0.86284867  0.61581790  0.90226585  1
  O  O386  1  0.13686890  0.37398579  0.13148397  1
  O  O387  1  0.13083283  0.38007638  0.62904174  1
  O  O388  1  0.13092662  0.87975957  0.13088849  1
  O  O389  1  0.13213801  0.88695938  0.62736024  1
  O  O390  1  0.63367153  0.38143010  0.12896934  1
  O  O391  1  0.63313239  0.38104897  0.62135162  1
  O  O392  1  0.63089923  0.88318462  0.13009915  1
  O  O393  1  0.63913065  0.87423700  0.62190487  1
  O  O394  1  0.11926000  0.25509375  0.25578349  1
  O  O395  1  0.11894270  0.25242803  0.75226050  1
  O  O396  1  0.11985510  0.75277237  0.25755570  1
  O  O397  1  0.11573315  0.75162584  0.75608488  1
  O  O398  1  0.61827492  0.25444290  0.25353410  1
  O  O399  1  0.62355823  0.25133947  0.75850275  1
  O  O400  1  0.61850196  0.75413380  0.25416226  1
  O  O401  1  0.62350442  0.74596424  0.76388239  1
  O  O402  1  0.38419927  0.25100243  0.24173974  1
  O  O403  1  0.37668545  0.24392884  0.74300927  1
  O  O404  1  0.37859295  0.74313672  0.24552851  1
  O  O405  1  0.37349857  0.73765221  0.74763082  1
  O  O406  1  0.88086300  0.23899210  0.25092018  1
  O  O407  1  0.88218675  0.24497038  0.74327899  1
  O  O408  1  0.88345591  0.75088084  0.24503745  1
  O  O409  1  0.88505942  0.75479412  0.73921409  1
  O  O410  1  0.37988243  0.49570017  0.49102546  1
  O  O411  1  0.38149605  0.49710936  0.99319817  1
  O  O412  1  0.38234467  1.00566192  0.49172375  1
  O  O413  1  0.38157702  0.99800958  0.99817281  1
  O  O414  1  0.88193822  0.49159040  0.49533586  1
  O  O415  1  0.89238605  0.49531268  1.00728341  1
  O  O416  1  0.88016881  0.99641562  0.49718094  1
  O  O417  1  0.88056068  0.99910621  0.99356364  1
  O  O418  1  0.11802928  0.00259874  0.00836369  1
  O  O419  1  0.11627871  0.00370474  0.50699819  1
  O  O420  1  0.12199547  0.51020884  0.00131169  1
  O  O421  1  0.12172604  0.50640519  0.50277820  1
  O  O422  1  0.61786948  0.00481513  0.00744382  1
  O  O423  1  0.61444020  0.00798271  0.50185304  1
  O  O424  1  0.62038968  0.50987054  0.00390263  1
  O  O425  1  0.62008445  0.50302953  0.50627149  1
  O  O426  1  0.36875914  0.36818284  0.11901325  1
  O  O427  1  0.37070862  0.37132018  0.61899576  1
  O  O428  1  0.36983023  0.87056397  0.11952571  1
  O  O429  1  0.35805517  0.87445109  0.62791961  1
  O  O430  1  0.86248867  0.37265485  0.12510426  1
  O  O431  1  0.86905700  0.36282616  0.61882673  1
  O  O432  1  0.86528472  0.86870210  0.12876627  1
  O  O433  1  0.86636953  0.86358839  0.62025332  1
  O  O434  1  0.12387657  0.12921895  0.38478913  1
  O  O435  1  0.13247342  0.13288816  0.87690457  1
  O  O436  1  0.11969920  0.63435361  0.38606561  1
  O  O437  1  0.13242063  0.63132285  0.88405942  1
  O  O438  1  0.62400524  0.12822072  0.38495836  1
  O  O439  1  0.63170202  0.13106680  0.88282575  1
  O  O440  1  0.62504028  0.63092380  0.38001060  1
  O  O441  1  0.62431452  0.63713454  0.88448601  1
