# generated using pymatgen
data_V93Zn93O256
_symmetry_space_group_name_H-M   'P 1'
_cell_length_a   17.05929044
_cell_length_b   17.05792741
_cell_length_c   17.05777844
_cell_angle_alpha   89.96504759
_cell_angle_beta   89.94879923
_cell_angle_gamma   90.02401685
_symmetry_Int_Tables_number   1
_chemical_formula_structural   V93Zn93O256
_chemical_formula_sum   'V93 Zn93 O256'
_cell_volume   4963.74430670
_cell_formula_units_Z   1
loop_
 _symmetry_equiv_pos_site_id
 _symmetry_equiv_pos_as_xyz
  1  'x, y, z'
loop_
 _atom_site_type_symbol
 _atom_site_label
 _atom_site_symmetry_multiplicity
 _atom_site_fract_x
 _atom_site_fract_y
 _atom_site_fract_z
 _atom_site_occupancy
  V  V0  1  0.00686759  0.25473400  0.25318189  1
  V  V1  1  0.25136284  0.12492668  0.87477554  1
  V  V2  1  0.12570903  0.87389334  0.24965563  1
  V  V3  1  0.12377632  0.62721340  0.50152054  1
  V  V4  1  0.87413532  0.24820529  0.12407143  1
  V  V5  1  -0.00096872  0.49872195  0.00109271  1
  V  V6  1  0.24991908  0.74892257  0.00140102  1
  V  V7  1  -0.00442814  0.62642134  0.63009122  1
  V  V8  1  0.37464748  0.50034727  0.87654238  1
  V  V9  1  0.62555780  0.74909401  0.37612803  1
  V  V10  1  0.87516772  0.00085954  0.87423760  1
  V  V11  1  0.12516489  0.49268085  0.13095312  1
  V  V12  1  0.74942728  0.12567178  0.87445154  1
  V  V13  1  0.00026935  0.12383334  0.12425755  1
  V  V14  1  0.24981304  -0.00014242  0.24986246  1
  V  V15  1  0.37799363  0.87325227  -0.00239898  1
  V  V16  1  0.50037635  0.37320513  0.87291580  1
  V  V17  1  -0.00520810  0.74940194  0.75128425  1
  V  V18  1  0.37469656  0.62370277  0.25127111  1
  V  V19  1  0.37595634  0.37307089  -0.00017984  1
  V  V20  1  0.50147888  0.49767361  0.00144346  1
  V  V21  1  0.87476942  0.74793417  0.12613256  1
  V  V22  1  0.50097465  0.62182791  0.12562739  1
  V  V23  1  0.49676293  0.37439059  0.37798981  1
  V  V24  1  0.62218544  0.37528897  0.74908847  1
  V  V25  1  0.12507263  0.62443693  0.00206266  1
  V  V26  1  0.24956720  0.62313462  0.87458101  1
  V  V27  1  0.24935620  0.75035629  0.50106172  1
  V  V28  1  0.87222347  0.74965547  0.62758391  1
  V  V29  1  0.61759918  0.87511479  0.75487063  1
  V  V30  1  0.50094732  0.12397817  0.12407179  1
  V  V31  1  0.87489315  0.87505199  0.49932897  1
  V  V32  1  0.37597561  0.87852933  0.49990551  1
  V  V33  1  0.50005429  0.74855376  0.25033062  1
  V  V34  1  0.49868598  0.87509303  0.37522020  1
  V  V35  1  0.37484548  0.49846250  0.37829220  1
  V  V36  1  0.37779237  -0.00446531  0.87291835  1
  V  V37  1  0.00030796  0.74905580  0.25130273  1
  V  V38  1  0.62124965  0.24968194  0.86939448  1
  V  V39  1  0.74924688  0.75036645  0.49974840  1
  V  V40  1  0.24909046  0.37324437  0.12958414  1
  V  V41  1  0.12562907  -0.00186283  0.12502027  1
  V  V42  1  0.62528279  0.37419867  0.24933220  1
  V  V43  1  0.12518691  0.49924881  0.62827419  1
  V  V44  1  0.24772866  0.49431566  0.25276874  1
  V  V45  1  0.87711119  0.25127823  0.62455840  1
  V  V46  1  0.00094264  -0.00180238  -0.00012694  1
  V  V47  1  0.50106693  0.24923584  0.25021300  1
  V  V48  1  0.49598720  0.49799718  0.50224937  1
  V  V49  1  0.25270313  0.25974499  0.50552183  1
  V  V50  1  0.25035250  0.62395929  0.37609389  1
  V  V51  1  0.12639814  0.12289113  -0.00081159  1
  V  V52  1  0.12341558  0.25264993  0.87362604  1
  V  V53  1  0.75295631  0.49832009  0.25623078  1
  V  V54  1  0.00005135  0.87493578  0.87501663  1
  V  V55  1  0.24877328  0.87520283  0.62571631  1
  V  V56  1  0.87512143  0.12709425  0.74874779  1
  V  V57  1  0.37759333  0.74860869  0.62863793  1
  V  V58  1  0.62482563  0.87383782  0.24934608  1
  V  V59  1  0.37557073  0.24873077  0.12422287  1
  V  V60  1  0.87500678  0.87388931  0.00007305  1
  V  V61  1  0.87210799  0.50639559  0.86848352  1
  V  V62  1  0.12519818  0.75078550  0.37485920  1
  V  V63  1  0.87437900  0.61973824  0.25799169  1
  V  V64  1  0.74904618  0.74472753  -0.00093850  1
  V  V65  1  0.75021719  -0.00161699  0.24929171  1
  V  V66  1  0.25070950  0.24889918  0.00092434  1
  V  V67  1  -0.00528162  0.50272427  0.49484956  1
  V  V68  1  0.75147819  0.24994875  0.49679619  1
  V  V69  1  0.74904018  -0.00016864  0.74958371  1
  V  V70  1  0.75115455  0.37690225  0.62419975  1
  V  V71  1  0.62268686  0.00191949  0.62346383  1
  V  V72  1  0.87524175  -0.00121064  0.37477872  1
  V  V73  1  0.50084088  -0.00376791  -0.00342934  1
  V  V74  1  0.87405894  0.37404872  -0.00175585  1
  V  V75  1  0.74946800  0.87403197  0.12577379  1
  V  V76  1  0.24682069  0.12623585  0.37603720  1
  V  V77  1  0.25054753  -0.00063656  0.74961985  1
  V  V78  1  0.00023478  0.62311976  0.12673013  1
  V  V79  1  0.87696636  0.38173640  0.49125350  1
  V  V80  1  0.62531027  0.49837297  0.12537120  1
  V  V81  1  0.37518205  0.12302462  0.24964562  1
  V  V82  1  0.37486762  0.74857460  0.12524472  1
  V  V83  1  -0.00031640  0.00123837  0.49919352  1
  V  V84  1  0.12351985  0.87577168  0.75072792  1
  V  V85  1  0.74922005  0.12459702  0.37388303  1
  V  V86  1  0.62561207  0.50189634  0.62529130  1
  V  V87  1  0.62446257  0.12438378  -0.00268514  1
  V  V88  1  -0.00025302  0.12623652  0.62377114  1
  V  V89  1  0.62419423  0.62615760  0.50064830  1
  V  V90  1  0.61771238  0.75266109  0.87644403  1
  V  V91  1  0.38092398  0.13673804  0.74391001  1
  V  V92  1  0.12363629  0.00162698  0.62359339  1
  Zn  Zn93  1  0.25085777  0.49879589  0.74978455  1
  Zn  Zn94  1  0.37805890  0.62524226  0.75242848  1
  Zn  Zn95  1  0.12421095  0.37581619  0.74964866  1
  Zn  Zn96  1  0.50106789  0.00412986  0.49826057  1
  Zn  Zn97  1  0.50095003  0.62618889  0.63007799  1
  Zn  Zn98  1  0.62574972  -0.00081227  0.12360754  1
  Zn  Zn99  1  0.62439171  0.24882160  0.37331326  1
  Zn  Zn100  1  0.75112594  0.62983797  0.86170835  1
  Zn  Zn101  1  0.75214645  0.62167118  0.37797550  1
  Zn  Zn102  1  0.50071325  0.13464141  0.62208947  1
  Zn  Zn103  1  0.00112332  0.87680165  0.37446029  1
  Zn  Zn104  1  0.62608060  0.62144663  -0.00307080  1
  Zn  Zn105  1  0.74812669  0.87544632  0.62583241  1
  Zn  Zn106  1  -0.00154182  0.37495156  0.87047254  1
  Zn  Zn107  1  0.74885370  0.24922894  0.00010452  1
  Zn  Zn108  1  0.37597907  0.00010617  0.37387652  1
  Zn  Zn109  1  0.40300337  0.28585193  0.60087684  1
  Zn  Zn110  1  0.12328619  0.12940640  0.49768352  1
  Zn  Zn111  1  0.87546546  0.12323973  0.24818529  1
  Zn  Zn112  1  0.25334242  0.37836300  0.62844317  1
  Zn  Zn113  1  0.13183235  0.26591849  0.37113556  1
  Zn  Zn114  1  0.00158995  0.25186041  0.74798949  1
  Zn  Zn115  1  0.75363312  0.50727777  0.74486227  1
  Zn  Zn116  1  0.25062553  0.87409967  0.12541390  1
  Zn  Zn117  1  0.62055023  0.12622524  0.50058459  1
  Zn  Zn118  1  0.74934535  0.37316368  0.12592383  1
  Zn  Zn119  1  0.49747156  0.75096289  0.75656618  1
  Zn  Zn120  1  0.12360248  0.74905773  0.87628356  1
  Zn  Zn121  1  0.00280797  0.38811690  0.36518875  1
  Zn  Zn122  1  0.18720248  0.18517843  0.18698066  1
  Zn  Zn123  1  0.18949336  0.18520498  0.68766096  1
  Zn  Zn124  1  0.18828408  0.68417367  0.18802391  1
  Zn  Zn125  1  0.18497083  0.68811799  0.68981795  1
  Zn  Zn126  1  0.68690596  0.18561428  0.18655190  1
  Zn  Zn127  1  0.68786001  0.18854670  0.68611033  1
  Zn  Zn128  1  0.68770680  0.68418992  0.18771891  1
  Zn  Zn129  1  0.68715050  0.68568874  0.69102754  1
  Zn  Zn130  1  0.31473911  0.31099132  0.31402909  1
  Zn  Zn131  1  0.30803907  0.31728520  0.80976002  1
  Zn  Zn132  1  0.31158692  0.81233602  0.31284790  1
  Zn  Zn133  1  0.31053387  0.81137841  0.81424261  1
  Zn  Zn134  1  0.81697215  0.31223140  0.31012409  1
  Zn  Zn135  1  0.80868463  0.31488826  0.81122757  1
  Zn  Zn136  1  0.81268031  0.81099545  0.31371525  1
  Zn  Zn137  1  0.80802625  0.81523026  0.81276936  1
  Zn  Zn138  1  0.18018893  0.43774527  0.43764685  1
  Zn  Zn139  1  0.18774407  0.43663773  0.94207443  1
  Zn  Zn140  1  0.18714590  0.93935551  0.43660330  1
  Zn  Zn141  1  0.18993312  0.93510851  0.93688561  1
  Zn  Zn142  1  0.68362243  0.43690666  0.43730055  1
  Zn  Zn143  1  0.69018801  0.43583467  0.93793175  1
  Zn  Zn144  1  0.68769097  0.93584119  0.43811676  1
  Zn  Zn145  1  0.68826760  0.93509493  0.93651383  1
  Zn  Zn146  1  0.31275569  0.06090769  0.06314935  1
  Zn  Zn147  1  0.30950301  0.06651333  0.56227724  1
  Zn  Zn148  1  0.31226697  0.56062010  0.06308239  1
  Zn  Zn149  1  0.31280963  0.56254234  0.56313626  1
  Zn  Zn150  1  0.81153395  0.06170022  0.06114215  1
  Zn  Zn151  1  0.81138114  0.06227776  0.56278677  1
  Zn  Zn152  1  0.81282354  0.55984238  0.06648013  1
  Zn  Zn153  1  0.81120850  0.56532513  0.56365235  1
  Zn  Zn154  1  0.43583546  0.43580532  0.18999477  1
  Zn  Zn155  1  0.43671996  0.44099434  0.69160212  1
  Zn  Zn156  1  0.43716340  0.93673924  0.18506534  1
  Zn  Zn157  1  0.43953824  0.93971631  0.68629667  1
  Zn  Zn158  1  0.93482378  0.43583878  0.18547453  1
  Zn  Zn159  1  0.94168288  0.43282299  0.68558000  1
  Zn  Zn160  1  0.93745726  0.93551076  0.18834562  1
  Zn  Zn161  1  0.93650625  0.93767115  0.68616352  1
  Zn  Zn162  1  0.06194880  0.06519871  0.31056330  1
  Zn  Zn163  1  0.06198966  0.06488257  0.81084229  1
  Zn  Zn164  1  0.06491344  0.56461795  0.31231074  1
  Zn  Zn165  1  0.05961600  0.56303731  0.81450639  1
  Zn  Zn166  1  0.56331520  0.05972359  0.31304028  1
  Zn  Zn167  1  0.56050344  0.06221443  0.81019139  1
  Zn  Zn168  1  0.56474151  0.56137149  0.31394803  1
  Zn  Zn169  1  0.56403372  0.56588842  0.81258024  1
  Zn  Zn170  1  0.43508002  0.18600509  0.43803741  1
  Zn  Zn171  1  0.43860165  0.18504608  0.93432062  1
  Zn  Zn172  1  0.43827329  0.68681385  0.43996743  1
  Zn  Zn173  1  0.43812107  0.68424141  0.94039741  1
  Zn  Zn174  1  0.93506548  0.18664256  0.43664935  1
  Zn  Zn175  1  0.93908642  0.18621765  0.93726235  1
  Zn  Zn176  1  0.93818444  0.68914993  0.43906174  1
  Zn  Zn177  1  0.93789433  0.68607480  0.93918116  1
  Zn  Zn178  1  0.06072537  0.31158802  0.06097462  1
  Zn  Zn179  1  0.06569535  0.31347328  0.55620929  1
  Zn  Zn180  1  0.06313186  0.81094673  0.06446228  1
  Zn  Zn181  1  0.06075857  0.81523493  0.56231948  1
  Zn  Zn182  1  0.56401977  0.31083001  0.06096609  1
  Zn  Zn183  1  0.56866392  0.31359090  0.56071705  1
  Zn  Zn184  1  0.56265981  0.81144909  0.06308785  1
  Zn  Zn185  1  0.56250510  0.81595543  0.56463574  1
  O  O186  1  0.12024177  0.11779864  0.11789323  1
  O  O187  1  0.11794398  0.11745225  0.62477006  1
  O  O188  1  0.12007837  0.61453651  0.12122174  1
  O  O189  1  0.11399817  0.62264764  0.62054846  1
  O  O190  1  0.61850840  0.12216734  0.11646841  1
  O  O191  1  0.62547908  0.11440627  0.62479381  1
  O  O192  1  0.61776576  0.61707055  0.12370220  1
  O  O193  1  0.62306187  0.61993520  0.61716892  1
  O  O194  1  0.38983172  0.38204181  0.36889329  1
  O  O195  1  0.38000475  0.37893164  0.88086208  1
  O  O196  1  0.37897561  0.87361907  0.38514360  1
  O  O197  1  0.36909080  0.88479551  0.88489418  1
  O  O198  1  0.88191177  0.37139429  0.38769165  1
  O  O199  1  0.87526989  0.38154691  0.88492203  1
  O  O200  1  0.87705911  0.88079530  0.38110587  1
  O  O201  1  0.88017877  0.88131775  0.88041889  1
  O  O202  1  0.25222465  0.00863759  0.36866341  1
  O  O203  1  0.25886911  0.00460861  0.87086583  1
  O  O204  1  0.25470190  0.50513487  0.37332384  1
  O  O205  1  0.25469837  0.50959819  0.88028903  1
  O  O206  1  0.75474811  0.00637372  0.37037237  1
  O  O207  1  0.75613944  0.00526757  0.87012306  1
  O  O208  1  0.74304642  0.50177341  0.36063597  1
  O  O209  1  0.76483318  0.50039743  0.87706368  1
  O  O210  1  0.24285155  0.49427777  0.13069289  1
  O  O211  1  0.23516281  0.50688375  0.62552872  1
  O  O212  1  0.24292365  0.99931154  0.13129166  1
  O  O213  1  0.24379708  0.99412908  0.63012879  1
  O  O214  1  0.74359469  0.49730647  0.13638672  1
  O  O215  1  0.74329101  0.49317570  0.62215892  1
  O  O216  1  0.74928418  0.99203992  0.12998413  1
  O  O217  1  0.74147498  0.99955901  0.63203149  1
  O  O218  1  -0.00885966  0.35870587  0.24894964  1
  O  O219  1  0.00744395  0.36857665  0.75314753  1
  O  O220  1  0.00703933  0.86662870  0.25121677  1
  O  O221  1  0.00389881  0.86923398  0.75522568  1
  O  O222  1  0.50525191  0.36935765  0.25706685  1
  O  O223  1  0.51425795  0.38110282  0.75747960  1
  O  O224  1  0.50395811  0.86784033  0.25375454  1
  O  O225  1  0.51343410  0.87377167  0.74806408  1
  O  O226  1  0.49624719  0.12884336  0.24482495  1
  O  O227  1  0.48303739  0.12130443  0.75025878  1
  O  O228  1  0.49433010  0.62898487  0.24620385  1
  O  O229  1  0.49624270  0.63192435  0.74759887  1
  O  O230  1  0.99650096  0.13374713  0.24108323  1
  O  O231  1  0.99222709  0.12756368  0.74251949  1
  O  O232  1  0.99290253  0.62839930  0.24568435  1
  O  O233  1  1.00386570  0.63725967  0.74060292  1
  O  O234  1  0.37068895  0.25272287  0.00418731  1
  O  O235  1  0.35785436  0.24574554  0.50010507  1
  O  O236  1  0.37159442  0.75659341  0.00456855  1
  O  O237  1  0.36927273  0.75876177  0.50760031  1
  O  O238  1  0.87661254  0.25623505  0.00724947  1
  O  O239  1  0.86789690  0.25907334  0.50367641  1
  O  O240  1  0.86834653  0.75414069  0.00564794  1
  O  O241  1  0.87084050  0.75498826  0.50819697  1
  O  O242  1  0.13580088  0.24643297  0.49212193  1
  O  O243  1  0.13065078  0.24213765  0.99464144  1
  O  O244  1  0.12959854  0.74697360  0.49628470  1
  O  O245  1  0.13063483  0.74237461  1.00066649  1
  O  O246  1  0.64251682  0.25080715  0.49465249  1
  O  O247  1  0.62720614  0.24328733  0.98950609  1
  O  O248  1  0.62921060  0.74692211  0.49635800  1
  O  O249  1  0.63416653  0.75130438  0.99392954  1
  O  O250  1  0.49477707  0.24364525  0.12935769  1
  O  O251  1  0.50356397  0.24804047  0.62097167  1
  O  O252  1  0.49456960  0.74271587  0.13058077  1
  O  O253  1  0.48676133  0.75095457  0.62490152  1
  O  O254  1  0.99341663  0.24454295  0.13132859  1
  O  O255  1  0.99439954  0.24401761  0.62216123  1
  O  O256  1  0.99470167  0.74281674  0.13115992  1
  O  O257  1  0.99274813  0.74549197  0.63140767  1
  O  O258  1  -0.00213073  0.24366795  0.35715441  1
  O  O259  1  0.01231648  0.24898527  0.87496044  1
  O  O260  1  0.00802880  0.75050674  0.36907843  1
  O  O261  1  -0.00165688  0.75488434  0.86679821  1
  O  O262  1  0.50008794  0.25835788  0.36971902  1
  O  O263  1  0.51311347  0.25579776  0.87965418  1
  O  O264  1  0.50473175  0.75484861  0.36950746  1
  O  O265  1  0.51357277  0.74763531  0.87972620  1
  O  O266  1  0.24778290  0.13173605  0.49007903  1
  O  O267  1  0.24628686  0.12892585  0.99482176  1
  O  O268  1  0.24389997  0.63142800  0.49498659  1
  O  O269  1  0.24545156  0.62896524  0.99413960  1
  O  O270  1  0.75222730  0.13481357  0.49100036  1
  O  O271  1  0.74243229  0.12361810  0.99152479  1
  O  O272  1  0.74338972  0.63196801  0.49777541  1
  O  O273  1  0.75043491  0.63825837  1.00378681  1
  O  O274  1  0.25746937  0.36795600  0.00803847  1
  O  O275  1  0.24603937  0.36163546  0.49800252  1
  O  O276  1  0.26052345  0.86880167  0.00219843  1
  O  O277  1  0.25664037  0.86988858  0.50530938  1
  O  O278  1  0.76183733  0.37135096  0.00385452  1
  O  O279  1  0.75732421  0.36962648  0.50132315  1
  O  O280  1  0.75611397  0.86587902  0.00517962  1
  O  O281  1  0.75706519  0.86756451  0.50245515  1
  O  O282  1  0.13058067  0.50539897  0.23811886  1
  O  O283  1  0.12215334  0.50342854  0.73833585  1
  O  O284  1  0.12935725  0.99436465  0.24408131  1
  O  O285  1  0.13029273  0.99548231  0.74489883  1
  O  O286  1  0.63174980  0.49424099  0.24454976  1
  O  O287  1  0.62683996  0.49087037  0.74434065  1
  O  O288  1  0.63194320  0.99144794  0.24753209  1
  O  O289  1  0.62897745  0.99404964  0.74542564  1
  O  O290  1  0.36837461  0.00541474  0.24875950  1
  O  O291  1  0.36987733  0.00109507  0.75883489  1
  O  O292  1  0.36929761  0.50576931  0.25744138  1
  O  O293  1  0.37138168  0.50561821  0.76294889  1
  O  O294  1  0.86827813  0.00018374  0.25561042  1
  O  O295  1  0.87009941  0.00564108  0.75499769  1
  O  O296  1  0.86635187  0.50850872  0.24363512  1
  O  O297  1  0.87786078  0.49181474  0.76675198  1
  O  O298  1  0.11443143  0.37726464  0.37240291  1
  O  O299  1  0.12339148  0.36274843  0.88083840  1
  O  O300  1  0.12464083  0.86812009  0.36812669  1
  O  O301  1  0.11808495  0.87323445  0.86934789  1
  O  O302  1  0.61340895  0.37363244  0.36732098  1
  O  O303  1  0.62223635  0.36849991  0.86857224  1
  O  O304  1  0.61906080  0.86862029  0.36912422  1
  O  O305  1  0.63094173  0.86548746  0.86644616  1
  O  O306  1  0.38094205  0.12984230  0.12884585  1
  O  O307  1  0.37352017  0.12140999  0.64082164  1
  O  O308  1  0.38056401  0.62823612  0.13149218  1
  O  O309  1  0.37354817  0.63842308  0.62681296  1
  O  O310  1  0.88145882  0.13293667  0.12140800  1
  O  O311  1  0.87942136  0.13103569  0.62924612  1
  O  O312  1  0.88128025  0.62912278  0.13443622  1
  O  O313  1  0.88575564  0.63759042  0.61944159  1
  O  O314  1  0.25566139  0.25274222  0.12027264  1
  O  O315  1  0.24355744  0.25068110  0.60937923  1
  O  O316  1  0.25766750  0.74801225  0.11932600  1
  O  O317  1  0.25575256  0.75564865  0.62129769  1
  O  O318  1  0.76205235  0.24908069  0.12297144  1
  O  O319  1  0.75593791  0.25566634  0.61455693  1
  O  O320  1  0.75447214  0.75435446  0.11845588  1
  O  O321  1  0.75987943  0.75068336  0.61978818  1
  O  O322  1  0.25066674  0.24260199  0.38130349  1
  O  O323  1  0.24289853  0.24464445  0.88265295  1
  O  O324  1  0.24483173  0.74352103  0.38085990  1
  O  O325  1  0.24752336  0.74029622  0.88286576  1
  O  O326  1  0.75342282  0.24153303  0.38027617  1
  O  O327  1  0.73974304  0.24377797  0.87686315  1
  O  O328  1  0.74256804  0.74837733  0.38180247  1
  O  O329  1  0.74522239  0.75000445  0.88606587  1
  O  O330  1  0.00649187  0.11684676  0.00424113  1
  O  O331  1  0.00004357  0.11906039  0.50566057  1
  O  O332  1  0.00448850  0.61930416  0.00814411  1
  O  O333  1  0.00313614  0.62183991  0.51041228  1
  O  O334  1  0.50394265  0.11562872  0.00383545  1
  O  O335  1  0.50291819  0.12073078  0.50117415  1
  O  O336  1  0.50130134  0.61518383  0.00870766  1
  O  O337  1  0.50647201  0.61538252  0.50159700  1
  O  O338  1  0.50884637  0.38677091  0.48914552  1
  O  O339  1  0.49473718  0.37847037  0.99423140  1
  O  O340  1  0.48965713  0.87571621  0.49442605  1
  O  O341  1  0.48924413  0.88393822  1.00580144  1
  O  O342  1  0.99071075  0.38768062  0.50267945  1
  O  O343  1  0.98909594  0.38018437  0.99898458  1
  O  O344  1  0.99325448  0.88254416  0.49766171  1
  O  O345  1  0.99464601  0.87832507  0.99534152  1
  O  O346  1  0.49588730  0.49380009  0.38177227  1
  O  O347  1  0.49526195  0.49354301  0.88261743  1
  O  O348  1  0.49613914  0.99032909  0.37668004  1
  O  O349  1  0.48894693  1.00506738  0.88610069  1
  O  O350  1  1.00239313  0.50811235  0.39127568  1
  O  O351  1  0.98897008  0.49873748  0.88281940  1
  O  O352  1  0.99330530  1.00123824  0.38033308  1
  O  O353  1  0.99503829  0.99531964  0.88026582  1
  O  O354  1  0.00510736  0.00310694  0.11913283  1
  O  O355  1  0.00367463  0.00576658  0.61924758  1
  O  O356  1  0.00729723  0.50306269  0.12207368  1
  O  O357  1  0.00402043  0.51084661  0.61935281  1
  O  O358  1  0.50042565  0.00530859  0.11292703  1
  O  O359  1  0.51211102  0.00348712  0.62348912  1
  O  O360  1  0.50474822  0.50234491  0.12161548  1
  O  O361  1  0.50681024  0.50062328  0.61545979  1
  O  O362  1  0.25864741  0.38174526  0.24203276  1
  O  O363  1  0.23949706  0.38201360  0.74798234  1
  O  O364  1  0.24404488  0.88057018  0.24824181  1
  O  O365  1  0.24334139  0.87975419  0.74572840  1
  O  O366  1  0.74585038  0.38169248  0.24944426  1
  O  O367  1  0.74085366  0.38119435  0.74281507  1
  O  O368  1  0.74481910  0.87786659  0.24501273  1
  O  O369  1  0.73993616  0.88293626  0.74811475  1
  O  O370  1  0.25536303  0.12059796  0.25588365  1
  O  O371  1  0.26027050  0.11744817  0.75537424  1
  O  O372  1  0.25540008  0.61683446  0.25698483  1
  O  O373  1  0.24906015  0.62522801  0.76517549  1
  O  O374  1  0.75143190  0.11834586  0.25792617  1
  O  O375  1  0.75582139  0.11965269  0.75548217  1
  O  O376  1  0.75848716  0.61683862  0.25091294  1
  O  O377  1  0.75454607  0.62012358  0.74943872  1
  O  O378  1  0.36428870  0.12252806  0.36710827  1
  O  O379  1  0.37043073  0.11540132  0.86688637  1
  O  O380  1  0.36945318  0.62023917  0.37068949  1
  O  O381  1  0.36415276  0.61975946  0.87943664  1
  O  O382  1  0.86316307  0.11808167  0.37318710  1
  O  O383  1  0.87027759  0.11996801  0.86987428  1
  O  O384  1  0.87382580  0.63065919  0.36155427  1
  O  O385  1  0.87441484  0.60895310  0.88218309  1
  O  O386  1  0.13150200  0.38594795  0.11696361  1
  O  O387  1  0.12571604  0.39021777  0.62196184  1
  O  O388  1  0.12736244  0.88044285  0.13111208  1
  O  O389  1  0.12912216  0.88099007  0.63086577  1
  O  O390  1  0.62607079  0.37953625  0.13153521  1
  O  O391  1  0.63173178  0.38117976  0.63192076  1
  O  O392  1  0.63122741  0.87537905  0.13148700  1
  O  O393  1  0.62747873  0.88381950  0.63436673  1
  O  O394  1  0.10984161  0.24685200  0.24651110  1
  O  O395  1  0.12731403  0.24696596  0.76405814  1
  O  O396  1  0.12057383  0.75248513  0.25454690  1
  O  O397  1  0.11178975  0.75748117  0.75083168  1
  O  O398  1  0.61860362  0.25534244  0.25049783  1
  O  O399  1  0.63309822  0.26161176  0.75926185  1
  O  O400  1  0.61936880  0.75384260  0.25485479  1
  O  O401  1  0.62536627  0.75914399  0.75919066  1
  O  O402  1  0.38178923  0.24276075  0.24300512  1
  O  O403  1  0.36872826  0.23555792  0.75412969  1
  O  O404  1  0.37991817  0.74358421  0.24565675  1
  O  O405  1  0.37572076  0.75199502  0.74106384  1
  O  O406  1  0.88288932  0.24608985  0.23767118  1
  O  O407  1  0.87356570  0.24479021  0.74244004  1
  O  O408  1  0.87955663  0.74162956  0.24453538  1
  O  O409  1  0.88501411  0.75996267  0.74074020  1
  O  O410  1  0.38794695  0.50792025  0.49394573  1
  O  O411  1  0.38077928  0.49192490  0.99699882  1
  O  O412  1  0.37280187  0.98618713  0.50162110  1
  O  O413  1  0.38051116  0.99346197  0.99306484  1
  O  O414  1  0.88319308  0.49319621  0.50759493  1
  O  O415  1  0.87931901  0.49133118  0.99636108  1
  O  O416  1  0.87913999  0.99464352  0.49513517  1
  O  O417  1  0.88121792  0.99377534  0.99440102  1
  O  O418  1  0.12066190  0.00312385  0.00396781  1
  O  O419  1  0.11832446  0.00192063  0.50634526  1
  O  O420  1  0.11956792  0.50517538  0.01029607  1
  O  O421  1  0.11458109  0.50919674  0.50976258  1
  O  O422  1  0.61510221  0.00346005  -0.00288096  1
  O  O423  1  0.62633940  0.00003182  0.51150604  1
  O  O424  1  0.61967148  0.49819875  0.00660652  1
  O  O425  1  0.61682300  0.50573765  0.50470408  1
  O  O426  1  0.37088402  0.36750302  0.11929552  1
  O  O427  1  0.36604054  0.38468414  0.62777394  1
  O  O428  1  0.37296186  0.86758863  0.11518657  1
  O  O429  1  0.36909296  0.86881562  0.61867059  1
  O  O430  1  0.87450947  0.36475504  0.11509339  1
  O  O431  1  0.86984056  0.37042583  0.61516735  1
  O  O432  1  0.87019547  0.86740340  0.11962861  1
  O  O433  1  0.87427827  0.86506948  0.61863871  1
  O  O434  1  0.13872009  0.12769047  0.37201576  1
  O  O435  1  0.13138685  0.13032434  0.88026172  1
  O  O436  1  0.13138831  0.63110399  0.38162371  1
  O  O437  1  0.13205975  0.62493981  0.88380011  1
  O  O438  1  0.63851605  0.12579816  0.37660313  1
  O  O439  1  0.62833740  0.13207633  0.87596034  1
  O  O440  1  0.62567785  0.63245564  0.38217161  1
  O  O441  1  0.63107750  0.63617467  0.87928719  1
