# generated using pymatgen
data_V93Zn93O256
_symmetry_space_group_name_H-M   'P 1'
_cell_length_a   17.05137334
_cell_length_b   17.05054473
_cell_length_c   17.04902027
_cell_angle_alpha   90.03600602
_cell_angle_beta   89.98348587
_cell_angle_gamma   90.01210674
_symmetry_Int_Tables_number   1
_chemical_formula_structural   V93Zn93O256
_chemical_formula_sum   'V93 Zn93 O256'
_cell_volume   4956.74908809
_cell_formula_units_Z   1
loop_
 _symmetry_equiv_pos_site_id
 _symmetry_equiv_pos_as_xyz
  1  'x, y, z'
loop_
 _atom_site_type_symbol
 _atom_site_label
 _atom_site_symmetry_multiplicity
 _atom_site_fract_x
 _atom_site_fract_y
 _atom_site_fract_z
 _atom_site_occupancy
  V  V0  1  0.37481780  0.49995480  0.37437023  1
  V  V1  1  0.25145677  0.24834236  -0.00386250  1
  V  V2  1  0.87574443  0.24918981  0.12562607  1
  V  V3  1  0.12455242  0.12324997  0.50070297  1
  V  V4  1  0.62562933  0.24980154  0.87418331  1
  V  V5  1  0.12432267  0.62553140  0.49927561  1
  V  V6  1  0.62555913  0.24693905  0.37492860  1
  V  V7  1  0.49946697  0.49806947  0.49906919  1
  V  V8  1  0.00026119  0.37492687  0.87582419  1
  V  V9  1  0.36658066  0.00115646  0.36608042  1
  V  V10  1  0.75401401  0.75024454  0.00517664  1
  V  V11  1  0.25010282  0.37406775  0.62358204  1
  V  V12  1  0.50158727  -0.00096156  -0.00130068  1
  V  V13  1  0.62659448  0.12456941  0.00099611  1
  V  V14  1  -0.00181658  -0.00126091  0.50243510  1
  V  V15  1  0.86758284  0.00407776  0.37711359  1
  V  V16  1  0.00019923  0.87441828  0.87529845  1
  V  V17  1  0.24953804  0.87486136  0.62520171  1
  V  V18  1  0.12248536  0.62679178  0.00261297  1
  V  V19  1  0.12762629  0.12010207  0.00281742  1
  V  V20  1  0.49898967  0.37397076  0.37454549  1
  V  V21  1  0.87701711  0.63003074  0.23811787  1
  V  V22  1  -0.00183852  0.87345633  0.37443587  1
  V  V23  1  0.24807485  0.75016916  0.49916195  1
  V  V24  1  0.25069572  0.50052756  0.74988242  1
  V  V25  1  0.62499557  0.37447434  0.25056111  1
  V  V26  1  0.25186963  0.24827226  0.49890972  1
  V  V27  1  0.75134077  0.24916531  -0.00001573  1
  V  V28  1  0.12862180  0.24470328  0.87522705  1
  V  V29  1  0.75179305  0.87398647  0.12606978  1
  V  V30  1  0.12323767  0.50336146  0.12555276  1
  V  V31  1  0.62463365  0.74994055  0.37452221  1
  V  V32  1  0.87649624  0.37491641  0.00003356  1
  V  V33  1  0.62544102  0.62358612  0.49878668  1
  V  V34  1  0.62608626  0.62569162  0.00008387  1
  V  V35  1  0.87459271  0.74911822  0.62450877  1
  V  V36  1  0.50215248  0.25098410  0.75030044  1
  V  V37  1  0.49981313  0.62629336  0.12455354  1
  V  V38  1  0.49981792  0.87490166  0.37412579  1
  V  V39  1  0.49938035  0.62563831  0.62482243  1
  V  V40  1  0.50540780  0.87513586  0.86755725  1
  V  V41  1  0.74264102  -0.00496252  0.75084914  1
  V  V42  1  0.24935071  0.00368879  0.75244573  1
  V  V43  1  0.12269290  0.25353203  0.37492119  1
  V  V44  1  0.87052565  0.12469158  0.25236982  1
  V  V45  1  0.87537773  0.12478193  0.75110141  1
  V  V46  1  0.75013141  0.24424564  0.49621015  1
  V  V47  1  0.49998208  0.12432635  0.62427085  1
  V  V48  1  0.12542598  0.50069607  0.62531680  1
  V  V49  1  0.74300245  0.87293566  0.63025838  1
  V  V50  1  -0.00445032  0.74752636  0.23556769  1
  V  V51  1  0.37148014  0.12623671  0.75161153  1
  V  V52  1  0.75148331  0.62458269  0.87508233  1
  V  V53  1  0.87639159  0.87276459  0.00626996  1
  V  V54  1  0.37469930  0.00049988  0.87352692  1
  V  V55  1  0.37500792  0.75103081  0.12435444  1
  V  V56  1  0.62790394  0.12221048  0.49551533  1
  V  V57  1  0.49784554  0.24792362  0.24840977  1
  V  V58  1  0.00291329  0.11826376  0.12653528  1
  V  V59  1  0.50030844  0.50006017  -0.00124594  1
  V  V60  1  -0.00039043  0.49890917  0.49952118  1
  V  V61  1  0.75060663  0.74978737  0.50086147  1
  V  V62  1  0.25058162  0.62563405  0.87460182  1
  V  V63  1  0.75134152  0.12417926  0.87560124  1
  V  V64  1  0.00004932  0.62562764  0.62511035  1
  V  V65  1  0.25107141  0.37842992  0.12328140  1
  V  V66  1  0.37685053  0.49981427  0.87524921  1
  V  V67  1  0.62486031  0.49995573  0.12482347  1
  V  V68  1  0.75139302  0.62463748  0.37432659  1
  V  V69  1  0.62526287  0.87427323  0.25025955  1
  V  V70  1  0.12331331  0.74931700  0.37426480  1
  V  V71  1  0.62605222  0.75401554  0.86848439  1
  V  V72  1  -0.00015161  0.50355432  0.00248426  1
  V  V73  1  0.87462638  -0.00110996  0.87659258  1
  V  V74  1  0.37253764  0.62553064  0.25037280  1
  V  V75  1  0.12497015  0.37433632  0.74990737  1
  V  V76  1  -0.00183250  0.25182344  0.25080702  1
  V  V77  1  0.49728923  -0.00042459  0.49918574  1
  V  V78  1  0.75133681  0.50108691  0.25113479  1
  V  V79  1  0.87493169  0.24809783  0.62502810  1
  V  V80  1  0.49963620  0.12560327  0.12570848  1
  V  V81  1  -0.00044915  0.24878819  0.74978744  1
  V  V82  1  0.37542592  0.75003384  0.62519339  1
  V  V83  1  0.74893835  0.00259064  0.25359914  1
  V  V84  1  0.62678283  0.49775071  0.62750154  1
  V  V85  1  0.12583455  0.88042277  0.24656676  1
  V  V86  1  0.25084746  0.75075349  -0.00051613  1
  V  V87  1  0.62500421  -0.00083196  0.12590899  1
  V  V88  1  0.24776104  0.88163535  0.12686225  1
  V  V89  1  0.87464578  0.37505548  0.49912055  1
  V  V90  1  0.75026118  0.37421496  0.12558208  1
  V  V91  1  0.12437124  0.87517221  0.75110567  1
  V  V92  1  0.87592329  0.62297134  0.75140871  1
  Zn  Zn93  1  0.37523591  0.87462187  -0.00029817  1
  Zn  Zn94  1  -0.00133488  0.37782624  0.37247411  1
  Zn  Zn95  1  0.12665519  0.74982851  0.87467677  1
  Zn  Zn96  1  0.87425391  0.49930954  0.87510972  1
  Zn  Zn97  1  0.62814892  0.37501513  0.75092976  1
  Zn  Zn98  1  0.50011118  0.75065923  0.24948268  1
  Zn  Zn99  1  0.24515264  0.12209904  0.36378040  1
  Zn  Zn100  1  0.18525423  0.04428060  0.18726258  1
  Zn  Zn101  1  0.87734346  0.50189445  0.37303275  1
  Zn  Zn102  1  0.37598857  0.25047608  0.12364506  1
  Zn  Zn103  1  0.36411042  0.12451676  0.24270989  1
  Zn  Zn104  1  0.00529025  -0.00289591  0.00487558  1
  Zn  Zn105  1  0.00123221  0.74995530  0.74947917  1
  Zn  Zn106  1  0.87325433  0.87479333  0.50126918  1
  Zn  Zn107  1  0.37547632  0.25106158  0.62419516  1
  Zn  Zn108  1  0.12185025  0.37954685  0.25018399  1
  Zn  Zn109  1  0.74853470  0.37304032  0.62684017  1
  Zn  Zn110  1  0.24741025  0.49916621  0.25234737  1
  Zn  Zn111  1  0.62092172  -0.00561578  0.62856561  1
  Zn  Zn112  1  0.37685920  0.62623850  0.74986727  1
  Zn  Zn113  1  0.12406114  -0.00001444  0.62585721  1
  Zn  Zn114  1  0.24858073  0.62385624  0.37450845  1
  Zn  Zn115  1  0.75012348  0.49599904  0.75266821  1
  Zn  Zn116  1  0.37204591  0.87588001  0.49803353  1
  Zn  Zn117  1  -0.00032038  0.12259275  0.62797964  1
  Zn  Zn118  1  0.37835660  0.37296531  -0.00078599  1
  Zn  Zn119  1  0.37492425  0.37362183  0.49927271  1
  Zn  Zn120  1  0.50264686  0.37580808  0.87534797  1
  Zn  Zn121  1  0.50529797  0.75338174  0.74553574  1
  Zn  Zn122  1  0.18714431  0.20344754  0.18596901  1
  Zn  Zn123  1  0.18654293  0.18689064  0.68478198  1
  Zn  Zn124  1  0.18676082  0.69222335  0.18711685  1
  Zn  Zn125  1  0.18858815  0.68808969  0.68813006  1
  Zn  Zn126  1  0.68706523  0.18648389  0.18841418  1
  Zn  Zn127  1  0.68780020  0.18338267  0.68379602  1
  Zn  Zn128  1  0.68859895  0.68727714  0.18851481  1
  Zn  Zn129  1  0.68958445  0.68319962  0.68729480  1
  Zn  Zn130  1  0.31190406  0.31313221  0.30971169  1
  Zn  Zn131  1  0.31358790  0.31480370  0.81259007  1
  Zn  Zn132  1  0.31044844  0.81333049  0.31126316  1
  Zn  Zn133  1  0.31394346  0.81421564  0.81245008  1
  Zn  Zn134  1  0.81150380  0.31168462  0.31444772  1
  Zn  Zn135  1  0.81205129  0.31402410  0.81177834  1
  Zn  Zn136  1  0.81429719  0.81263422  0.31326592  1
  Zn  Zn137  1  0.81349927  0.81083208  0.81348194  1
  Zn  Zn138  1  0.18895876  0.43812450  0.43783380  1
  Zn  Zn139  1  0.18819100  0.43671978  0.93731799  1
  Zn  Zn140  1  0.18504161  0.93403270  0.43595874  1
  Zn  Zn141  1  0.19026654  0.93768073  0.93774596  1
  Zn  Zn142  1  0.68861961  0.43532292  0.43800311  1
  Zn  Zn143  1  0.68772892  0.43663889  0.93562088  1
  Zn  Zn144  1  0.68704422  0.93428297  0.44041952  1
  Zn  Zn145  1  0.68821086  0.93626875  0.93808322  1
  Zn  Zn146  1  0.31655507  0.06540744  0.05679156  1
  Zn  Zn147  1  0.31236469  0.06306817  0.56347344  1
  Zn  Zn148  1  0.31198947  0.56387501  0.06132867  1
  Zn  Zn149  1  0.31238833  0.56327205  0.56068828  1
  Zn  Zn150  1  0.81444885  0.06008610  0.06515202  1
  Zn  Zn151  1  0.81114846  0.06131824  0.56654077  1
  Zn  Zn152  1  0.81206589  0.56151915  0.06241498  1
  Zn  Zn153  1  0.81214983  0.56189901  0.56275774  1
  Zn  Zn154  1  0.43670884  0.43795279  0.18732347  1
  Zn  Zn155  1  0.43647723  0.43608438  0.68580885  1
  Zn  Zn156  1  0.43751801  0.93608485  0.18669837  1
  Zn  Zn157  1  0.43621845  0.93617801  0.68658573  1
  Zn  Zn158  1  0.93700179  0.43990990  0.18796143  1
  Zn  Zn159  1  0.93745322  0.43626141  0.68559685  1
  Zn  Zn160  1  0.93713188  0.93638217  0.19153391  1
  Zn  Zn161  1  0.93240488  0.93639884  0.68797944  1
  Zn  Zn162  1  0.05407871  0.06490270  0.31856480  1
  Zn  Zn163  1  0.06182818  0.06194669  0.81695858  1
  Zn  Zn164  1  0.05811940  0.56571788  0.31218373  1
  Zn  Zn165  1  0.06275136  0.56212152  0.81464129  1
  Zn  Zn166  1  0.55888112  0.06186215  0.31237889  1
  Zn  Zn167  1  0.56160749  0.06540232  0.81357167  1
  Zn  Zn168  1  0.56114624  0.56255510  0.31158200  1
  Zn  Zn169  1  0.56176960  0.56741592  0.81058365  1
  Zn  Zn170  1  0.43714250  0.18370625  0.43280035  1
  Zn  Zn171  1  0.43789431  0.18591867  0.93685014  1
  Zn  Zn172  1  0.43738385  0.68709572  0.43821177  1
  Zn  Zn173  1  0.43840747  0.68846530  0.93727830  1
  Zn  Zn174  1  0.93801450  0.18605037  0.43762094  1
  Zn  Zn175  1  0.94078068  0.18669084  0.93875862  1
  Zn  Zn176  1  0.93644186  0.68692747  0.43335890  1
  Zn  Zn177  1  0.93829556  0.68907552  0.93796432  1
  Zn  Zn178  1  0.06334326  0.31276195  0.06321310  1
  Zn  Zn179  1  0.06080272  0.31244891  0.56336217  1
  Zn  Zn180  1  0.06599066  0.81404062  0.06256520  1
  Zn  Zn181  1  0.06168932  0.81267563  0.56350317  1
  Zn  Zn182  1  0.56243867  0.31309571  0.06149885  1
  Zn  Zn183  1  0.56204489  0.31177839  0.56272214  1
  Zn  Zn184  1  0.56275022  0.81279025  0.05879583  1
  Zn  Zn185  1  0.56250179  0.81229695  0.55978332  1
  O  O186  1  0.11870404  0.12568404  0.12071922  1
  O  O187  1  0.12146536  0.12131781  0.61340932  1
  O  O188  1  0.13328736  0.61620793  0.11232892  1
  O  O189  1  0.11976992  0.62030521  0.62035508  1
  O  O190  1  0.62040880  0.11835835  0.11947222  1
  O  O191  1  0.61810057  0.12033505  0.61222692  1
  O  O192  1  0.62067945  0.61951870  0.12014295  1
  O  O193  1  0.61987352  0.61782610  0.61854112  1
  O  O194  1  0.38131038  0.38140865  0.37501914  1
  O  O195  1  0.37760217  0.38852750  0.87618432  1
  O  O196  1  0.37916541  0.88558422  0.37611220  1
  O  O197  1  0.38470546  0.88504642  0.87519962  1
  O  O198  1  0.87565368  0.37590218  0.38823158  1
  O  O199  1  0.88218340  0.37599103  0.88240769  1
  O  O200  1  0.88031374  0.88586990  0.37792698  1
  O  O201  1  0.88227394  0.87855638  0.88365346  1
  O  O202  1  0.26365444  -0.00069911  0.38090896  1
  O  O203  1  0.26228528  -0.00713801  0.86297079  1
  O  O204  1  0.25720366  0.50271930  0.37207108  1
  O  O205  1  0.25757966  0.50445859  0.87064760  1
  O  O206  1  0.76038080  -0.00683869  0.37148138  1
  O  O207  1  0.75431217  0.00374688  0.86921435  1
  O  O208  1  0.74967802  0.50594797  0.36818446  1
  O  O209  1  0.75346105  0.50918369  0.87488301  1
  O  O210  1  0.24064401  0.49335561  0.12259295  1
  O  O211  1  0.24441534  0.49497897  0.62922272  1
  O  O212  1  0.25562711  0.98748061  0.11867186  1
  O  O213  1  0.24961262  0.99395598  0.63606158  1
  O  O214  1  0.74388436  0.49338549  0.13011442  1
  O  O215  1  0.73687301  0.50013226  0.62515937  1
  O  O216  1  0.74383056  0.99336455  0.13150448  1
  O  O217  1  0.74864186  0.99023675  0.63384289  1
  O  O218  1  0.00091522  0.36776907  0.25167001  1
  O  O219  1  0.00559321  0.36923647  0.75488125  1
  O  O220  1  0.00546692  0.86728930  0.25416647  1
  O  O221  1  0.00692375  0.87672538  0.75806587  1
  O  O222  1  0.50618536  0.36934352  0.25404186  1
  O  O223  1  0.50051244  0.36037741  0.75043690  1
  O  O224  1  0.50782103  0.87341191  0.25587609  1
  O  O225  1  0.49841222  0.87430375  0.76264984  1
  O  O226  1  0.50075787  0.13130413  0.24198052  1
  O  O227  1  0.49242298  0.13138573  0.74469018  1
  O  O228  1  0.48987051  0.62643099  0.24330607  1
  O  O229  1  0.49688819  0.63188050  0.74030955  1
  O  O230  1  0.99331799  0.13124404  0.24351699  1
  O  O231  1  0.99396963  0.12996269  0.75122621  1
  O  O232  1  0.98911948  0.63591409  0.25428385  1
  O  O233  1  0.99345348  0.62633738  0.74530786  1
  O  O234  1  0.36441338  0.25062789  -0.00179959  1
  O  O235  1  0.36205644  0.24632289  0.49863346  1
  O  O236  1  0.36838634  0.75066551  0.00633130  1
  O  O237  1  0.36878300  0.75163830  0.50938806  1
  O  O238  1  0.87088249  0.25454840  0.00547736  1
  O  O239  1  0.86856475  0.25345193  0.50323696  1
  O  O240  1  0.86501838  0.76069178  -0.00602826  1
  O  O241  1  0.86803506  0.74956864  0.50651203  1
  O  O242  1  0.12985674  0.24256079  0.49415627  1
  O  O243  1  0.13107656  0.24346573  0.99372332  1
  O  O244  1  0.12816846  0.74525395  0.49519890  1
  O  O245  1  0.13050201  0.74113677  0.99895109  1
  O  O246  1  0.63104450  0.24179797  0.49620526  1
  O  O247  1  0.63202477  0.24389608  0.99538664  1
  O  O248  1  0.63068782  0.74299422  0.49429323  1
  O  O249  1  0.63446905  0.74522521  0.99125544  1
  O  O250  1  0.50043246  0.24397690  0.12978134  1
  O  O251  1  0.49817919  0.24318092  0.63353468  1
  O  O252  1  0.49441021  0.74424175  0.12430048  1
  O  O253  1  0.49193384  0.74653748  0.62314042  1
  O  O254  1  0.99555808  0.24142563  0.13019141  1
  O  O255  1  0.99396560  0.24702343  0.63229934  1
  O  O256  1  1.00262769  0.75419313  0.13669169  1
  O  O257  1  0.99321300  0.74354075  0.62661979  1
  O  O258  1  0.00829447  0.25036131  0.37065729  1
  O  O259  1  0.00852443  0.25558752  0.87027330  1
  O  O260  1  0.00570927  0.75696853  0.37040804  1
  O  O261  1  0.00251339  0.76404848  0.87331338  1
  O  O262  1  0.50548733  0.25426313  0.36917655  1
  O  O263  1  0.50650726  0.24784187  0.86567591  1
  O  O264  1  0.50662235  0.75690041  0.37554919  1
  O  O265  1  0.50857518  0.75799736  0.87500375  1
  O  O266  1  0.23952471  0.13137917  0.49910178  1
  O  O267  1  0.24016348  0.13810834  1.00802632  1
  O  O268  1  0.24149468  0.63220621  0.49917792  1
  O  O269  1  0.24176715  0.63018467  0.99417069  1
  O  O270  1  0.73946341  0.13169665  0.50513526  1
  O  O271  1  0.74686329  0.12920439  0.99609210  1
  O  O272  1  0.74462963  0.62993921  0.49490413  1
  O  O273  1  0.74719234  0.63306421  0.99623009  1
  O  O274  1  0.25022099  0.36710619  0.00680171  1
  O  O275  1  0.24929293  0.36328652  0.50483933  1
  O  O276  1  0.25039483  0.86918360  0.00835821  1
  O  O277  1  0.24860393  0.86839383  0.50767288  1
  O  O278  1  0.75596829  0.36912813  0.00570585  1
  O  O279  1  0.75803155  0.36487689  0.50302869  1
  O  O280  1  0.75777086  0.86871085  0.00460527  1
  O  O281  1  0.75148766  0.86812104  0.51100539  1
  O  O282  1  0.12410542  0.50254122  0.23761129  1
  O  O283  1  0.13009974  0.49405632  0.74524880  1
  O  O284  1  0.11621474  0.98656342  0.25707310  1
  O  O285  1  0.13309616  0.99404121  0.75199660  1
  O  O286  1  0.63022869  0.49452087  0.24434873  1
  O  O287  1  0.62437287  0.50044859  0.73879407  1
  O  O288  1  0.62922107  0.99437147  0.24613495  1
  O  O289  1  0.63883274  1.00762978  0.74917966  1
  O  O290  1  0.37808457  0.00033419  0.26341540  1
  O  O291  1  0.36920239  0.00642839  0.75463592  1
  O  O292  1  0.37412814  0.51014231  0.25480991  1
  O  O293  1  0.36968435  0.50125427  0.75825545  1
  O  O294  1  0.86948589  0.00380507  0.25925499  1
  O  O295  1  0.86573399  0.00509622  0.75693284  1
  O  O296  1  0.86918628  0.50885437  0.25113985  1
  O  O297  1  0.87609005  0.51187130  0.75075225  1
  O  O298  1  0.12258214  0.36356659  0.37569842  1
  O  O299  1  0.12008494  0.36647249  0.86974057  1
  O  O300  1  0.11877328  0.86907043  0.36596818  1
  O  O301  1  0.11721405  0.87660441  0.86798598  1
  O  O302  1  0.61930542  0.36834348  0.36941967  1
  O  O303  1  0.62306648  0.36568643  0.87156122  1
  O  O304  1  0.62015810  0.86987313  0.36991657  1
  O  O305  1  0.61749491  0.86559678  0.88163615  1
  O  O306  1  0.38470343  0.12713883  0.12489556  1
  O  O307  1  0.38074530  0.12627698  0.63589022  1
  O  O308  1  0.37930193  0.62972828  0.13158980  1
  O  O309  1  0.38041355  0.63422794  0.62406440  1
  O  O310  1  0.88281393  0.13081123  0.13028207  1
  O  O311  1  0.87655833  0.13043927  0.63299722  1
  O  O312  1  0.86814954  0.62419843  0.13878600  1
  O  O313  1  0.87983551  0.62880580  0.63256057  1
  O  O314  1  0.25027699  0.26275488  0.11290671  1
  O  O315  1  0.24927330  0.25462631  0.61454880  1
  O  O316  1  0.25526879  0.75928011  0.11879119  1
  O  O317  1  0.25670472  0.75463238  0.61969456  1
  O  O318  1  0.75538272  0.25480217  0.11964224  1
  O  O319  1  0.75538292  0.24926629  0.61316311  1
  O  O320  1  0.74235376  0.75664178  0.11160301  1
  O  O321  1  0.75395585  0.75472461  0.62145761  1
  O  O322  1  0.24004216  0.24808440  0.38247596  1
  O  O323  1  0.23930848  0.25812604  0.88401623  1
  O  O324  1  0.24213214  0.74948119  0.38137467  1
  O  O325  1  0.25036683  0.74508146  0.88101402  1
  O  O326  1  0.74285248  0.25315454  0.38838946  1
  O  O327  1  0.74641138  0.24314845  0.88092960  1
  O  O328  1  0.74392812  0.74562779  0.38101352  1
  O  O329  1  0.74407554  0.74687155  0.88484348  1
  O  O330  1  0.00956889  0.12568710  0.01040516  1
  O  O331  1  0.00811124  0.11571030  0.50083114  1
  O  O332  1  0.01030375  0.61611769  -0.00695594  1
  O  O333  1  0.00443488  0.61946277  0.50586224  1
  O  O334  1  0.50738845  0.11894762  0.00434241  1
  O  O335  1  0.50558617  0.11741332  0.50405509  1
  O  O336  1  0.50678277  0.62023103  0.00516144  1
  O  O337  1  0.50660808  0.61838700  0.50457952  1
  O  O338  1  0.49828125  0.37915575  0.49225421  1
  O  O339  1  0.49851736  0.38357432  0.99698527  1
  O  O340  1  0.49925213  0.88555377  0.49383377  1
  O  O341  1  0.49797092  0.88212853  0.98925351  1
  O  O342  1  0.99032318  0.37931645  0.50001694  1
  O  O343  1  0.99625051  0.38180088  0.99580287  1
  O  O344  1  0.99916927  0.88454061  0.49502790  1
  O  O345  1  0.99414643  0.87611838  0.99435555  1
  O  O346  1  0.49576423  0.49373919  0.37948905  1
  O  O347  1  0.49241470  0.50221397  0.87922858  1
  O  O348  1  0.49002397  0.99552130  0.38224221  1
  O  O349  1  0.49566385  0.99347268  0.87771451  1
  O  O350  1  0.99826705  0.49730986  0.38411512  1
  O  O351  1  1.00066039  0.49317505  0.88670861  1
  O  O352  1  0.98976623  0.99386226  0.38489622  1
  O  O353  1  0.99399134  0.98893154  0.87835334  1
  O  O354  1  -0.00549284  0.01470468  0.12544684  1
  O  O355  1  -0.00055705  -0.00042194  0.61404105  1
  O  O356  1  0.01068195  0.49380488  0.11217060  1
  O  O357  1  0.00675030  0.50535271  0.61974028  1
  O  O358  1  0.50598176  0.00365493  0.11880111  1
  O  O359  1  0.50002707  0.00309454  0.61573088  1
  O  O360  1  0.50595727  0.50602659  0.11945591  1
  O  O361  1  0.50669398  0.50473413  0.61941529  1
  O  O362  1  0.24460062  0.37660317  0.23687007  1
  O  O363  1  0.24394361  0.37987979  0.74421366  1
  O  O364  1  0.23778745  0.86990378  0.23995748  1
  O  O365  1  0.24248813  0.88334921  0.74625457  1
  O  O366  1  0.74509495  0.37960540  0.24508277  1
  O  O367  1  0.74738927  0.37821171  0.74456132  1
  O  O368  1  0.74494967  0.88085843  0.24519050  1
  O  O369  1  0.75631929  0.88422953  0.74383658  1
  O  O370  1  0.24525453  0.12429572  0.24605509  1
  O  O371  1  0.25916183  0.11587683  0.74381295  1
  O  O372  1  0.26194210  0.62484596  0.24940085  1
  O  O373  1  0.25085444  0.61775401  0.75604577  1
  O  O374  1  0.75772644  0.11577571  0.24357086  1
  O  O375  1  0.75624403  0.11722891  0.75598973  1
  O  O376  1  0.75609859  0.62101042  0.25498047  1
  O  O377  1  0.76110022  0.62268985  0.75603875  1
  O  O378  1  0.37142565  0.11120094  0.37050755  1
  O  O379  1  0.38278944  0.11186621  0.86267502  1
  O  O380  1  0.37521640  0.62014311  0.36552172  1
  O  O381  1  0.36991014  0.61585785  0.87353848  1
  O  O382  1  0.88163192  0.11211145  0.36839719  1
  O  O383  1  0.87054019  0.11974100  0.87222372  1
  O  O384  1  0.86639586  0.62277757  0.36691050  1
  O  O385  1  0.87137136  0.62526438  0.86685484  1
  O  O386  1  0.13320198  0.38564663  0.12293670  1
  O  O387  1  0.12964294  0.38033840  0.63052377  1
  O  O388  1  0.13431066  0.87346691  0.13419820  1
  O  O389  1  0.12921864  0.87771112  0.63569313  1
  O  O390  1  0.63105420  0.37994869  0.13075383  1
  O  O391  1  0.62448459  0.38600224  0.62571890  1
  O  O392  1  0.63043479  0.88047610  0.12943737  1
  O  O393  1  0.63803353  0.87397365  0.62322737  1
  O  O394  1  0.11677255  0.25319525  0.26065255  1
  O  O395  1  0.12144231  0.25329580  0.75686333  1
  O  O396  1  0.11568795  0.75717136  0.25434184  1
  O  O397  1  0.12447382  0.76301485  0.75269011  1
  O  O398  1  0.62059116  0.25509663  0.25516716  1
  O  O399  1  0.61581201  0.24481988  0.75415339  1
  O  O400  1  0.62426946  0.75620576  0.25672103  1
  O  O401  1  0.62762596  0.74429219  0.76511396  1
  O  O402  1  0.38241763  0.24631082  0.24666309  1
  O  O403  1  0.38193899  0.24070122  0.75241140  1
  O  O404  1  0.37679674  0.74158004  0.24441374  1
  O  O405  1  0.37504701  0.74982831  0.73542692  1
  O  O406  1  0.87773496  0.24492732  0.24549995  1
  O  O407  1  0.88031697  0.24439063  0.74585958  1
  O  O408  1  0.88355542  0.74304181  0.25511905  1
  O  O409  1  0.87644442  0.73868311  0.74490051  1
  O  O410  1  0.38187135  0.49929522  0.49259290  1
  O  O411  1  0.38087048  0.50170450  0.98995474  1
  O  O412  1  0.38425307  1.00087921  0.49182019  1
  O  O413  1  0.38189856  1.00064858  0.98688722  1
  O  O414  1  0.87973042  0.49026615  0.50113163  1
  O  O415  1  0.88498068  0.49488474  1.00116373  1
  O  O416  1  0.88167788  1.00134048  0.49411107  1
  O  O417  1  0.87559372  0.98917758  0.99413295  1
  O  O418  1  0.12568628  0.01566424  -0.00711182  1
  O  O419  1  0.11568056  0.00708516  0.49771230  1
  O  O420  1  0.11922932  0.50711376  0.00521495  1
  O  O421  1  0.12042222  0.50498081  0.50653669  1
  O  O422  1  0.62202840  0.00520068  0.00564604  1
  O  O423  1  0.61430066  0.00636147  0.49848482  1
  O  O424  1  0.62134154  0.50606585  0.00536707  1
  O  O425  1  0.61966991  0.50408450  0.50677115  1
  O  O426  1  0.36369782  0.37610672  0.12091083  1
  O  O427  1  0.36635987  0.37099725  0.62065963  1
  O  O428  1  0.36627832  0.86945466  0.12420500  1
  O  O429  1  0.36886343  0.86647825  0.62225549  1
  O  O430  1  0.86972788  0.36889291  0.11995195  1
  O  O431  1  0.87438584  0.36749831  0.61409935  1
  O  O432  1  0.86944665  0.88191490  0.11347189  1
  O  O433  1  0.86393073  0.86724044  0.62408167  1
  O  O434  1  0.12404027  0.13373965  0.38442150  1
  O  O435  1  0.11877020  0.13812393  0.88507453  1
  O  O436  1  0.12558953  0.63160069  0.38156011  1
  O  O437  1  0.13164622  0.62576729  0.88519096  1
  O  O438  1  0.61689803  0.12993062  0.38820761  1
  O  O439  1  0.63189425  0.12964344  0.88217215  1
  O  O440  1  0.63015605  0.62957997  0.37927324  1
  O  O441  1  0.63066002  0.63336365  0.88180847  1
