# generated using pymatgen
data_V93Zn93O256
_symmetry_space_group_name_H-M   'P 1'
_cell_length_a   17.05026820
_cell_length_b   17.04689824
_cell_length_c   17.04405951
_cell_angle_alpha   90.05186279
_cell_angle_beta   90.01364822
_cell_angle_gamma   90.02962138
_symmetry_Int_Tables_number   1
_chemical_formula_structural   V93Zn93O256
_chemical_formula_sum   'V93 Zn93 O256'
_cell_volume   4953.92442744
_cell_formula_units_Z   1
loop_
 _symmetry_equiv_pos_site_id
 _symmetry_equiv_pos_as_xyz
  1  'x, y, z'
loop_
 _atom_site_type_symbol
 _atom_site_label
 _atom_site_symmetry_multiplicity
 _atom_site_fract_x
 _atom_site_fract_y
 _atom_site_fract_z
 _atom_site_occupancy
  V  V0  1  0.49922142  0.74887426  0.24884260  1
  V  V1  1  0.74991168  0.87405302  0.12460342  1
  V  V2  1  0.00368011  0.74613718  0.74766160  1
  V  V3  1  0.37754945  0.62282807  0.74605300  1
  V  V4  1  0.50491666  0.61834269  0.11269824  1
  V  V5  1  0.50135718  0.74562831  0.74529579  1
  V  V6  1  0.62657875  -0.00031376  0.62564043  1
  V  V7  1  0.37490026  0.00142151  0.37492648  1
  V  V8  1  0.87325300  0.75006904  0.12440971  1
  V  V9  1  0.37549001  0.24879821  0.12564805  1
  V  V10  1  0.25035353  0.00046507  0.25126434  1
  V  V11  1  0.50030118  0.87560064  0.37507024  1
  V  V12  1  0.74946934  0.12848992  0.37877658  1
  V  V13  1  0.25029132  0.62840469  0.88135659  1
  V  V14  1  0.25113432  0.87515792  0.62449873  1
  V  V15  1  0.87094694  0.24902595  0.62251829  1
  V  V16  1  0.25104865  0.25149943  0.50097914  1
  V  V17  1  0.87667093  -0.00088020  0.87452107  1
  V  V18  1  0.12495614  -0.00028847  0.12553567  1
  V  V19  1  0.62611456  0.37402401  0.74809596  1
  V  V20  1  0.87457264  0.12576045  0.25103938  1
  V  V21  1  0.50077088  0.00102992  0.50066506  1
  V  V22  1  0.50132031  -0.00095627  0.00078465  1
  V  V23  1  0.74554167  0.62542824  0.87795537  1
  V  V24  1  -0.00064519  0.75013659  0.24998476  1
  V  V25  1  0.37023454  0.87251865  -0.00070972  1
  V  V26  1  0.25109440  0.12569908  0.37487747  1
  V  V27  1  0.12486297  0.25106205  0.37528207  1
  V  V28  1  0.75196415  0.49999148  0.74964553  1
  V  V29  1  0.12113991  0.62632786  0.50366791  1
  V  V30  1  0.75019924  0.87384021  0.62597320  1
  V  V31  1  0.62306839  0.50317143  0.62594512  1
  V  V32  1  0.62241077  0.38100151  0.24940381  1
  V  V33  1  -0.00007852  0.87549631  0.37440931  1
  V  V34  1  0.12444439  0.87387769  0.24984449  1
  V  V35  1  0.62507503  0.87322755  0.75071479  1
  V  V36  1  0.24907810  0.74911639  0.49930699  1
  V  V37  1  0.37631127  0.50050579  0.88008544  1
  V  V38  1  -0.00025733  -0.00084707  0.49945355  1
  V  V39  1  0.74988392  0.37319676  0.62325355  1
  V  V40  1  0.62641300  0.24772463  0.87422600  1
  V  V41  1  0.87338777  0.25158242  0.12582860  1
  V  V42  1  0.75230719  0.12350572  0.87478287  1
  V  V43  1  0.24978208  0.87257080  0.12303450  1
  V  V44  1  0.12323041  0.37651168  0.25039621  1
  V  V45  1  0.74694639  0.37805596  0.12412329  1
  V  V46  1  0.25001313  0.50054381  0.25152917  1
  V  V47  1  -0.00023100  0.25082735  0.25011300  1
  V  V48  1  0.62844176  0.25299914  0.37955877  1
  V  V49  1  0.86930062  0.37191276  0.49950705  1
  V  V50  1  0.12939161  0.74944011  0.88230942  1
  V  V51  1  0.37352896  0.37548942  0.00033814  1
  V  V52  1  -0.00039917  -0.00092004  -0.00040369  1
  V  V53  1  0.62508251  0.87588201  0.25075572  1
  V  V54  1  0.50028158  0.87406130  0.87520271  1
  V  V55  1  0.00108052  0.87370763  0.87467923  1
  V  V56  1  0.12366441  0.49909312  0.62697674  1
  V  V57  1  0.74325196  0.74655732  -0.00019435  1
  V  V58  1  0.87431131  0.62471104  0.24979401  1
  V  V59  1  0.12312880  0.50151514  0.12276160  1
  V  V60  1  0.75098022  0.24961919  0.00061636  1
  V  V61  1  0.62389084  0.75026125  0.37554341  1
  V  V62  1  0.62518184  0.12366524  0.00098705  1
  V  V63  1  0.87493957  0.00034310  0.37563289  1
  V  V64  1  0.49796400  0.50506794  0.50751010  1
  V  V65  1  0.50298236  0.12663607  0.62646705  1
  V  V66  1  0.00247689  0.37441699  0.87465971  1
  V  V67  1  0.50062983  0.25333761  0.75409939  1
  V  V68  1  0.37429039  0.37608509  0.50223153  1
  V  V69  1  0.74804010  0.62243454  0.37385030  1
  V  V70  1  -0.00092943  0.12453024  0.62497554  1
  V  V71  1  0.37724496  0.12478549  0.75132227  1
  V  V72  1  -0.00005725  0.12566427  0.12526970  1
  V  V73  1  0.37658190  0.74665730  0.62481321  1
  V  V74  1  0.62210232  0.62491774  0.50428856  1
  V  V75  1  0.62898629  0.12979217  0.50055834  1
  V  V76  1  0.12463916  0.12595270  0.49999956  1
  V  V77  1  0.25255005  0.00099418  0.75080427  1
  V  V78  1  0.51541711  0.39216788  0.89454579  1
  V  V79  1  0.87937896  0.74676530  0.62458149  1
  V  V80  1  0.37630178  0.25119492  0.62508290  1
  V  V81  1  0.87751125  0.62436463  0.74901742  1
  V  V82  1  0.12731532  0.12714756  -0.00277924  1
  V  V83  1  0.37126204  0.74863923  0.12230389  1
  V  V84  1  0.12583306  -0.00050659  0.62469544  1
  V  V85  1  0.87621871  0.12330724  0.74931804  1
  V  V86  1  0.37460696  0.50102379  0.37583077  1
  V  V87  1  -0.00273852  0.37568459  0.37612259  1
  V  V88  1  0.74981902  0.74975550  0.50115171  1
  V  V89  1  0.74975441  0.00077296  0.25050555  1
  V  V90  1  0.37534324  0.87398002  0.49963317  1
  V  V91  1  -0.00346768  0.50453465  0.50483139  1
  V  V92  1  0.62517946  0.00114680  0.12532375  1
  Zn  Zn93  1  0.37582167  0.62460405  0.24875083  1
  Zn  Zn94  1  0.87254040  0.49890151  0.37368060  1
  Zn  Zn95  1  0.12537464  0.74845796  0.37445728  1
  Zn  Zn96  1  0.00278593  0.24953076  0.74957983  1
  Zn  Zn97  1  -0.00160219  0.50368017  -0.00064405  1
  Zn  Zn98  1  0.37734036  0.12689664  0.24975096  1
  Zn  Zn99  1  0.12862216  0.37016944  0.74855703  1
  Zn  Zn100  1  0.24928451  0.49803231  0.74925147  1
  Zn  Zn101  1  0.75087408  -0.00286187  0.75120637  1
  Zn  Zn102  1  0.87775984  0.50038818  0.87897742  1
  Zn  Zn103  1  0.24870307  0.37404155  0.12319030  1
  Zn  Zn104  1  0.24927788  0.37411691  0.62966389  1
  Zn  Zn105  1  0.12570903  0.62757771  0.00258342  1
  Zn  Zn106  1  0.24966832  0.24910447  -0.00187986  1
  Zn  Zn107  1  0.25346519  0.12774590  0.87565121  1
  Zn  Zn108  1  0.50049066  0.37518713  0.37452087  1
  Zn  Zn109  1  0.00034654  0.62622371  0.12082670  1
  Zn  Zn110  1  0.87713082  0.37719019  0.00007687  1
  Zn  Zn111  1  0.37550971  0.00151694  0.87729473  1
  Zn  Zn112  1  0.62169423  0.74590301  0.87922835  1
  Zn  Zn113  1  0.12974869  0.24936014  0.86953802  1
  Zn  Zn114  1  0.87448484  0.87390562  -0.00096072  1
  Zn  Zn115  1  0.12776508  0.87289268  0.74956178  1
  Zn  Zn116  1  0.74402970  0.50575870  0.23934994  1
  Zn  Zn117  1  0.49945680  0.24927204  0.25140788  1
  Zn  Zn118  1  0.87551913  0.87384257  0.49993788  1
  Zn  Zn119  1  0.24869965  0.62760466  0.37499554  1
  Zn  Zn120  1  0.49957786  0.12531583  0.12705345  1
  Zn  Zn121  1  0.61599006  0.50086390  0.08244145  1
  Zn  Zn122  1  0.19050982  0.18850504  0.18595446  1
  Zn  Zn123  1  0.18817294  0.18777944  0.68791207  1
  Zn  Zn124  1  0.18816977  0.68627214  0.18824783  1
  Zn  Zn125  1  0.19029594  0.68307678  0.68825189  1
  Zn  Zn126  1  0.68545157  0.19038462  0.19094722  1
  Zn  Zn127  1  0.69007632  0.18652883  0.68882276  1
  Zn  Zn128  1  0.68264355  0.68603131  0.18407261  1
  Zn  Zn129  1  0.68932087  0.68681013  0.68858581  1
  Zn  Zn130  1  0.31224118  0.31520380  0.31228012  1
  Zn  Zn131  1  0.31116887  0.31282143  0.81411529  1
  Zn  Zn132  1  0.31176511  0.81247833  0.31129521  1
  Zn  Zn133  1  0.31326471  0.81213938  0.81220919  1
  Zn  Zn134  1  0.80860283  0.31376087  0.31085463  1
  Zn  Zn135  1  0.81669822  0.31107714  0.81103277  1
  Zn  Zn136  1  0.81244620  0.81224508  0.31293505  1
  Zn  Zn137  1  0.81317083  0.81147804  0.81378539  1
  Zn  Zn138  1  0.18671689  0.43779202  0.43987218  1
  Zn  Zn139  1  0.18939629  0.43839681  0.93563704  1
  Zn  Zn140  1  0.18670010  0.93667053  0.43700971  1
  Zn  Zn141  1  0.18668240  0.93796832  0.93582732  1
  Zn  Zn142  1  0.68526166  0.43913001  0.43797772  1
  Zn  Zn143  1  0.69583150  0.43830300  0.93453652  1
  Zn  Zn144  1  0.68867641  0.93904612  0.43956738  1
  Zn  Zn145  1  0.68842993  0.93468796  0.93704036  1
  Zn  Zn146  1  0.31295524  0.06084955  0.06369087  1
  Zn  Zn147  1  0.31382028  0.06456591  0.56295020  1
  Zn  Zn148  1  0.31308479  0.56236119  0.06377912  1
  Zn  Zn149  1  0.30702335  0.56311561  0.56358479  1
  Zn  Zn150  1  0.81317318  0.06235580  0.06192931  1
  Zn  Zn151  1  0.81132278  0.06118756  0.56150353  1
  Zn  Zn152  1  0.81301215  0.56104383  0.06024384  1
  Zn  Zn153  1  0.81020654  0.56216876  0.56371300  1
  Zn  Zn154  1  0.43870623  0.43621106  0.18668186  1
  Zn  Zn155  1  0.43895388  0.43563825  0.69203460  1
  Zn  Zn156  1  0.43757377  0.93814125  0.18734055  1
  Zn  Zn157  1  0.43861516  0.93561796  0.68712728  1
  Zn  Zn158  1  0.93578249  0.43997905  0.18759570  1
  Zn  Zn159  1  0.93997832  0.43647948  0.68881601  1
  Zn  Zn160  1  0.93677708  0.93731579  0.18747132  1
  Zn  Zn161  1  0.93849072  0.93418181  0.68863557  1
  Zn  Zn162  1  0.06313080  0.06280906  0.31263763  1
  Zn  Zn163  1  0.06328201  0.06179854  0.81123940  1
  Zn  Zn164  1  0.06096900  0.56286096  0.31645849  1
  Zn  Zn165  1  0.06242410  0.56276768  0.81406950  1
  Zn  Zn166  1  0.56119482  0.06625003  0.31180953  1
  Zn  Zn167  1  0.56280432  0.06017445  0.81352167  1
  Zn  Zn168  1  0.55765049  0.56366129  0.31137932  1
  Zn  Zn169  1  0.56433619  0.56253644  0.81314224  1
  Zn  Zn170  1  0.44127889  0.18898775  0.43684065  1
  Zn  Zn171  1  0.43929640  0.18953198  0.93808029  1
  Zn  Zn172  1  0.43656974  0.68573216  0.43699139  1
  Zn  Zn173  1  0.43653024  0.68929893  0.93532005  1
  Zn  Zn174  1  0.93692680  0.18813635  0.43839980  1
  Zn  Zn175  1  0.93889483  0.18967391  0.93788626  1
  Zn  Zn176  1  0.93763686  0.68812168  0.43592584  1
  Zn  Zn177  1  0.93731983  0.68684865  0.93873299  1
  Zn  Zn178  1  0.06249001  0.31445593  0.06124316  1
  Zn  Zn179  1  0.05935822  0.31423507  0.56293876  1
  Zn  Zn180  1  0.06004987  0.81243137  0.06316050  1
  Zn  Zn181  1  0.06285886  0.81343823  0.56277620  1
  Zn  Zn182  1  0.56357846  0.31054636  0.06456599  1
  Zn  Zn183  1  0.56022781  0.31554232  0.56099643  1
  Zn  Zn184  1  0.55995613  0.81166443  0.06392510  1
  Zn  Zn185  1  0.56259257  0.81248401  0.56384803  1
  O  O186  1  0.11939095  0.11918877  0.11926370  1
  O  O187  1  0.11934898  0.11901322  0.61810717  1
  O  O188  1  0.12491664  0.61551084  0.12415430  1
  O  O189  1  0.12880138  0.61612154  0.61191329  1
  O  O190  1  0.62697955  0.11890313  0.11853453  1
  O  O191  1  0.62168176  0.12073417  0.62104053  1
  O  O192  1  0.61042497  0.61972368  0.12412467  1
  O  O193  1  0.63440497  0.61576810  0.61680093  1
  O  O194  1  0.37521210  0.38617829  0.38256714  1
  O  O195  1  0.38727283  0.38384786  0.88273538  1
  O  O196  1  0.38087680  0.88086342  0.38073046  1
  O  O197  1  0.38025315  0.87441268  0.88457826  1
  O  O198  1  0.87677474  0.37550795  0.38309995  1
  O  O199  1  0.88788394  0.37555344  0.87518816  1
  O  O200  1  0.88098683  0.88234930  0.37544320  1
  O  O201  1  0.88301069  0.88070748  0.87547413  1
  O  O202  1  0.25505718  0.00534238  0.37140789  1
  O  O203  1  0.25209501  0.00105521  0.86117211  1
  O  O204  1  0.25739889  0.50006589  0.36890836  1
  O  O205  1  0.26017913  0.50836067  0.87095486  1
  O  O206  1  0.75499723  0.00595851  0.36922461  1
  O  O207  1  0.75783514  0.00562234  0.87482754  1
  O  O208  1  0.74924262  0.51529754  0.37534411  1
  O  O209  1  0.75654763  0.50810628  0.86704819  1
  O  O210  1  0.24350933  0.49834005  0.13556617  1
  O  O211  1  0.23764851  0.49642926  0.62543780  1
  O  O212  1  0.24405875  0.99326867  0.13204038  1
  O  O213  1  0.24667962  0.99560002  0.63108806  1
  O  O214  1  0.73764980  0.49091230  0.11825387  1
  O  O215  1  0.74399348  0.49295092  0.63104040  1
  O  O216  1  0.74565994  0.99477555  0.13113873  1
  O  O217  1  0.74424945  0.99205956  0.62675523  1
  O  O218  1  0.00267403  0.37010990  0.25626272  1
  O  O219  1  0.00223470  0.37354736  0.76233017  1
  O  O220  1  0.00508082  0.87069976  0.25450097  1
  O  O221  1  0.00324137  0.86309914  0.75588001  1
  O  O222  1  0.50986202  0.37344310  0.25267616  1
  O  O223  1  0.50894360  0.37188188  0.76165790  1
  O  O224  1  0.50598438  0.87037762  0.25568472  1
  O  O225  1  0.50366406  0.86584352  0.75512274  1
  O  O226  1  0.49551840  0.12929240  0.24556504  1
  O  O227  1  0.49764663  0.13181410  0.74571053  1
  O  O228  1  0.49656606  0.63281837  0.24124008  1
  O  O229  1  0.48984639  0.63518599  0.75790861  1
  O  O230  1  0.99500856  0.13084502  0.24516138  1
  O  O231  1  0.99329277  0.12353363  0.74152291  1
  O  O232  1  0.98777315  0.63064734  0.25260349  1
  O  O233  1  0.98922966  0.63597662  0.75665838  1
  O  O234  1  0.37344385  0.25727773  0.00777451  1
  O  O235  1  0.37182319  0.25561082  0.50477503  1
  O  O236  1  0.38014004  0.76220116  0.01016698  1
  O  O237  1  0.37089068  0.75410854  0.50476217  1
  O  O238  1  0.86822406  0.25004624  0.00916902  1
  O  O239  1  0.87972434  0.26154617  0.50878401  1
  O  O240  1  0.86487691  0.75170850  0.00705835  1
  O  O241  1  0.87039921  0.74882005  0.50959633  1
  O  O242  1  0.12907278  0.24558687  0.49469225  1
  O  O243  1  0.12558253  0.23648950  1.00251612  1
  O  O244  1  0.12873688  0.74169342  0.50080366  1
  O  O245  1  0.12168624  0.75039313  0.98584030  1
  O  O246  1  0.62012838  0.24547896  0.49008664  1
  O  O247  1  0.63157448  0.24376587  0.99455456  1
  O  O248  1  0.62880615  0.74494924  0.49535053  1
  O  O249  1  0.63871983  0.75467634  1.00002616  1
  O  O250  1  0.48810240  0.24847462  0.12639786  1
  O  O251  1  0.49676307  0.24620839  0.63252036  1
  O  O252  1  0.49204258  0.74223375  0.12980772  1
  O  O253  1  0.49285893  0.75531873  0.63715980  1
  O  O254  1  0.99394778  0.24588237  0.13138520  1
  O  O255  1  0.98810248  0.24307066  0.62372656  1
  O  O256  1  0.99201046  0.74889964  0.13265169  1
  O  O257  1  0.99062347  0.75513298  0.63468337  1
  O  O258  1  0.00506727  0.25499273  0.36973338  1
  O  O259  1  0.00258196  0.26226511  0.87411505  1
  O  O260  1  0.00018353  0.75786476  0.36780820  1
  O  O261  1  0.00841963  0.75393487  0.86651577  1
  O  O262  1  0.51261685  0.25402027  0.37331329  1
  O  O263  1  0.50932056  0.26035492  0.87255728  1
  O  O264  1  0.50429047  0.75583523  0.37053822  1
  O  O265  1  0.50142761  0.75543628  0.86469763  1
  O  O266  1  0.24423686  0.13086405  0.49474471  1
  O  O267  1  0.23767873  0.12035932  0.99910345  1
  O  O268  1  0.24029313  0.63174769  0.49809141  1
  O  O269  1  0.25064923  0.62219298  0.98492440  1
  O  O270  1  0.74149626  0.11903523  0.49127455  1
  O  O271  1  0.74531243  0.12996658  0.99442111  1
  O  O272  1  0.74438812  0.63029840  0.49193989  1
  O  O273  1  0.75629737  0.63423209  0.98927721  1
  O  O274  1  0.26291296  0.37330139  -0.00055947  1
  O  O275  1  0.25665553  0.36791095  0.50190076  1
  O  O276  1  0.26187774  0.88320186  0.00655419  1
  O  O277  1  0.25609678  0.87008629  0.50484270  1
  O  O278  1  0.75211657  0.36687477  0.00956960  1
  O  O279  1  0.76234828  0.38450655  0.50632526  1
  O  O280  1  0.75303724  0.86613123  0.00652567  1
  O  O281  1  0.75166387  0.86712624  0.50612885  1
  O  O282  1  0.13104284  0.49655135  0.24569518  1
  O  O283  1  0.12257369  0.50363807  0.73511413  1
  O  O284  1  0.12976203  0.99449724  0.24471830  1
  O  O285  1  0.13599282  0.99944876  0.74275718  1
  O  O286  1  0.62584383  0.48741486  0.25645495  1
  O  O287  1  0.63119155  0.49422819  0.74513552  1
  O  O288  1  0.63094087  0.99526014  0.24622976  1
  O  O289  1  0.62603494  0.99217192  0.74292494  1
  O  O290  1  0.36786421  -0.00062737  0.25735995  1
  O  O291  1  0.36789355  0.00510069  0.74853518  1
  O  O292  1  0.36643183  0.49725235  0.25884872  1
  O  O293  1  0.37692752  0.50876781  0.75918682  1
  O  O294  1  0.86977757  0.00681640  0.25551694  1
  O  O295  1  0.87467059  0.00510209  0.75603488  1
  O  O296  1  0.86846549  0.51217854  0.25176247  1
  O  O297  1  0.87066794  0.51115446  0.74598025  1
  O  O298  1  0.11766693  0.37009975  0.37119914  1
  O  O299  1  0.11324203  0.37507199  0.87452661  1
  O  O300  1  0.11778880  0.87451137  0.36749436  1
  O  O301  1  0.12124770  0.86606783  0.87108454  1
  O  O302  1  0.62723386  0.36815981  0.36901346  1
  O  O303  1  0.62477549  0.36582852  0.86557191  1
  O  O304  1  0.62002161  0.87025062  0.37080834  1
  O  O305  1  0.61861929  0.87133577  0.86818834  1
  O  O306  1  0.37520293  0.13564535  0.12555228  1
  O  O307  1  0.38410700  0.13100620  0.62989789  1
  O  O308  1  0.38160899  0.63400974  0.12588825  1
  O  O309  1  0.36808159  0.62981970  0.63822304  1
  O  O310  1  0.87986019  0.13046284  0.13186252  1
  O  O311  1  0.87832439  0.13118738  0.62725660  1
  O  O312  1  0.87210605  0.63068687  0.13686885  1
  O  O313  1  0.86655760  0.63712213  0.63590878  1
  O  O314  1  0.26021879  0.25443812  0.12166416  1
  O  O315  1  0.25893036  0.24879474  0.61721225  1
  O  O316  1  0.26261844  0.75609615  0.13178640  1
  O  O317  1  0.25624660  0.75535412  0.62003248  1
  O  O318  1  0.75336976  0.25823772  0.12142843  1
  O  O319  1  0.76288834  0.25606255  0.62949345  1
  O  O320  1  0.75269605  0.75365518  0.11870941  1
  O  O321  1  0.75818363  0.75471110  0.62044362  1
  O  O322  1  0.24410586  0.24586308  0.38046506  1
  O  O323  1  0.24715272  0.24502941  0.88008760  1
  O  O324  1  0.24766513  0.74922380  0.38292416  1
  O  O325  1  0.23972259  0.74151365  0.86565956  1
  O  O326  1  0.73830817  0.24321299  0.36957906  1
  O  O327  1  0.74624339  0.24395073  0.87971440  1
  O  O328  1  0.74404994  0.74206596  0.37999193  1
  O  O329  1  0.74938521  0.74291341  0.88286641  1
  O  O330  1  0.00707552  0.11937677  0.00646999  1
  O  O331  1  0.00514770  0.11906693  0.50448757  1
  O  O332  1  0.00571856  0.62192485  0.00253619  1
  O  O333  1  0.00624598  0.61451650  0.49401686  1
  O  O334  1  0.50836626  0.11734568  0.00088839  1
  O  O335  1  0.50753298  0.12003451  0.50704401  1
  O  O336  1  0.49485540  0.63063663  0.01384452  1
  O  O337  1  0.50613910  0.61376200  0.49566739  1
  O  O338  1  0.49307606  0.38776426  0.49747901  1
  O  O339  1  0.48689263  0.36518627  0.99463038  1
  O  O340  1  0.49533864  0.88041540  0.49471641  1
  O  O341  1  0.49246228  0.87895838  0.99553358  1
  O  O342  1  0.98858313  0.38287539  0.49497258  1
  O  O343  1  0.99907537  0.37680059  0.98773988  1
  O  O344  1  0.99907953  0.88179068  0.49320928  1
  O  O345  1  0.99831543  0.88167752  0.99327807  1
  O  O346  1  0.48962213  0.49923768  0.38466254  1
  O  O347  1  0.48913078  0.49514053  0.86864475  1
  O  O348  1  0.49569169  0.99495176  0.38104238  1
  O  O349  1  0.49886125  0.99125875  0.88194308  1
  O  O350  1  0.99603742  0.49297571  0.38540689  1
  O  O351  1  0.99931841  0.48777105  0.87524573  1
  O  O352  1  0.99450680  0.99615433  0.37934954  1
  O  O353  1  0.99653837  0.99352378  0.87944251  1
  O  O354  1  0.00496538  0.00562499  0.12104104  1
  O  O355  1  0.00516930  0.00371358  0.61952028  1
  O  O356  1  0.01225068  0.50223275  0.12775341  1
  O  O357  1  0.00682630  0.49448300  0.61205919  1
  O  O358  1  0.50821709  -0.00052065  0.11870900  1
  O  O359  1  0.50618507  0.00564177  0.62019822  1
  O  O360  1  0.49638976  0.51544072  0.12600853  1
  O  O361  1  0.50576258  0.49521283  0.61530594  1
  O  O362  1  0.24167747  0.38666217  0.25109176  1
  O  O363  1  0.24712742  0.38028295  0.74798479  1
  O  O364  1  0.24376866  0.88102289  0.24417038  1
  O  O365  1  0.25221557  0.88430492  0.74266617  1
  O  O366  1  0.74264429  0.37899891  0.23904114  1
  O  O367  1  0.74591619  0.37981822  0.74431482  1
  O  O368  1  0.74411127  0.88046794  0.24599428  1
  O  O369  1  0.74334510  0.87345624  0.74409692  1
  O  O370  1  0.25042994  0.11814073  0.25776267  1
  O  O371  1  0.25836903  0.11432457  0.74739681  1
  O  O372  1  0.25242406  0.61212387  0.25323955  1
  O  O373  1  0.26193633  0.62235857  0.76000287  1
  O  O374  1  0.75528178  0.11995608  0.25670220  1
  O  O375  1  0.75783020  0.12187236  0.75746335  1
  O  O376  1  0.75456011  0.62733328  0.25736295  1
  O  O377  1  0.75896135  0.62104053  0.75723909  1
  O  O378  1  0.36838762  0.11913234  0.37638752  1
  O  O379  1  0.37584352  0.12149832  0.86699670  1
  O  O380  1  0.37210139  0.61238126  0.37278258  1
  O  O381  1  0.36967935  0.61961986  0.86915297  1
  O  O382  1  0.87030718  0.12101192  0.37027509  1
  O  O383  1  0.87223724  0.11981483  0.86972961  1
  O  O384  1  0.86408302  0.62731936  0.36640800  1
  O  O385  1  0.86626909  0.62647571  0.86304850  1
  O  O386  1  0.12601409  0.38346811  0.13266561  1
  O  O387  1  0.12519073  0.38570533  0.62396407  1
  O  O388  1  0.12956984  0.87994717  0.12948018  1
  O  O389  1  0.13307480  0.88171952  0.62624814  1
  O  O390  1  0.63198068  0.37478211  0.13288777  1
  O  O391  1  0.63041006  0.38052305  0.62927184  1
  O  O392  1  0.63027688  0.88047764  0.13176091  1
  O  O393  1  0.63017654  0.87983952  0.63027458  1
  O  O394  1  0.11944698  0.25579915  0.25502932  1
  O  O395  1  0.11979189  0.25091249  0.75082643  1
  O  O396  1  0.11809939  0.75610939  0.25036619  1
  O  O397  1  0.11634962  0.74744424  0.75473226  1
  O  O398  1  0.62444852  0.26215807  0.25920112  1
  O  O399  1  0.62053752  0.25417779  0.75421804  1
  O  O400  1  0.61973325  0.75651443  0.25577559  1
  O  O401  1  0.61536437  0.75387086  0.74897845  1
  O  O402  1  0.37468977  0.25203946  0.23956441  1
  O  O403  1  0.38243137  0.24521047  0.74552270  1
  O  O404  1  0.38127543  0.75158176  0.23973478  1
  O  O405  1  0.38244104  0.74252706  0.74594005  1
  O  O406  1  0.87991849  0.24483973  0.24593242  1
  O  O407  1  0.87898496  0.24225940  0.73887632  1
  O  O408  1  0.87780298  0.74238293  0.24514630  1
  O  O409  1  0.88259058  0.74361292  0.74380816  1
  O  O410  1  0.37955020  0.49810284  0.49573092  1
  O  O411  1  0.37084302  0.49140941  0.98894014  1
  O  O412  1  0.38099727  0.99432986  0.49558168  1
  O  O413  1  0.38248337  0.98924784  1.00111744  1
  O  O414  1  0.88153735  0.49323943  0.50076357  1
  O  O415  1  0.87968695  0.49511702  0.99776644  1
  O  O416  1  0.88210953  0.99829531  0.49341530  1
  O  O417  1  0.88274278  0.99951696  0.99351299  1
  O  O418  1  0.11901145  0.00611794  0.00615645  1
  O  O419  1  0.12011023  0.00637524  0.50458583  1
  O  O420  1  0.12782689  0.49964058  0.01429863  1
  O  O421  1  0.11629744  0.50589652  0.50564511  1
  O  O422  1  0.62164529  0.00368484  0.00584438  1
  O  O423  1  0.61903805  0.00642130  0.50582119  1
  O  O424  1  0.59800337  0.46641005  -0.02320243  1
  O  O425  1  0.61574056  0.50433749  0.50529142  1
  O  O426  1  0.37464165  0.36944239  0.11532900  1
  O  O427  1  0.37578895  0.36810529  0.62004174  1
  O  O428  1  0.37135420  0.86798613  0.11836854  1
  O  O429  1  0.37077062  0.86845805  0.61793533  1
  O  O430  1  0.86310424  0.36997699  0.12796044  1
  O  O431  1  0.87111492  0.36781397  0.61884392  1
  O  O432  1  0.86682692  0.86848773  0.12589216  1
  O  O433  1  0.86963672  0.86297463  0.62467306  1
  O  O434  1  0.12989076  0.13120697  0.38059173  1
  O  O435  1  0.12413364  0.12383948  0.88745162  1
  O  O436  1  0.12680362  0.62620268  0.38849249  1
  O  O437  1  0.13436489  0.63185664  0.87478614  1
  O  O438  1  0.62976599  0.13326432  0.38011488  1
  O  O439  1  0.63162635  0.12869337  0.88022124  1
  O  O440  1  0.63070669  0.63125577  0.38039263  1
  O  O441  1  0.64133683  0.62705188  0.86763347  1
