# generated using pymatgen
data_V93Zn93O256
_symmetry_space_group_name_H-M   'P 1'
_cell_length_a   17.04264401
_cell_length_b   17.04215394
_cell_length_c   17.04700488
_cell_angle_alpha   90.02643146
_cell_angle_beta   90.07681532
_cell_angle_gamma   90.05832121
_symmetry_Int_Tables_number   1
_chemical_formula_structural   V93Zn93O256
_chemical_formula_sum   'V93 Zn93 O256'
_cell_volume   4951.18187722
_cell_formula_units_Z   1
loop_
 _symmetry_equiv_pos_site_id
 _symmetry_equiv_pos_as_xyz
  1  'x, y, z'
loop_
 _atom_site_type_symbol
 _atom_site_label
 _atom_site_symmetry_multiplicity
 _atom_site_fract_x
 _atom_site_fract_y
 _atom_site_fract_z
 _atom_site_occupancy
  V  V0  1  0.74830984  0.24864147  0.00156452  1
  V  V1  1  0.37417532  0.37465427  -0.00202739  1
  V  V2  1  0.87360707  0.50030552  0.37455741  1
  V  V3  1  0.24820866  0.37468962  0.12465049  1
  V  V4  1  0.62446228  0.49817875  0.12450119  1
  V  V5  1  0.87447610  0.12443706  0.25077047  1
  V  V6  1  0.24901912  0.11838406  0.86947597  1
  V  V7  1  -0.00631847  0.75109099  0.74480421  1
  V  V8  1  0.37228192  0.12197825  0.74884633  1
  V  V9  1  0.12591463  0.25128561  0.37513281  1
  V  V10  1  0.49991716  0.24918218  0.25067855  1
  V  V11  1  0.49967688  0.62988983  0.63035293  1
  V  V12  1  0.12694814  0.62769074  0.49936177  1
  V  V13  1  0.37650347  0.62956333  0.75067323  1
  V  V14  1  -0.00081144  0.37094189  0.86977563  1
  V  V15  1  0.87615406  0.37494217  0.50036782  1
  V  V16  1  0.24911769  -0.00013608  0.24994162  1
  V  V17  1  0.62124611  0.86855871  0.74981412  1
  V  V18  1  0.38062006  0.00091169  0.87730810  1
  V  V19  1  0.12314236  0.37205778  0.74851651  1
  V  V20  1  0.62455082  0.37282324  0.75013877  1
  V  V21  1  0.74943378  0.62471338  0.87476652  1
  V  V22  1  0.24949014  0.24880549  -0.00158349  1
  V  V23  1  0.12477844  0.75080670  0.87391651  1
  V  V24  1  0.13130830  0.00249495  0.62869897  1
  V  V25  1  0.12273391  0.24941764  0.87198567  1
  V  V26  1  0.12475736  0.37657726  0.24865770  1
  V  V27  1  0.75655974  0.86749988  0.62538466  1
  V  V28  1  0.62663592  0.12493241  0.50079343  1
  V  V29  1  0.50171040  0.87249406  0.37723482  1
  V  V30  1  0.25085682  0.75116094  0.50072604  1
  V  V31  1  0.62413221  0.62348949  -0.00030762  1
  V  V32  1  0.12338085  0.49976033  0.12363583  1
  V  V33  1  0.62422209  0.87356384  0.25121704  1
  V  V34  1  0.00016149  0.12525133  0.12371623  1
  V  V35  1  0.24986382  0.75198085  0.00047041  1
  V  V36  1  0.12497362  0.00119056  0.12453060  1
  V  V37  1  0.49493608  0.37307730  0.37865115  1
  V  V38  1  -0.00240734  0.87733347  0.87636961  1
  V  V39  1  0.37783142  0.75198664  0.63037929  1
  V  V40  1  0.49995684  0.86926632  0.87264712  1
  V  V41  1  0.87524313  0.00015618  0.37545783  1
  V  V42  1  0.62397798  0.24762820  0.87416140  1
  V  V43  1  0.25186346  0.87850996  0.62797415  1
  V  V44  1  0.25762773  0.37619308  0.62309753  1
  V  V45  1  0.12604243  0.12628999  0.50120182  1
  V  V46  1  0.50039203  0.12462357  0.62698212  1
  V  V47  1  0.37464578  0.24984936  0.12436034  1
  V  V48  1  0.74882707  0.74933643  -0.00088201  1
  V  V49  1  0.74973709  0.50014235  0.75043121  1
  V  V50  1  0.00063876  0.37562694  0.37534075  1
  V  V51  1  0.37429672  0.49927656  0.87572483  1
  V  V52  1  0.38133907  0.87902598  0.00148895  1
  V  V53  1  0.25055424  0.12634210  0.37527015  1
  V  V54  1  0.87924312  0.25111413  0.62723013  1
  V  V55  1  0.37312854  0.50091961  0.37516186  1
  V  V56  1  -0.00041216  0.25040246  0.24967256  1
  V  V57  1  0.00104020  0.75077080  0.24914225  1
  V  V58  1  0.49675396  0.62452058  0.12648639  1
  V  V59  1  0.62058980  0.11710341  -0.00023101  1
  V  V60  1  0.25814012  0.25566790  0.50047097  1
  V  V61  1  0.75010356  -0.00102068  0.24940963  1
  V  V62  1  0.62656728  -0.00018813  0.62507210  1
  V  V63  1  0.87676649  0.86940155  0.50487022  1
  V  V64  1  0.37657696  0.87613449  0.50266660  1
  V  V65  1  0.87349805  0.24987030  0.12455378  1
  V  V66  1  0.37489485  0.12487109  0.24969554  1
  V  V67  1  0.24991547  0.87605173  0.12442716  1
  V  V68  1  0.49449914  0.49479546  0.50169748  1
  V  V69  1  0.13022127  0.87949478  0.75030899  1
  V  V70  1  0.12404488  0.62522382  -0.00097035  1
  V  V71  1  0.87327363  0.75023133  0.12468120  1
  V  V72  1  0.24947022  0.50103206  0.74935175  1
  V  V73  1  0.00170617  0.12860981  0.62840894  1
  V  V74  1  0.24998361  0.62641614  0.87404016  1
  V  V75  1  0.75172098  0.24944861  0.49860861  1
  V  V76  1  0.62462008  0.24885436  0.37549782  1
  V  V77  1  0.00090430  0.50181844  0.50030220  1
  V  V78  1  0.00179179  0.87622139  0.37526392  1
  V  V79  1  0.87399156  0.62483530  0.25043443  1
  V  V80  1  0.37496969  -0.00093103  0.37642801  1
  V  V81  1  0.62572564  0.62610483  0.49821842  1
  V  V82  1  -0.00617934  0.63003658  0.62431917  1
  V  V83  1  0.75262412  -0.00010537  0.75125808  1
  V  V84  1  -0.00063800  0.50087886  -0.00257071  1
  V  V85  1  0.12371273  0.12424105  -0.00129782  1
  V  V86  1  0.49918973  0.11728805  0.12088649  1
  V  V87  1  0.74976698  0.49952469  0.24948776  1
  V  V88  1  0.87665763  0.12779201  0.75061120  1
  V  V89  1  0.87467292  0.50049858  0.87317148  1
  V  V90  1  0.74856625  0.87382319  0.12481336  1
  V  V91  1  0.74876650  0.37415536  0.12476661  1
  V  V92  1  0.62527055  0.49841809  0.62538371  1
  Zn  Zn93  1  0.12547882  0.50071335  0.62462024  1
  Zn  Zn94  1  0.24935611  0.50306877  0.24979924  1
  Zn  Zn95  1  0.75134044  0.37480704  0.62432979  1
  Zn  Zn96  1  -0.00353051  0.00002124  0.00072716  1
  Zn  Zn97  1  0.49781290  0.74746876  0.25107056  1
  Zn  Zn98  1  0.75054396  0.12271621  0.87756384  1
  Zn  Zn99  1  0.37396721  0.74930600  0.12767513  1
  Zn  Zn100  1  0.37110409  0.62805055  0.25026118  1
  Zn  Zn101  1  0.49860933  0.25035430  0.74980253  1
  Zn  Zn102  1  0.00074583  0.00069697  0.50081585  1
  Zn  Zn103  1  0.12947251  0.75196697  0.37300680  1
  Zn  Zn104  1  0.62142760  -0.00407151  0.12054626  1
  Zn  Zn105  1  0.49819934  0.37505585  0.87584195  1
  Zn  Zn106  1  0.50184043  0.00028225  0.50030490  1
  Zn  Zn107  1  0.87598252  0.00281016  0.87843068  1
  Zn  Zn108  1  0.62045416  0.74591749  0.87161189  1
  Zn  Zn109  1  0.87256671  0.87765944  -0.00033458  1
  Zn  Zn110  1  0.25229378  0.62828783  0.37303776  1
  Zn  Zn111  1  0.62853504  0.74873321  0.37618474  1
  Zn  Zn112  1  0.74946611  0.62623342  0.37566777  1
  Zn  Zn113  1  -0.00061163  0.62536774  0.12332416  1
  Zn  Zn114  1  0.49879532  0.49723763  -0.00041031  1
  Zn  Zn115  1  0.87434687  0.37414963  -0.00177431  1
  Zn  Zn116  1  0.87160207  0.62834265  0.74549699  1
  Zn  Zn117  1  0.37827506  0.25334361  0.62444502  1
  Zn  Zn118  1  0.75486672  0.74615951  0.50084630  1
  Zn  Zn119  1  0.12653686  0.87526850  0.24962090  1
  Zn  Zn120  1  0.74954713  0.12400833  0.37453472  1
  Zn  Zn121  1  0.62399464  0.37375830  0.24971630  1
  Zn  Zn122  1  0.18697308  0.18793970  0.18717524  1
  Zn  Zn123  1  0.18964088  0.19203852  0.68750862  1
  Zn  Zn124  1  0.18800616  0.68636166  0.18726913  1
  Zn  Zn125  1  0.18607977  0.69094507  0.68606789  1
  Zn  Zn126  1  0.68564442  0.18568699  0.18760820  1
  Zn  Zn127  1  0.69133761  0.18814557  0.68572008  1
  Zn  Zn128  1  0.68564634  0.68635696  0.18757133  1
  Zn  Zn129  1  0.68745772  0.68650551  0.68620733  1
  Zn  Zn130  1  0.31301259  0.31498650  0.31141853  1
  Zn  Zn131  1  0.31102439  0.30944612  0.81052897  1
  Zn  Zn132  1  0.31457947  0.81092304  0.31170798  1
  Zn  Zn133  1  0.31331394  0.81260797  0.81349810  1
  Zn  Zn134  1  0.81129513  0.31283640  0.31216145  1
  Zn  Zn135  1  0.81010521  0.31143890  0.81293298  1
  Zn  Zn136  1  0.81160831  0.81030310  0.31599058  1
  Zn  Zn137  1  0.81170690  0.81144926  0.81368475  1
  Zn  Zn138  1  0.18751599  0.43876682  0.43923951  1
  Zn  Zn139  1  0.18728080  0.43810628  0.93670791  1
  Zn  Zn140  1  0.18776106  0.93890435  0.44048961  1
  Zn  Zn141  1  0.18846259  0.93918678  0.93871224  1
  Zn  Zn142  1  0.68628020  0.43620025  0.43667016  1
  Zn  Zn143  1  0.68718374  0.43647080  0.93834773  1
  Zn  Zn144  1  0.69026618  0.93818354  0.43892850  1
  Zn  Zn145  1  0.68719849  0.93514369  0.93549589  1
  Zn  Zn146  1  0.31114215  0.06188622  0.06021570  1
  Zn  Zn147  1  0.31267169  0.06364110  0.56090618  1
  Zn  Zn148  1  0.31058822  0.56093108  0.06180499  1
  Zn  Zn149  1  0.31284852  0.56319291  0.56299779  1
  Zn  Zn150  1  0.81058096  0.06066893  0.06235026  1
  Zn  Zn151  1  0.81323206  0.05920111  0.56148675  1
  Zn  Zn152  1  0.81322293  0.56226939  0.06191912  1
  Zn  Zn153  1  0.81187036  0.56048551  0.56306927  1
  Zn  Zn154  1  0.43703841  0.43822967  0.18963239  1
  Zn  Zn155  1  0.43849667  0.44150192  0.69119605  1
  Zn  Zn156  1  0.43611875  0.93586570  0.19061271  1
  Zn  Zn157  1  0.43821469  0.94147997  0.69130750  1
  Zn  Zn158  1  0.93649942  0.43741684  0.18557652  1
  Zn  Zn159  1  0.93902830  0.44166199  0.68675527  1
  Zn  Zn160  1  0.93636008  0.93753805  0.18657290  1
  Zn  Zn161  1  0.94128395  0.94117913  0.68750971  1
  Zn  Zn162  1  0.06293150  0.06286365  0.31149800  1
  Zn  Zn163  1  0.06097950  0.06181691  0.81095301  1
  Zn  Zn164  1  0.06255248  0.56356729  0.31260112  1
  Zn  Zn165  1  0.06232458  0.56164282  0.81049783  1
  Zn  Zn166  1  0.56241934  0.06052046  0.31221320  1
  Zn  Zn167  1  0.56138354  0.05827023  0.81259932  1
  Zn  Zn168  1  0.56178369  0.55966446  0.31100953  1
  Zn  Zn169  1  0.56166405  0.55943122  0.81425333  1
  Zn  Zn170  1  0.43883735  0.18544883  0.43907402  1
  Zn  Zn171  1  0.43865420  0.18842665  0.93765251  1
  Zn  Zn172  1  0.43757141  0.68698649  0.44137700  1
  Zn  Zn173  1  0.43671567  0.68878194  0.94088738  1
  Zn  Zn174  1  0.93885906  0.18682008  0.43874449  1
  Zn  Zn175  1  0.93705710  0.18907941  0.93756488  1
  Zn  Zn176  1  0.93879519  0.68829047  0.43529970  1
  Zn  Zn177  1  0.93535743  0.68870358  0.93545228  1
  Zn  Zn178  1  0.06107475  0.31256667  0.05837210  1
  Zn  Zn179  1  0.06563185  0.31249582  0.56267425  1
  Zn  Zn180  1  0.06309788  0.81359404  0.06249846  1
  Zn  Zn181  1  0.06378277  0.81333250  0.56231317  1
  Zn  Zn182  1  0.56069155  0.31017480  0.06156331  1
  Zn  Zn183  1  0.56311112  0.31063375  0.56266602  1
  Zn  Zn184  1  0.56209323  0.80866016  0.06184692  1
  Zn  Zn185  1  0.56489550  0.81180983  0.56378416  1
  O  O186  1  0.12011388  0.12168183  0.11891952  1
  O  O187  1  0.12039126  0.12170143  0.62424532  1
  O  O188  1  0.12210479  0.61859920  0.11630100  1
  O  O189  1  0.11720844  0.62512733  0.61449606  1
  O  O190  1  0.61548626  0.12394196  0.11685458  1
  O  O191  1  0.61845201  0.12107881  0.62226931  1
  O  O192  1  0.61745924  0.61831831  0.11948177  1
  O  O193  1  0.61733012  0.61919205  0.61975819  1
  O  O194  1  0.38732692  0.38221605  0.37262439  1
  O  O195  1  0.37291864  0.37982057  0.87895999  1
  O  O196  1  0.38346682  0.87975745  0.38187988  1
  O  O197  1  0.37993769  0.88216344  0.87932240  1
  O  O198  1  0.88182739  0.37960016  0.38034263  1
  O  O199  1  0.88360212  0.37912254  0.87288884  1
  O  O200  1  0.88414968  0.88070685  0.38216062  1
  O  O201  1  0.88713130  0.87685258  0.87352664  1
  O  O202  1  0.25471724  0.00649187  0.37098178  1
  O  O203  1  0.25849735  0.01249235  0.87765909  1
  O  O204  1  0.26309096  0.49907870  0.37792917  1
  O  O205  1  0.25428088  0.50712635  0.86937567  1
  O  O206  1  0.75766626  0.00073473  0.36758691  1
  O  O207  1  0.75213381  0.00035151  0.86163731  1
  O  O208  1  0.75639981  0.50008539  0.36851410  1
  O  O209  1  0.75427882  0.50461863  0.86990887  1
  O  O210  1  0.24087962  0.49158384  0.12426155  1
  O  O211  1  0.24850989  0.49241952  0.62955034  1
  O  O212  1  0.24500957  0.99675000  0.13047793  1
  O  O213  1  0.23866836  0.99666351  0.62192981  1
  O  O214  1  0.74516094  0.49387652  0.12945645  1
  O  O215  1  0.74325824  0.49697089  0.63185371  1
  O  O216  1  0.74664441  0.99186334  0.13270548  1
  O  O217  1  0.74643595  0.99141825  0.63428233  1
  O  O218  1  0.00445751  0.36943354  0.25556694  1
  O  O219  1  0.01083197  0.38297271  0.75926000  1
  O  O220  1  -0.00077496  0.86736563  0.25868462  1
  O  O221  1  0.00913169  0.86990346  0.75473159  1
  O  O222  1  0.50100383  0.36722919  0.25972475  1
  O  O223  1  0.51268198  0.37280854  0.75077840  1
  O  O224  1  0.50776690  0.87558340  0.25976897  1
  O  O225  1  0.51151520  0.88198939  0.75787738  1
  O  O226  1  0.49386258  0.12968729  0.24333555  1
  O  O227  1  0.49356819  0.12446311  0.74172683  1
  O  O228  1  0.50017138  0.62515687  0.23838995  1
  O  O229  1  0.49486290  0.61653025  0.73659604  1
  O  O230  1  0.99541214  0.13180454  0.24417712  1
  O  O231  1  0.98996336  0.12059476  0.73879675  1
  O  O232  1  0.99448526  0.63614089  0.25002520  1
  O  O233  1  1.00226536  0.63378683  0.74104491  1
  O  O234  1  0.36841268  0.25382657  0.00453251  1
  O  O235  1  0.36172482  0.24584897  0.50128645  1
  O  O236  1  0.36721005  0.76213475  0.00090181  1
  O  O237  1  0.37075349  0.75713792  0.50949348  1
  O  O238  1  0.86646394  0.24975497  0.00660770  1
  O  O239  1  0.87237581  0.25485315  0.50760054  1
  O  O240  1  0.86717792  0.75155712  0.00653898  1
  O  O241  1  0.87647701  0.76543849  0.49628351  1
  O  O242  1  0.13435407  0.24541094  0.49426581  1
  O  O243  1  0.13024472  0.24362169  0.99242367  1
  O  O244  1  0.13190602  0.74339887  0.49977130  1
  O  O245  1  0.12970447  0.74575583  0.99324320  1
  O  O246  1  0.63146621  0.24436719  0.49558245  1
  O  O247  1  0.62844625  0.24105280  0.99196878  1
  O  O248  1  0.62603158  0.73628031  0.50112514  1
  O  O249  1  0.63154296  0.74151499  0.99691338  1
  O  O250  1  0.49335371  0.24044936  0.13094349  1
  O  O251  1  0.49782455  0.23785260  0.62589544  1
  O  O252  1  0.49809012  0.73680780  0.12549388  1
  O  O253  1  0.49450421  0.73735197  0.61949253  1
  O  O254  1  0.99473823  0.24563703  0.12980208  1
  O  O255  1  0.99112014  0.24057863  0.62022888  1
  O  O256  1  0.99412110  0.75187912  0.13494076  1
  O  O257  1  1.00743174  0.74310920  0.63437759  1
  O  O258  1  0.00606877  0.25560238  0.37031106  1
  O  O259  1  0.00595136  0.26276880  0.87885167  1
  O  O260  1  0.00042882  0.76039183  0.36568718  1
  O  O261  1  0.00602618  0.75811224  0.86638530  1
  O  O262  1  0.50290272  0.25582049  0.37259850  1
  O  O263  1  0.51281747  0.25088968  0.87212761  1
  O  O264  1  0.50219906  0.76293530  0.37691875  1
  O  O265  1  0.49916844  0.76430151  0.87609816  1
  O  O266  1  0.24516313  0.13453074  0.49481051  1
  O  O267  1  0.24414531  0.12993658  0.99039238  1
  O  O268  1  0.24169370  0.63175011  0.50167926  1
  O  O269  1  0.24397149  0.63131082  0.99341028  1
  O  O270  1  0.74494925  0.13079482  0.49907745  1
  O  O271  1  0.73905747  0.13122040  0.99973788  1
  O  O272  1  0.73833384  0.62392823  0.50203128  1
  O  O273  1  0.74354583  0.62908132  0.99480622  1
  O  O274  1  0.25312830  0.36766016  0.00433071  1
  O  O275  1  0.24244416  0.36645608  0.51115105  1
  O  O276  1  0.25822229  0.87140626  0.00376170  1
  O  O277  1  0.25664701  0.87152221  0.50794477  1
  O  O278  1  0.75061434  0.36629945  0.00624318  1
  O  O279  1  0.75812794  0.36896675  0.50139242  1
  O  O280  1  0.74814816  0.86754253  0.00629826  1
  O  O281  1  0.75882495  0.87563628  0.50988049  1
  O  O282  1  0.12347804  0.49314660  0.24317492  1
  O  O283  1  0.13217015  0.48995287  0.74920971  1
  O  O284  1  0.13228401  1.00041357  0.24301528  1
  O  O285  1  0.12016363  0.99057651  0.74012899  1
  O  O286  1  0.63178442  0.49694218  0.24261537  1
  O  O287  1  0.62958250  0.49081320  0.74600838  1
  O  O288  1  0.63048548  0.98829018  0.24963201  1
  O  O289  1  0.63484175  0.99198006  0.74551068  1
  O  O290  1  0.36843065  0.00574112  0.25678428  1
  O  O291  1  0.37677224  0.01268189  0.76159088  1
  O  O292  1  0.37328463  0.50197595  0.26267139  1
  O  O293  1  0.36802687  0.50868293  0.75586905  1
  O  O294  1  0.87009506  0.00506474  0.25527260  1
  O  O295  1  0.86791417  0.00993594  0.74866786  1
  O  O296  1  0.87069909  0.50485819  0.25478228  1
  O  O297  1  0.86757745  0.50179280  0.75524269  1
  O  O298  1  0.11973190  0.37070485  0.36975348  1
  O  O299  1  0.11935424  0.37074575  0.86746054  1
  O  O300  1  0.11361851  0.87589540  0.37461445  1
  O  O301  1  0.11932745  0.87261463  0.86770924  1
  O  O302  1  0.61259335  0.36837395  0.37401470  1
  O  O303  1  0.62442106  0.36556317  0.86683811  1
  O  O304  1  0.61749138  0.87602111  0.36940705  1
  O  O305  1  0.61578787  0.87496023  0.86733285  1
  O  O306  1  0.38003860  0.12951757  0.12847904  1
  O  O307  1  0.38238280  0.12226963  0.63308657  1
  O  O308  1  0.38483817  0.62370612  0.12389430  1
  O  O309  1  0.38250037  0.63052509  0.62992726  1
  O  O310  1  0.88038933  0.13046756  0.13111889  1
  O  O311  1  0.88269355  0.13077162  0.62953176  1
  O  O312  1  0.87738317  0.63178006  0.13192514  1
  O  O313  1  0.88943487  0.62266547  0.62438560  1
  O  O314  1  0.25497957  0.25377991  0.11867307  1
  O  O315  1  0.25213457  0.25821119  0.61657644  1
  O  O316  1  0.24966439  0.75801607  0.11737781  1
  O  O317  1  0.25661193  0.75874474  0.61995547  1
  O  O318  1  0.75383536  0.25404757  0.12145243  1
  O  O319  1  0.76244890  0.25107053  0.61739309  1
  O  O320  1  0.75353015  0.75441103  0.11981165  1
  O  O321  1  0.74907923  0.76401006  0.62444839  1
  O  O322  1  0.24587845  0.24735026  0.38129859  1
  O  O323  1  0.24385337  0.23949852  0.87972256  1
  O  O324  1  0.24912476  0.75034210  0.38565744  1
  O  O325  1  0.24373448  0.74594317  0.88011195  1
  O  O326  1  0.74354917  0.24809290  0.38092731  1
  O  O327  1  0.73846604  0.24669997  0.88024366  1
  O  O328  1  0.74637309  0.74458612  0.38182672  1
  O  O329  1  0.74814266  0.74271078  0.88090065  1
  O  O330  1  0.00674326  0.12534378  0.00560449  1
  O  O331  1  0.00730982  0.12437839  0.51082685  1
  O  O332  1  0.00663292  0.61985123  -0.00171289  1
  O  O333  1  0.00686462  0.62379440  0.50605965  1
  O  O334  1  0.50780400  0.13066133  0.01009570  1
  O  O335  1  0.50598819  0.12311034  0.51082060  1
  O  O336  1  0.50539543  0.62240593  0.00816521  1
  O  O337  1  0.50715159  0.61550105  0.50984990  1
  O  O338  1  0.50556739  0.38445518  0.49271014  1
  O  O339  1  0.48950673  0.37496280  0.99767511  1
  O  O340  1  0.49624391  0.87754100  0.49410339  1
  O  O341  1  0.48831012  0.87157856  0.99274172  1
  O  O342  1  0.99693297  0.38059547  0.49504320  1
  O  O343  1  0.99939889  0.38169029  0.98684457  1
  O  O344  1  0.99487427  0.87698284  0.49248795  1
  O  O345  1  0.99944028  0.87481073  0.98718039  1
  O  O346  1  0.49423410  0.49179236  0.38253995  1
  O  O347  1  0.48957935  0.49654181  0.87769243  1
  O  O348  1  0.49406550  0.98958602  0.37674376  1
  O  O349  1  0.48848538  0.98965847  0.87397193  1
  O  O350  1  0.99406969  0.49460048  0.38030149  1
  O  O351  1  0.99538306  0.49204560  0.87783068  1
  O  O352  1  0.99542890  0.99106325  0.37485566  1
  O  O353  1  0.99951648  0.98904976  0.87506160  1
  O  O354  1  0.00629165  0.00753184  0.12524314  1
  O  O355  1  0.01185200  0.01078608  0.62299464  1
  O  O356  1  0.00540027  0.50043229  0.11620646  1
  O  O357  1  0.00393282  0.51065102  0.61848248  1
  O  O358  1  0.49980112  0.01417136  0.13154670  1
  O  O359  1  0.50715723  0.01009659  0.62510311  1
  O  O360  1  0.50540244  0.50706512  0.12327814  1
  O  O361  1  0.50394105  0.50623302  0.61789972  1
  O  O362  1  0.24210729  0.37599890  0.24258184  1
  O  O363  1  0.24216935  0.38029919  0.74344379  1
  O  O364  1  0.24987371  0.88260830  0.24368094  1
  O  O365  1  0.23671215  0.86992810  0.74569159  1
  O  O366  1  0.74813359  0.38108948  0.24300769  1
  O  O367  1  0.73905457  0.37982027  0.74863777  1
  O  O368  1  0.74208436  0.87809459  0.24591554  1
  O  O369  1  0.74607492  0.88229749  0.74421030  1
  O  O370  1  0.25552665  0.12129195  0.25567298  1
  O  O371  1  0.25833122  0.13109640  0.75985559  1
  O  O372  1  0.25078623  0.62049989  0.25557536  1
  O  O373  1  0.25376622  0.62132736  0.75440723  1
  O  O374  1  0.75662446  0.11818633  0.25098932  1
  O  O375  1  0.75834735  0.11483382  0.74779429  1
  O  O376  1  0.75579867  0.61735995  0.25087328  1
  O  O377  1  0.75020363  0.61856595  0.75492559  1
  O  O378  1  0.37032325  0.11982705  0.36978705  1
  O  O379  1  0.36970034  0.11928126  0.87078738  1
  O  O380  1  0.37676065  0.61382830  0.37557555  1
  O  O381  1  0.36896337  0.62145483  0.87087090  1
  O  O382  1  0.87603498  0.11876498  0.36888891  1
  O  O383  1  0.87383848  0.12628184  0.86244857  1
  O  O384  1  0.87482809  0.61715734  0.36951263  1
  O  O385  1  0.86771740  0.61815149  0.87106096  1
  O  O386  1  0.12844035  0.37854277  0.12862670  1
  O  O387  1  0.13301915  0.37585609  0.63389148  1
  O  O388  1  0.13194985  0.88326285  0.12533088  1
  O  O389  1  0.12987404  0.88381754  0.63120667  1
  O  O390  1  0.63013301  0.37929012  0.12572949  1
  O  O391  1  0.62640872  0.37874805  0.63390871  1
  O  O392  1  0.62737406  0.87595387  0.13394121  1
  O  O393  1  0.63331426  0.87996548  0.63174933  1
  O  O394  1  0.11944431  0.25554639  0.25533774  1
  O  O395  1  0.13035396  0.26369668  0.75608383  1
  O  O396  1  0.11330420  0.75295861  0.25137071  1
  O  O397  1  0.11677707  0.76020433  0.75441931  1
  O  O398  1  0.61737425  0.24928708  0.25738961  1
  O  O399  1  0.62718458  0.25590914  0.75689182  1
  O  O400  1  0.62246791  0.76273795  0.25263010  1
  O  O401  1  0.63151654  0.76501387  0.75136599  1
  O  O402  1  0.37912383  0.24363836  0.24453659  1
  O  O403  1  0.37842096  0.23583252  0.74930721  1
  O  O404  1  0.38016109  0.74697125  0.24524726  1
  O  O405  1  0.36997213  0.74254533  0.74283312  1
  O  O406  1  0.88071407  0.24478934  0.24519497  1
  O  O407  1  0.86626878  0.23942156  0.73841483  1
  O  O408  1  0.88225706  0.74531075  0.24572863  1
  O  O409  1  0.89006405  0.74902761  0.75359184  1
  O  O410  1  0.38786595  0.50501331  0.49362523  1
  O  O411  1  0.37204468  0.49157533  0.99222180  1
  O  O412  1  0.37650953  0.99402990  0.49394672  1
  O  O413  1  0.36900013  0.99012295  0.98924308  1
  O  O414  1  0.88113741  0.49433474  0.49506487  1
  O  O415  1  0.88064711  0.49748901  0.99136654  1
  O  O416  1  0.87853097  0.99031021  0.49396788  1
  O  O417  1  0.87765132  0.99651741  0.99589401  1
  O  O418  1  0.12340751  0.00764048  0.00639782  1
  O  O419  1  0.12431584  0.00824111  0.51075332  1
  O  O420  1  0.11939189  0.50559872  0.00306790  1
  O  O421  1  0.11886479  0.51022025  0.50064859  1
  O  O422  1  0.62951610  0.01333695  -0.00064561  1
  O  O423  1  0.62568409  0.00659122  0.50794920  1
  O  O424  1  0.62347763  0.50568621  0.00650429  1
  O  O425  1  0.61619629  0.50618944  0.50516826  1
  O  O426  1  0.36845609  0.36897711  0.12003735  1
  O  O427  1  0.36169743  0.37353891  0.63459929  1
  O  O428  1  0.36989123  0.87780294  0.11530142  1
  O  O429  1  0.37181672  0.87342564  0.62372043  1
  O  O430  1  0.86811813  0.36723546  0.12242902  1
  O  O431  1  0.87796868  0.36598741  0.62046359  1
  O  O432  1  0.86658244  0.86751174  0.12516394  1
  O  O433  1  0.86847599  0.88392729  0.61702887  1
  O  O434  1  0.13082288  0.13141266  0.37978968  1
  O  O435  1  0.13110602  0.12814313  0.87612676  1
  O  O436  1  0.12442394  0.62809896  0.38910863  1
  O  O437  1  0.13055573  0.63071513  0.87831295  1
  O  O438  1  0.62419517  0.13069157  0.38246809  1
  O  O439  1  0.62414872  0.13085973  0.88113522  1
  O  O440  1  0.62246431  0.62348028  0.38732142  1
  O  O441  1  0.63016338  0.62508649  0.88020083  1
