# generated using pymatgen
data_V93Zn93O256
_symmetry_space_group_name_H-M   'P 1'
_cell_length_a   17.05899594
_cell_length_b   17.05271259
_cell_length_c   17.05694531
_cell_angle_alpha   89.99638248
_cell_angle_beta   90.04513297
_cell_angle_gamma   89.99552883
_symmetry_Int_Tables_number   1
_chemical_formula_structural   V93Zn93O256
_chemical_formula_sum   'V93 Zn93 O256'
_cell_volume   4961.90058141
_cell_formula_units_Z   1
loop_
 _symmetry_equiv_pos_site_id
 _symmetry_equiv_pos_as_xyz
  1  'x, y, z'
loop_
 _atom_site_type_symbol
 _atom_site_label
 _atom_site_symmetry_multiplicity
 _atom_site_fract_x
 _atom_site_fract_y
 _atom_site_fract_z
 _atom_site_occupancy
  V  V0  1  0.37531842  0.12486108  0.74828662  1
  V  V1  1  0.37412151  0.75009810  0.12774208  1
  V  V2  1  0.25038268  0.87431172  0.12580274  1
  V  V3  1  0.37546237  0.38205563  -0.00749876  1
  V  V4  1  0.87684581  0.12831707  0.74624062  1
  V  V5  1  0.12523552  0.74692607  0.87820047  1
  V  V6  1  0.62609656  0.62655039  0.00147174  1
  V  V7  1  0.87553616  0.00336162  0.87601970  1
  V  V8  1  -0.00394717  0.49425732  0.50119846  1
  V  V9  1  0.37033382  0.87511075  0.50342118  1
  V  V10  1  0.37454955  0.25202224  0.61646695  1
  V  V11  1  -0.00447952  0.37355851  0.37669909  1
  V  V12  1  0.37419700  -0.00051149  0.37456703  1
  V  V13  1  0.87622760  0.62701916  0.75103928  1
  V  V14  1  0.62442130  0.62536181  0.49959027  1
  V  V15  1  0.74794975  0.12222295  0.37122580  1
  V  V16  1  0.25016734  0.75085557  0.50340459  1
  V  V17  1  0.62218007  0.37507597  0.24972100  1
  V  V18  1  0.49781903  0.49329502  0.49950073  1
  V  V19  1  0.25276055  0.38007546  0.61716953  1
  V  V20  1  0.12450533  0.74897456  0.37675622  1
  V  V21  1  0.50082724  0.12526127  0.62515856  1
  V  V22  1  0.00110611  -0.00000792  0.49977469  1
  V  V23  1  0.75812882  0.37590128  0.61992462  1
  V  V24  1  -0.00084038  0.74866900  0.25181330  1
  V  V25  1  0.12432021  0.62435886  0.50250518  1
  V  V26  1  0.87049986  0.12047126  0.24673279  1
  V  V27  1  -0.00131479  0.11992139  0.11956131  1
  V  V28  1  0.87375821  0.49481350  0.37760495  1
  V  V29  1  -0.00112601  0.24817213  0.24903719  1
  V  V30  1  0.87870864  0.88062714  0.00045676  1
  V  V31  1  0.87373128  0.62488580  0.25132357  1
  V  V32  1  0.37456412  0.49185863  0.37976538  1
  V  V33  1  0.87130941  -0.00105857  0.37293989  1
  V  V34  1  0.75773298  0.25510517  0.49703669  1
  V  V35  1  0.50038495  0.87395325  0.37517317  1
  V  V36  1  0.62453682  0.75018284  0.37512081  1
  V  V37  1  0.62407683  0.12569685  -0.00333495  1
  V  V38  1  0.74856838  0.49976902  0.25071286  1
  V  V39  1  0.74836768  0.37552232  0.12393234  1
  V  V40  1  0.37516143  -0.00325134  0.87451821  1
  V  V41  1  0.12218444  0.11929481  -0.00199146  1
  V  V42  1  0.50357834  0.75096953  0.74852808  1
  V  V43  1  0.37493540  0.62453180  0.25108218  1
  V  V44  1  -0.00062495  0.62427268  0.12582623  1
  V  V45  1  0.25086920  -0.00224405  0.74739910  1
  V  V46  1  0.37427044  0.24925173  0.12504308  1
  V  V47  1  0.50083027  0.00025035  0.50075330  1
  V  V48  1  0.49937283  0.62479489  0.12646571  1
  V  V49  1  0.24805930  0.37362099  0.12663098  1
  V  V50  1  0.62735856  0.75263962  0.87494054  1
  V  V51  1  0.87450568  0.75188176  0.12572879  1
  V  V52  1  0.87548256  0.75192005  0.62529367  1
  V  V53  1  0.87337579  0.37471058  0.00097847  1
  V  V54  1  0.37202345  0.75219817  0.62653291  1
  V  V55  1  0.74763342  0.25101719  -0.00375574  1
  V  V56  1  0.37599547  0.87559415  0.00300123  1
  V  V57  1  0.12341330  0.37396356  0.24985450  1
  V  V58  1  0.12421619  0.24765718  0.37476746  1
  V  V59  1  0.50036362  0.00091541  0.00009218  1
  V  V60  1  0.12453324  0.87400244  0.24989317  1
  V  V61  1  0.75204549  0.75275379  0.00177848  1
  V  V62  1  0.24948947  0.24784653  -0.00101363  1
  V  V63  1  0.24879217  0.12354695  0.37375084  1
  V  V64  1  0.62579975  0.00100081  0.62498867  1
  V  V65  1  0.75115013  0.87635548  0.62470857  1
  V  V66  1  0.00122040  0.50074703  0.00275074  1
  V  V67  1  0.87601708  0.50166400  0.87574484  1
  V  V68  1  0.12340849  -0.00101826  0.12312220  1
  V  V69  1  0.00158564  0.62441077  0.62560354  1
  V  V70  1  0.49969399  0.62559371  0.62504917  1
  V  V71  1  0.75119492  0.74982018  0.50123876  1
  V  V72  1  0.62626579  0.37386912  0.75094982  1
  V  V73  1  0.62756985  0.87674402  0.75039722  1
  V  V74  1  0.24988001  0.12408650  0.87416548  1
  V  V75  1  0.12594479  0.12368644  0.49899000  1
  V  V76  1  0.75050010  0.50090288  0.74858160  1
  V  V77  1  0.63091644  0.88170808  0.24810898  1
  V  V78  1  0.12948137  -0.00331756  0.62447807  1
  V  V79  1  0.75126185  0.62696083  0.87539140  1
  V  V80  1  0.62331992  0.50215965  0.12408569  1
  V  V81  1  0.00242115  0.37177425  0.87324969  1
  V  V82  1  0.13329488  0.87420878  0.74772395  1
  V  V83  1  0.24996538  0.62380046  0.37665349  1
  V  V84  1  0.49931733  0.24996909  0.24951190  1
  V  V85  1  0.00082243  0.88116177  0.87703308  1
  V  V86  1  0.00100697  0.75065835  0.74994796  1
  V  V87  1  0.24856190  0.49828787  0.25181799  1
  V  V88  1  0.49877152  0.12565517  0.12341872  1
  V  V89  1  -0.00096522  0.87457282  0.37568369  1
  V  V90  1  0.25004513  -0.00059604  0.25039357  1
  V  V91  1  0.62495762  0.25022898  0.37382255  1
  V  V92  1  0.74921274  0.62368463  0.37581396  1
  Zn  Zn93  1  0.12782807  0.62536437  0.00208835  1
  Zn  Zn94  1  0.62593441  0.49878517  0.62326548  1
  Zn  Zn95  1  0.87394442  0.24833933  0.12390282  1
  Zn  Zn96  1  0.49998218  0.25179959  0.74871667  1
  Zn  Zn97  1  0.49570303  0.50436443  -0.00748304  1
  Zn  Zn98  1  0.48979506  0.38460129  0.86222507  1
  Zn  Zn99  1  0.12598802  0.49844225  0.62921639  1
  Zn  Zn100  1  0.61686843  0.25310330  0.87340871  1
  Zn  Zn101  1  0.62656793  0.12626183  0.50139201  1
  Zn  Zn102  1  0.25920889  0.61596991  0.88076455  1
  Zn  Zn103  1  0.12404280  0.24725692  0.87098717  1
  Zn  Zn104  1  0.75613034  0.88378744  0.13130807  1
  Zn  Zn105  1  0.00198169  0.12854973  0.62445493  1
  Zn  Zn106  1  0.49601708  0.36988004  0.38050803  1
  Zn  Zn107  1  0.24801523  0.74795796  0.00291026  1
  Zn  Zn108  1  0.50261687  0.87552414  0.87628011  1
  Zn  Zn109  1  0.63071973  0.00479959  0.12865612  1
  Zn  Zn110  1  0.00302740  0.25159752  0.74385816  1
  Zn  Zn111  1  0.12947975  0.37258677  0.74904787  1
  Zn  Zn112  1  0.87981386  0.25237201  0.61898690  1
  Zn  Zn113  1  0.12397320  0.50082974  0.12791313  1
  Zn  Zn114  1  0.75121128  0.00320734  0.74822639  1
  Zn  Zn115  1  0.50039849  0.74988227  0.25166878  1
  Zn  Zn116  1  0.37928969  0.60887774  0.76800817  1
  Zn  Zn117  1  0.25343899  0.25316671  0.49521694  1
  Zn  Zn118  1  0.37498607  0.12404753  0.24936076  1
  Zn  Zn119  1  0.74811085  0.12697058  0.87089535  1
  Zn  Zn120  1  0.25457768  0.49556901  0.76239684  1
  Zn  Zn121  1  0.87559916  0.87597049  0.50123483  1
  Zn  Zn122  1  0.18659471  0.18628611  0.18695097  1
  Zn  Zn123  1  0.18775319  0.19037411  0.68605686  1
  Zn  Zn124  1  0.18697203  0.68569309  0.18781453  1
  Zn  Zn125  1  0.19223574  0.68220538  0.69320507  1
  Zn  Zn126  1  0.68597461  0.18873736  0.18471370  1
  Zn  Zn127  1  0.69106533  0.18966124  0.68573901  1
  Zn  Zn128  1  0.68711393  0.69255470  0.18847297  1
  Zn  Zn129  1  0.68765929  0.68830693  0.68703810  1
  Zn  Zn130  1  0.31143787  0.31039281  0.31132667  1
  Zn  Zn131  1  0.30926876  0.31047489  0.80621193  1
  Zn  Zn132  1  0.31217001  0.81152555  0.31411090  1
  Zn  Zn133  1  0.32969254  0.78377721  0.83074002  1
  Zn  Zn134  1  0.81267022  0.31067585  0.30980813  1
  Zn  Zn135  1  0.81379718  0.31352500  0.81084253  1
  Zn  Zn136  1  0.81110997  0.81155960  0.31467251  1
  Zn  Zn137  1  0.81255711  0.81498245  0.81231505  1
  Zn  Zn138  1  0.18325850  0.43609925  0.43983090  1
  Zn  Zn139  1  0.18666421  0.43647386  0.93877599  1
  Zn  Zn140  1  0.18782286  0.93645749  0.43715888  1
  Zn  Zn141  1  0.19002959  0.93556791  0.93664266  1
  Zn  Zn142  1  0.68375474  0.43656089  0.43805119  1
  Zn  Zn143  1  0.68548046  0.44060966  0.93552233  1
  Zn  Zn144  1  0.68738316  0.93682559  0.43885184  1
  Zn  Zn145  1  0.69159359  0.94009071  0.93854510  1
  Zn  Zn146  1  0.31159207  0.06144126  0.06218085  1
  Zn  Zn147  1  0.31155065  0.06371814  0.56191498  1
  Zn  Zn148  1  0.30756367  0.56338196  0.06365180  1
  Zn  Zn149  1  0.31610305  0.56453794  0.56368354  1
  Zn  Zn150  1  0.80801537  0.06026603  0.06129536  1
  Zn  Zn151  1  0.81202852  0.06480775  0.55990996  1
  Zn  Zn152  1  0.81246921  0.56326133  0.06348290  1
  Zn  Zn153  1  0.81455356  0.56288309  0.56350479  1
  Zn  Zn154  1  0.43617842  0.43749534  0.18559791  1
  Zn  Zn155  1  0.43494281  0.43741652  0.68417997  1
  Zn  Zn156  1  0.44187876  0.93817833  0.18825128  1
  Zn  Zn157  1  0.43971420  0.93613698  0.68823860  1
  Zn  Zn158  1  0.93488680  0.43613972  0.18880141  1
  Zn  Zn159  1  0.93797294  0.43908457  0.68925379  1
  Zn  Zn160  1  0.93889856  0.93861094  0.18844968  1
  Zn  Zn161  1  0.94080700  0.93999220  0.68893343  1
  Zn  Zn162  1  0.06019855  0.06143463  0.31036376  1
  Zn  Zn163  1  0.06138554  0.06282259  0.80989818  1
  Zn  Zn164  1  0.06171571  0.56094585  0.31486103  1
  Zn  Zn165  1  0.06988367  0.55817468  0.81093993  1
  Zn  Zn166  1  0.55974324  0.06280644  0.31275034  1
  Zn  Zn167  1  0.56122374  0.06223129  0.81187869  1
  Zn  Zn168  1  0.56028691  0.56131383  0.31353671  1
  Zn  Zn169  1  0.56255332  0.55978744  0.81320817  1
  Zn  Zn170  1  0.43842711  0.18410359  0.43663289  1
  Zn  Zn171  1  0.43734440  0.19382228  0.93237402  1
  Zn  Zn172  1  0.43745099  0.68555106  0.43821190  1
  Zn  Zn173  1  0.44203861  0.69042053  0.94189370  1
  Zn  Zn174  1  0.93876095  0.18451605  0.43570359  1
  Zn  Zn175  1  0.93566373  0.18873042  0.93713606  1
  Zn  Zn176  1  0.93635588  0.68404465  0.43933217  1
  Zn  Zn177  1  0.93980697  0.69027606  0.93841621  1
  Zn  Zn178  1  0.06269486  0.30838814  0.06188210  1
  Zn  Zn179  1  0.06600707  0.31092007  0.56260696  1
  Zn  Zn180  1  0.06021411  0.81245623  0.06295296  1
  Zn  Zn181  1  0.06235265  0.81364758  0.56333271  1
  Zn  Zn182  1  0.56009571  0.31295104  0.06242690  1
  Zn  Zn183  1  0.56911823  0.31011822  0.56558130  1
  Zn  Zn184  1  0.56042034  0.81135967  0.06491748  1
  Zn  Zn185  1  0.56287841  0.81442231  0.56191211  1
  O  O186  1  0.11772524  0.11936028  0.11794517  1
  O  O187  1  0.12452867  0.11392739  0.61794213  1
  O  O188  1  0.11415172  0.62201473  0.12492710  1
  O  O189  1  0.11836239  0.62520863  0.61932691  1
  O  O190  1  0.61785467  0.12699068  0.11272242  1
  O  O191  1  0.61968176  0.11909551  0.62406411  1
  O  O192  1  0.62069847  0.62237526  0.12140328  1
  O  O193  1  0.61484454  0.62618424  0.61894751  1
  O  O194  1  0.37528961  0.38794470  0.37118737  1
  O  O195  1  0.36859337  0.36897765  0.89146519  1
  O  O196  1  0.38017802  0.87885846  0.38353804  1
  O  O197  1  0.37764002  0.87855744  0.88435722  1
  O  O198  1  0.88231432  0.38244495  0.36646775  1
  O  O199  1  0.88107461  0.38242058  0.88153534  1
  O  O200  1  0.87932895  0.88417828  0.37441292  1
  O  O201  1  0.88242379  0.88185924  0.87987477  1
  O  O202  1  0.25421095  0.00338301  0.36898066  1
  O  O203  1  0.25628024  0.00438115  0.86809136  1
  O  O204  1  0.25606596  0.50396701  0.37296082  1
  O  O205  1  0.24526585  0.50376894  0.87708582  1
  O  O206  1  0.75966709  0.01045342  0.38173666  1
  O  O207  1  0.76376395  0.00295885  0.87161487  1
  O  O208  1  0.75319827  0.50446101  0.37036383  1
  O  O209  1  0.75710722  0.50801605  0.87001903  1
  O  O210  1  0.24653402  0.49219336  0.13484540  1
  O  O211  1  0.25264547  0.48576313  0.61786580  1
  O  O212  1  0.24372223  0.99399118  0.13137427  1
  O  O213  1  0.23783518  1.00292736  0.63062513  1
  O  O214  1  0.74447986  0.49596341  0.13159135  1
  O  O215  1  0.75022263  0.49362217  0.62913357  1
  O  O216  1  0.74256341  0.99475006  0.12123623  1
  O  O217  1  0.74397678  0.99393468  0.62324331  1
  O  O218  1  0.00365871  0.36809479  0.25467549  1
  O  O219  1  -0.00216023  0.37572601  0.76392411  1
  O  O220  1  0.00515065  0.86832044  0.25586646  1
  O  O221  1  0.00866413  0.87044138  0.75877208  1
  O  O222  1  0.50563349  0.36799119  0.25010399  1
  O  O223  1  0.51523458  0.37554283  0.74188186  1
  O  O224  1  0.50936314  0.87199821  0.25835199  1
  O  O225  1  0.51115265  0.86933411  0.75070707  1
  O  O226  1  0.49902490  0.13176588  0.24214108  1
  O  O227  1  0.49265668  0.12506545  0.74196328  1
  O  O228  1  0.49282946  0.62548857  0.24466987  1
  O  O229  1  0.50133683  0.63225611  0.73910825  1
  O  O230  1  0.99117217  0.12880311  0.24195969  1
  O  O231  1  0.98929185  0.12641474  0.74839758  1
  O  O232  1  0.99318036  0.62942520  0.24731269  1
  O  O233  1  0.99510202  0.63027254  0.74538672  1
  O  O234  1  0.36761646  0.25664653  0.00673908  1
  O  O235  1  0.37343381  0.24182439  0.51156463  1
  O  O236  1  0.37438896  0.75976748  0.01197077  1
  O  O237  1  0.37124981  0.75697208  0.50577830  1
  O  O238  1  0.86421679  0.25532687  0.00216176  1
  O  O239  1  0.86136366  0.24526952  0.49560069  1
  O  O240  1  0.87188676  0.75904373  0.00558145  1
  O  O241  1  0.86919471  0.75030022  0.50682932  1
  O  O242  1  0.12602968  0.24050006  0.49015737  1
  O  O243  1  0.13119380  0.23592118  0.99890806  1
  O  O244  1  0.12955533  0.74548934  0.49576055  1
  O  O245  1  0.12163007  0.74956793  0.99149706  1
  O  O246  1  0.63620160  0.24743169  0.49151026  1
  O  O247  1  0.63076800  0.24407451  0.99826405  1
  O  O248  1  0.63140778  0.74555888  0.49476553  1
  O  O249  1  0.63207392  0.74676212  0.99613226  1
  O  O250  1  0.49413274  0.24436748  0.13006141  1
  O  O251  1  0.49296913  0.24335334  0.62428340  1
  O  O252  1  0.49212415  0.74213382  0.12912260  1
  O  O253  1  0.49548538  0.74303983  0.62646000  1
  O  O254  1  0.99777623  0.23715557  0.13049470  1
  O  O255  1  0.99526841  0.24739863  0.62432466  1
  O  O256  1  0.99338762  0.74519523  0.13302885  1
  O  O257  1  0.99524446  0.74498519  0.63039034  1
  O  O258  1  0.00418817  0.25342748  0.36855358  1
  O  O259  1  -0.00127411  0.26251849  0.87663938  1
  O  O260  1  0.00418685  0.75359404  0.37124948  1
  O  O261  1  0.00475516  0.76150261  0.86948808  1
  O  O262  1  0.50563382  0.25003251  0.36926423  1
  O  O263  1  0.49948394  0.26354376  0.86698241  1
  O  O264  1  0.50671764  0.75549212  0.37659997  1
  O  O265  1  0.51217911  0.75347643  0.86746677  1
  O  O266  1  0.24206304  0.12349014  0.49045824  1
  O  O267  1  0.24215566  0.12803795  0.99468615  1
  O  O268  1  0.24437933  0.63046277  0.49550152  1
  O  O269  1  0.24475577  0.63092422  0.99844830  1
  O  O270  1  0.74860945  0.13385246  0.48683317  1
  O  O271  1  0.74070348  0.13490060  0.99837703  1
  O  O272  1  0.74452086  0.62949135  0.49555311  1
  O  O273  1  0.74691563  0.63267737  0.99542917  1
  O  O274  1  0.25652192  0.36769940  0.00740445  1
  O  O275  1  0.24709254  0.37110283  0.51059108  1
  O  O276  1  0.25715729  0.87495347  0.00972316  1
  O  O277  1  0.26250718  0.86784987  0.49306891  1
  O  O278  1  0.75264649  0.36985942  0.00410545  1
  O  O279  1  0.74447307  0.36734083  0.50760760  1
  O  O280  1  0.76404159  0.86905447  -0.00127922  1
  O  O281  1  0.75269484  0.86738308  0.50612497  1
  O  O282  1  0.13038544  0.49196618  0.25214320  1
  O  O283  1  0.13051076  0.49170663  0.74430771  1
  O  O284  1  0.12933263  0.99271093  0.24450624  1
  O  O285  1  0.12950686  0.99343412  0.74308077  1
  O  O286  1  0.63003358  0.49569282  0.24483717  1
  O  O287  1  0.63453837  0.49367812  0.74580555  1
  O  O288  1  0.61986853  0.98482747  0.25204198  1
  O  O289  1  0.62760801  0.99469454  0.74342139  1
  O  O290  1  0.36852673  -0.00070801  0.25699748  1
  O  O291  1  0.37001721  0.00281998  0.75365015  1
  O  O292  1  0.36875254  0.50490178  0.25895418  1
  O  O293  1  0.37096630  0.50001684  0.74740068  1
  O  O294  1  0.88025964  0.00968970  0.26089501  1
  O  O295  1  0.87509698  0.00818953  0.75853430  1
  O  O296  1  0.86761565  0.50582905  0.25609038  1
  O  O297  1  0.87040345  0.50827387  0.75678690  1
  O  O298  1  0.11699295  0.36778946  0.36886348  1
  O  O299  1  0.11137760  0.37103271  0.87892817  1
  O  O300  1  0.11929100  0.86866331  0.36960355  1
  O  O301  1  0.11543752  0.87229237  0.86958248  1
  O  O302  1  0.62232693  0.36799670  0.36663456  1
  O  O303  1  0.62957960  0.37535912  0.85990595  1
  O  O304  1  0.62078634  0.87055354  0.36797483  1
  O  O305  1  0.62786382  0.86991823  0.86914445  1
  O  O306  1  0.38084027  0.13099881  0.12492888  1
  O  O307  1  0.38016957  0.12919766  0.62943699  1
  O  O308  1  0.37895719  0.62941346  0.13186017  1
  O  O309  1  0.38858966  0.63754424  0.61981933  1
  O  O310  1  0.88154781  0.12220309  0.13086573  1
  O  O311  1  0.87707691  0.12445458  0.63463216  1
  O  O312  1  0.87911175  0.63146077  0.13234862  1
  O  O313  1  0.88095795  0.63221141  0.63213637  1
  O  O314  1  0.25397093  0.25330211  0.12000873  1
  O  O315  1  0.25830145  0.25627996  0.61961888  1
  O  O316  1  0.25565109  0.75772244  0.12777621  1
  O  O317  1  0.26396140  0.74259485  0.61828831  1
  O  O318  1  0.74937232  0.25664236  0.11300341  1
  O  O319  1  0.75366504  0.25764752  0.61298798  1
  O  O320  1  0.75806896  0.75588746  0.12008606  1
  O  O321  1  0.75619579  0.75534912  0.62012520  1
  O  O322  1  0.24290959  0.24232670  0.37429394  1
  O  O323  1  0.24887163  0.24042336  0.88115894  1
  O  O324  1  0.24375103  0.74345764  0.38184322  1
  O  O325  1  0.22973263  0.75880563  0.88039455  1
  O  O326  1  0.74553968  0.24305205  0.37862525  1
  O  O327  1  0.74846318  0.25101747  0.88813632  1
  O  O328  1  0.74553665  0.74250878  0.38176027  1
  O  O329  1  0.74744508  0.74558594  0.88103465  1
  O  O330  1  0.00834855  0.13022130  0.00966559  1
  O  O331  1  0.00850635  0.11601542  0.49776672  1
  O  O332  1  -0.00372997  0.61494067  0.00703767  1
  O  O333  1  0.00535741  0.61754727  0.50557092  1
  O  O334  1  0.50650137  0.12281801  0.00296410  1
  O  O335  1  0.50301164  0.11664829  0.50636797  1
  O  O336  1  0.50834302  0.62605247  0.00855562  1
  O  O337  1  0.50583526  0.61864938  0.50647299  1
  O  O338  1  0.50861668  0.38987807  0.50180055  1
  O  O339  1  0.48120009  0.37415853  1.00334016  1
  O  O340  1  0.49224244  0.88040557  0.49401252  1
  O  O341  1  0.49474341  0.88286971  1.00097351  1
  O  O342  1  1.00672016  0.38728862  0.49319790  1
  O  O343  1  0.99346590  0.38183958  0.99634884  1
  O  O344  1  0.99843941  0.88112688  0.49240677  1
  O  O345  1  0.98856358  0.87055868  0.98976416  1
  O  O346  1  0.49132699  0.49845582  0.38266366  1
  O  O347  1  0.50212669  0.49579699  0.88054768  1
  O  O348  1  0.49343222  0.99495703  0.38127916  1
  O  O349  1  0.49206923  0.99828260  0.88153454  1
  O  O350  1  0.99390854  0.49458423  0.38220078  1
  O  O351  1  0.99488853  0.49368121  0.88487556  1
  O  O352  1  0.99201949  0.99426607  0.37883980  1
  O  O353  1  0.99121260  0.98863014  0.86936409  1
  O  O354  1  0.00702513  0.01229786  0.13097788  1
  O  O355  1  0.01181507  0.00143640  0.61839468  1
  O  O356  1  -0.00319269  0.50467689  0.11768487  1
  O  O357  1  -0.00161878  0.50561559  0.61613040  1
  O  O358  1  0.50459894  0.00789377  0.11795163  1
  O  O359  1  0.50559822  0.00511838  0.61965812  1
  O  O360  1  0.50610492  0.50721768  0.12141275  1
  O  O361  1  0.50053469  0.51105573  0.61532880  1
  O  O362  1  0.24268593  0.37866850  0.24640741  1
  O  O363  1  0.24983581  0.37451107  0.73300558  1
  O  O364  1  0.24317468  0.87953552  0.24641903  1
  O  O365  1  0.23503763  0.87995301  0.75710848  1
  O  O366  1  0.74289318  0.37988695  0.24387915  1
  O  O367  1  0.74586731  0.38110923  0.74203682  1
  O  O368  1  0.73472643  0.87122903  0.25301089  1
  O  O369  1  0.74476731  0.87687069  0.74217023  1
  O  O370  1  0.24991768  0.11658100  0.25550187  1
  O  O371  1  0.25550238  0.11717276  0.75471229  1
  O  O372  1  0.25408054  0.61831597  0.25735649  1
  O  O373  1  0.25745778  0.62007768  0.75801159  1
  O  O374  1  0.75905941  0.13187576  0.25890450  1
  O  O375  1  0.76130881  0.12409598  0.75245369  1
  O  O376  1  0.75420496  0.62007636  0.25594314  1
  O  O377  1  0.75636819  0.62190943  0.75514314  1
  O  O378  1  0.36773655  0.11650080  0.37288231  1
  O  O379  1  0.36951283  0.11781798  0.86899468  1
  O  O380  1  0.36863096  0.61685192  0.37087096  1
  O  O381  1  0.36453975  0.67022203  0.86483925  1
  O  O382  1  0.86826876  0.11751415  0.36566998  1
  O  O383  1  0.87636120  0.11629006  0.86904025  1
  O  O384  1  0.86839909  0.61781475  0.36963155  1
  O  O385  1  0.87106931  0.62242221  0.87044876  1
  O  O386  1  0.12969826  0.37429443  0.13206025  1
  O  O387  1  0.14071567  0.37447019  0.62415966  1
  O  O388  1  0.12815126  0.87915109  0.13079871  1
  O  O389  1  0.11913848  0.88415165  0.63587810  1
  O  O390  1  0.62915775  0.38171770  0.12920598  1
  O  O391  1  0.63897418  0.37695018  0.63319577  1
  O  O392  1  0.62355926  0.87259501  0.14185513  1
  O  O393  1  0.63113007  0.88050721  0.63004131  1
  O  O394  1  0.11831720  0.25344904  0.25528938  1
  O  O395  1  0.12057727  0.25279281  0.75430303  1
  O  O396  1  0.11873919  0.75421049  0.25724035  1
  O  O397  1  0.11964287  0.75764124  0.75639489  1
  O  O398  1  0.61939580  0.25555192  0.25387979  1
  O  O399  1  0.62675604  0.26068382  0.75038497  1
  O  O400  1  0.62242027  0.75930897  0.25852614  1
  O  O401  1  0.62266654  0.75634696  0.75470836  1
  O  O402  1  0.38102839  0.24778018  0.24323095  1
  O  O403  1  0.37548090  0.24117003  0.73669337  1
  O  O404  1  0.37574486  0.74259879  0.24645468  1
  O  O405  1  0.38684962  0.76285893  0.73296203  1
  O  O406  1  0.87997904  0.23680397  0.24727704  1
  O  O407  1  0.87684479  0.23861560  0.74952313  1
  O  O408  1  0.87966180  0.74501495  0.24691160  1
  O  O409  1  0.88122126  0.74619927  0.74582903  1
  O  O410  1  0.38587143  0.50799523  0.48937867  1
  O  O411  1  0.37235853  0.48396653  1.00755711  1
  O  O412  1  0.37893550  0.99179784  0.49571960  1
  O  O413  1  0.38008026  0.99517423  0.99481821  1
  O  O414  1  0.88758122  0.50765476  0.49262172  1
  O  O415  1  0.88171596  0.49552904  0.99581972  1
  O  O416  1  0.88170337  1.00065058  0.48785965  1
  O  O417  1  0.87248194  0.99074819  0.98939982  1
  O  O418  1  0.13132102  0.01190534  0.00602576  1
  O  O419  1  0.12174831  0.00154138  0.50665223  1
  O  O420  1  0.10889677  0.50029405  0.00480077  1
  O  O421  1  0.11315060  0.50768759  0.50148530  1
  O  O422  1  0.61892048  0.01132577  -0.00272217  1
  O  O423  1  0.61803017  0.00076080  0.50644434  1
  O  O424  1  0.62774124  0.50958278  0.00828661  1
  O  O425  1  0.61596969  0.50847016  0.50006720  1
  O  O426  1  0.36658731  0.36784676  0.11922312  1
  O  O427  1  0.36416141  0.36331173  0.62496584  1
  O  O428  1  0.37003089  0.87125190  0.12334469  1
  O  O429  1  0.38340158  0.86710688  0.61070240  1
  O  O430  1  0.86638349  0.37269646  0.11946871  1
  O  O431  1  0.86153662  0.37399231  0.63122425  1
  O  O432  1  0.87856668  0.87142192  0.11685201  1
  O  O433  1  0.87086551  0.86970106  0.62481037  1
  O  O434  1  0.12905363  0.12750520  0.37796165  1
  O  O435  1  0.12961006  0.12146311  0.88355029  1
  O  O436  1  0.12979184  0.63028946  0.38136373  1
  O  O437  1  0.11587173  0.64033018  0.87780137  1
  O  O438  1  0.63477741  0.12994518  0.37246242  1
  O  O439  1  0.62538504  0.12893306  0.88517028  1
  O  O440  1  0.63043286  0.62960099  0.37935748  1
  O  O441  1  0.63317245  0.63262370  0.88087663  1
