# generated using pymatgen
data_V93Zn93O256
_symmetry_space_group_name_H-M   'P 1'
_cell_length_a   17.06386236
_cell_length_b   17.05917949
_cell_length_c   17.06370427
_cell_angle_alpha   89.90061666
_cell_angle_beta   89.94255280
_cell_angle_gamma   89.96019762
_symmetry_Int_Tables_number   1
_chemical_formula_structural   V93Zn93O256
_chemical_formula_sum   'V93 Zn93 O256'
_cell_volume   4967.15620734
_cell_formula_units_Z   1
loop_
 _symmetry_equiv_pos_site_id
 _symmetry_equiv_pos_as_xyz
  1  'x, y, z'
loop_
 _atom_site_type_symbol
 _atom_site_label
 _atom_site_symmetry_multiplicity
 _atom_site_fract_x
 _atom_site_fract_y
 _atom_site_fract_z
 _atom_site_occupancy
  V  V0  1  0.50047042  0.00130751  -0.00100122  1
  V  V1  1  0.37456686  0.00000337  0.87504199  1
  V  V2  1  0.62455601  0.37348563  0.74904177  1
  V  V3  1  0.74954081  0.74688171  0.50018961  1
  V  V4  1  0.49964903  0.37430690  0.37548746  1
  V  V5  1  0.74980709  0.12540779  0.87589318  1
  V  V6  1  0.75118914  0.62483540  0.87452052  1
  V  V7  1  -0.00032919  0.24952948  0.24895413  1
  V  V8  1  -0.00082108  0.75098523  0.74960294  1
  V  V9  1  0.37463945  0.62429179  0.24919461  1
  V  V10  1  0.25055457  0.25017446  0.00087450  1
  V  V11  1  0.37403031  0.49814446  0.37416722  1
  V  V12  1  0.37576515  0.50279911  0.86913915  1
  V  V13  1  0.62374307  0.00098053  0.12447761  1
  V  V14  1  0.50481948  0.11978972  0.62537736  1
  V  V15  1  0.62556099  0.37448223  0.25115223  1
  V  V16  1  0.87582610  0.37548798  -0.00103836  1
  V  V17  1  0.87469018  0.12555846  0.24881157  1
  V  V18  1  0.87453485  0.37191862  0.50732577  1
  V  V19  1  0.62556127  0.50013814  0.12539247  1
  V  V20  1  0.25022262  0.49870787  0.24921437  1
  V  V21  1  0.62332550  0.50553169  0.62380530  1
  V  V22  1  0.87582757  0.87573853  0.49957861  1
  V  V23  1  0.37626170  0.12587711  0.74997056  1
  V  V24  1  0.24970086  -0.00023194  0.74998939  1
  V  V25  1  0.49958316  0.87431937  0.87130889  1
  V  V26  1  0.75001530  0.49990577  0.74943055  1
  V  V27  1  0.62608073  0.62556594  -0.00000980  1
  V  V28  1  0.12551208  0.87497794  0.75012044  1
  V  V29  1  0.87550217  0.50045184  0.87418607  1
  V  V30  1  0.25021502  0.00032568  0.25134304  1
  V  V31  1  0.24966241  0.12568945  0.87463338  1
  V  V32  1  0.37494411  -0.00084000  0.37731381  1
  V  V33  1  0.25003478  0.74906108  0.50034473  1
  V  V34  1  0.49840655  0.49701672  -0.00049651  1
  V  V35  1  0.62513230  0.75044764  0.87248220  1
  V  V36  1  0.62478985  0.12188378  0.50176001  1
  V  V37  1  0.00114489  0.00095937  -0.00045824  1
  V  V38  1  0.00163513  0.62637495  0.62319268  1
  V  V39  1  0.12529898  0.75032559  0.37589627  1
  V  V40  1  0.25183059  0.87230006  0.62584157  1
  V  V41  1  0.75106083  0.24964996  -0.00058492  1
  V  V42  1  0.87459411  -0.00044612  0.37521166  1
  V  V43  1  0.87394413  0.62421861  0.25179015  1
  V  V44  1  0.12498263  0.00133519  0.12457952  1
  V  V45  1  0.12508724  0.49093643  0.63031762  1
  V  V46  1  0.74910839  0.12446842  0.37507871  1
  V  V47  1  0.49297675  0.73461348  0.74437036  1
  V  V48  1  0.62452703  0.24966622  0.37635132  1
  V  V49  1  0.50086368  0.25290338  0.74933801  1
  V  V50  1  0.87621339  0.00017432  0.87454103  1
  V  V51  1  0.12460593  0.87610011  0.25062802  1
  V  V52  1  0.62446167  0.87463800  0.25003740  1
  V  V53  1  0.75048763  0.49976044  0.25066471  1
  V  V54  1  0.49983072  0.74986095  0.25060245  1
  V  V55  1  0.24801545  0.12408893  0.37853343  1
  V  V56  1  0.37590994  0.12557417  0.25046447  1
  V  V57  1  -0.00223909  0.37733164  0.37528574  1
  V  V58  1  0.25418096  0.62432803  0.86779873  1
  V  V59  1  -0.00084271  0.87608522  0.37566941  1
  V  V60  1  -0.00265586  0.24999670  0.74606706  1
  V  V61  1  0.12548952  0.37395381  0.25060244  1
  V  V62  1  -0.00053071  0.75075813  0.24953620  1
  V  V63  1  0.87505542  0.87548082  0.00050903  1
  V  V64  1  0.49899974  0.50491680  0.50379392  1
  V  V65  1  0.62519942  0.74846530  0.37618150  1
  V  V66  1  0.12404177  0.24417992  0.37961903  1
  V  V67  1  0.50042499  0.62538438  0.12530405  1
  V  V68  1  0.24776643  0.62489275  0.37344913  1
  V  V69  1  0.75177825  0.37412661  0.12505506  1
  V  V70  1  0.75263413  0.25049300  0.50698767  1
  V  V71  1  0.37582019  0.87258377  0.50385584  1
  V  V72  1  0.37472248  0.75090232  0.12475027  1
  V  V73  1  0.12489416  0.49913892  0.12444914  1
  V  V74  1  0.12425269  0.12480589  -0.00093413  1
  V  V75  1  0.24899070  0.24782635  0.49972529  1
  V  V76  1  0.75030439  0.87358367  0.12362755  1
  V  V77  1  0.12632251  0.74868132  0.87522817  1
  V  V78  1  0.50442648  -0.00152350  0.50349381  1
  V  V79  1  0.00379614  0.37628268  0.87040712  1
  V  V80  1  0.25031845  0.74913218  -0.00026599  1
  V  V81  1  0.37268019  0.37322577  0.50609402  1
  V  V82  1  0.00147219  0.62416338  0.12297768  1
  V  V83  1  0.25092206  0.37272432  0.12458170  1
  V  V84  1  0.49945397  0.24831533  0.24987158  1
  V  V85  1  0.87416836  0.75153434  0.62505093  1
  V  V86  1  0.49971013  0.87428742  0.37706518  1
  V  V87  1  0.00085254  0.87470104  0.87515943  1
  V  V88  1  0.74449493  -0.00216169  0.74326043  1
  V  V89  1  0.12719349  0.25506624  0.86827231  1
  V  V90  1  0.12111578  0.00654288  0.61937497  1
  V  V91  1  0.25052294  0.87458081  0.12504590  1
  V  V92  1  0.87671224  0.12852669  0.74211325  1
  Zn  Zn93  1  0.12362682  0.62185381  0.49785259  1
  Zn  Zn94  1  0.62417676  0.25190515  0.87587547  1
  Zn  Zn95  1  0.87762903  0.25001239  0.12437368  1
  Zn  Zn96  1  0.37554664  0.37227697  0.00055127  1
  Zn  Zn97  1  0.87176668  0.49923207  0.37768635  1
  Zn  Zn98  1  0.37713731  0.24907251  0.12331534  1
  Zn  Zn99  1  0.75471417  0.37233722  0.62785239  1
  Zn  Zn100  1  0.62120782  0.62558514  0.50089509  1
  Zn  Zn101  1  0.75177894  0.75018573  -0.00231770  1
  Zn  Zn102  1  0.61925432  0.87961285  0.74117456  1
  Zn  Zn103  1  0.49841900  0.37283740  0.87568544  1
  Zn  Zn104  1  0.24646518  0.49116509  0.75427392  1
  Zn  Zn105  1  0.37317751  0.24942752  0.62585571  1
  Zn  Zn106  1  0.00140777  0.49952710  -0.00186641  1
  Zn  Zn107  1  0.37337195  0.72883477  0.62645092  1
  Zn  Zn108  1  -0.00190723  0.50080778  0.50025945  1
  Zn  Zn109  1  0.74759497  0.62226533  0.37557549  1
  Zn  Zn110  1  0.87520660  0.74990979  0.12318176  1
  Zn  Zn111  1  0.12575104  0.62248260  -0.00179252  1
  Zn  Zn112  1  0.87427531  0.62533841  0.74948288  1
  Zn  Zn113  1  -0.00059513  0.12663705  0.12320100  1
  Zn  Zn114  1  0.24398615  0.36789863  0.63773747  1
  Zn  Zn115  1  0.62489179  0.12735911  0.00065887  1
  Zn  Zn116  1  0.74916223  -0.00005349  0.25077736  1
  Zn  Zn117  1  0.49878538  0.12651864  0.12443501  1
  Zn  Zn118  1  0.00295337  0.00903245  0.49608861  1
  Zn  Zn119  1  0.74379176  0.87912703  0.62004186  1
  Zn  Zn120  1  0.37431088  0.87507541  0.00031213  1
  Zn  Zn121  1  0.00031235  0.13562664  0.61504955  1
  Zn  Zn122  1  0.18766432  0.18686104  0.18852050  1
  Zn  Zn123  1  0.18792267  0.18806710  0.68763270  1
  Zn  Zn124  1  0.18654098  0.68804844  0.18773162  1
  Zn  Zn125  1  0.18692078  0.68461655  0.68672161  1
  Zn  Zn126  1  0.68773265  0.18772717  0.18727283  1
  Zn  Zn127  1  0.68661842  0.18488687  0.68784815  1
  Zn  Zn128  1  0.68758222  0.68815777  0.18784562  1
  Zn  Zn129  1  0.68618576  0.68816697  0.68761655  1
  Zn  Zn130  1  0.31302264  0.31155774  0.31340795  1
  Zn  Zn131  1  0.31742380  0.31912542  0.81288015  1
  Zn  Zn132  1  0.31277408  0.81273664  0.31356526  1
  Zn  Zn133  1  0.31443194  0.81139709  0.81215603  1
  Zn  Zn134  1  0.81243595  0.31080072  0.31591685  1
  Zn  Zn135  1  0.81476978  0.31317729  0.81244353  1
  Zn  Zn136  1  0.81182893  0.81155422  0.31229215  1
  Zn  Zn137  1  0.81410011  0.81346132  0.81203875  1
  Zn  Zn138  1  0.18423411  0.43720107  0.44150296  1
  Zn  Zn139  1  0.18823991  0.43819112  0.93978630  1
  Zn  Zn140  1  0.18856841  0.93527943  0.43923471  1
  Zn  Zn141  1  0.18777180  0.93630973  0.93833316  1
  Zn  Zn142  1  0.68817213  0.43683034  0.43794938  1
  Zn  Zn143  1  0.68723304  0.43689421  0.93607165  1
  Zn  Zn144  1  0.68781885  0.93689062  0.43819249  1
  Zn  Zn145  1  0.68718218  0.93739232  0.93532902  1
  Zn  Zn146  1  0.31333422  0.06420942  0.06325707  1
  Zn  Zn147  1  0.31462930  0.06243087  0.56462245  1
  Zn  Zn148  1  0.31151905  0.56335868  0.05938988  1
  Zn  Zn149  1  0.30500258  0.55883656  0.55796259  1
  Zn  Zn150  1  0.81327280  0.06114279  0.06302747  1
  Zn  Zn151  1  0.81524431  0.06420737  0.56028851  1
  Zn  Zn152  1  0.81364060  0.56183805  0.06144703  1
  Zn  Zn153  1  0.81402072  0.56001123  0.56364483  1
  Zn  Zn154  1  0.43678390  0.43492254  0.18611354  1
  Zn  Zn155  1  0.43807069  0.55457395  0.68459667  1
  Zn  Zn156  1  0.43683590  0.93768384  0.18859960  1
  Zn  Zn157  1  0.43610104  0.93642583  0.68711843  1
  Zn  Zn158  1  0.93674291  0.43780543  0.18745537  1
  Zn  Zn159  1  0.93919437  0.43912450  0.68870414  1
  Zn  Zn160  1  0.93749857  0.93976200  0.18738040  1
  Zn  Zn161  1  0.93449132  0.93788071  0.68729733  1
  Zn  Zn162  1  0.06078841  0.06307465  0.31270639  1
  Zn  Zn163  1  0.06313657  0.06432901  0.81034026  1
  Zn  Zn164  1  0.06256261  0.56218637  0.31016987  1
  Zn  Zn165  1  0.06354427  0.56497906  0.81050583  1
  Zn  Zn166  1  0.56200921  0.06205488  0.31404615  1
  Zn  Zn167  1  0.56363018  0.06533243  0.81349195  1
  Zn  Zn168  1  0.56248820  0.56224787  0.31488160  1
  Zn  Zn169  1  0.56684478  0.56023088  0.81610610  1
  Zn  Zn170  1  0.43651428  0.18629924  0.43716112  1
  Zn  Zn171  1  0.43658498  0.18766070  0.93633737  1
  Zn  Zn172  1  0.43402039  0.68694614  0.43756916  1
  Zn  Zn173  1  0.43642116  0.68619877  0.93789482  1
  Zn  Zn174  1  0.93561739  0.18768540  0.43809212  1
  Zn  Zn175  1  0.93765416  0.18827087  0.93359144  1
  Zn  Zn176  1  0.93706068  0.68917433  0.43761655  1
  Zn  Zn177  1  0.93608078  0.68896173  0.93820307  1
  Zn  Zn178  1  0.06332243  0.31163376  0.06049530  1
  Zn  Zn179  1  0.06137078  0.31193047  0.55907650  1
  Zn  Zn180  1  0.06405831  0.81191663  0.06204824  1
  Zn  Zn181  1  0.06356986  0.81558337  0.56167140  1
  Zn  Zn182  1  0.56504279  0.31157957  0.06512251  1
  Zn  Zn183  1  0.56186489  0.31380470  0.56486452  1
  Zn  Zn184  1  0.56227569  0.81338899  0.06045369  1
  Zn  Zn185  1  0.56522293  0.81262515  0.56612492  1
  O  O186  1  0.12419196  0.11827880  0.11820476  1
  O  O187  1  0.12425554  0.10851113  0.63200816  1
  O  O188  1  0.11524876  0.61919319  0.12726579  1
  O  O189  1  0.11428719  0.61934910  0.62195169  1
  O  O190  1  0.62444220  0.11182963  0.12345158  1
  O  O191  1  0.61237167  0.12943629  0.61838950  1
  O  O192  1  0.61994364  0.61998665  0.12062089  1
  O  O193  1  0.62922943  0.60968980  0.62259644  1
  O  O194  1  0.38021064  0.38010842  0.38082084  1
  O  O195  1  0.38046365  0.38694943  0.88319857  1
  O  O196  1  0.38032881  0.87941335  0.38206416  1
  O  O197  1  0.38429301  0.88130451  0.87661539  1
  O  O198  1  0.88486986  0.37492675  0.38095613  1
  O  O199  1  0.88285036  0.38070398  0.88005328  1
  O  O200  1  0.88014086  0.87953589  0.37818958  1
  O  O201  1  0.88166467  0.88038640  0.88048457  1
  O  O202  1  0.25457319  0.00375116  0.37145519  1
  O  O203  1  0.25428898  0.00496745  0.86999214  1
  O  O204  1  0.25366794  0.50385486  0.36879707  1
  O  O205  1  0.25804240  0.50773649  0.87847154  1
  O  O206  1  0.75575914  0.00649137  0.37250807  1
  O  O207  1  0.75636374  0.00853929  0.86942513  1
  O  O208  1  0.75080452  0.50260767  0.36624923  1
  O  O209  1  0.75475470  0.50510491  0.86943147  1
  O  O210  1  0.24517499  0.49479080  0.13046894  1
  O  O211  1  0.23228370  0.49738574  0.62397578  1
  O  O212  1  0.24491608  0.99469272  0.13105023  1
  O  O213  1  0.24136754  0.99483249  0.63061012  1
  O  O214  1  0.74438352  0.49404912  0.12971912  1
  O  O215  1  0.74212448  0.49595639  0.63104498  1
  O  O216  1  0.74028082  0.99032866  0.12463335  1
  O  O217  1  0.75519947  1.00320831  0.64128236  1
  O  O218  1  0.00427989  0.36970401  0.25726039  1
  O  O219  1  -0.00813124  0.36534908  0.76322830  1
  O  O220  1  0.00497507  0.87065466  0.25474488  1
  O  O221  1  0.00450024  0.87040147  0.75634919  1
  O  O222  1  0.50617747  0.36979796  0.25543886  1
  O  O223  1  0.51182830  0.36080657  0.75132083  1
  O  O224  1  0.50444065  0.86909916  0.25639369  1
  O  O225  1  0.50017052  0.87096710  0.76140355  1
  O  O226  1  0.49378945  0.13030158  0.25083258  1
  O  O227  1  0.49797335  0.13105857  0.74390612  1
  O  O228  1  0.49452089  0.62986738  0.24463763  1
  O  O229  1  0.50076618  0.63145076  0.75242995  1
  O  O230  1  0.98970455  0.13072658  0.25000367  1
  O  O231  1  0.99122918  0.13318097  0.75146566  1
  O  O232  1  0.99287430  0.62924347  0.24188896  1
  O  O233  1  0.99834854  0.63331203  0.73988177  1
  O  O234  1  0.36654671  0.25031636  0.00138140  1
  O  O235  1  0.36639415  0.25746792  0.49649185  1
  O  O236  1  0.37026968  0.75241285  0.00775354  1
  O  O237  1  0.36913105  0.75534913  0.50324323  1
  O  O238  1  0.86529754  0.25495593  -0.00060690  1
  O  O239  1  0.86227163  0.25943097  0.49197280  1
  O  O240  1  0.87193015  0.75931496  0.00324040  1
  O  O241  1  0.86767684  0.75610265  0.50398127  1
  O  O242  1  0.13481968  0.25664917  0.48809912  1
  O  O243  1  0.12994263  0.24380102  0.98947862  1
  O  O244  1  0.13205332  0.75036167  0.49237718  1
  O  O245  1  0.13206863  0.74925985  0.99245507  1
  O  O246  1  0.63116603  0.24485184  0.49442989  1
  O  O247  1  0.63813509  0.24896405  0.99778614  1
  O  O248  1  0.63292039  0.74708054  0.49523687  1
  O  O249  1  0.62338920  0.74518049  0.98735182  1
  O  O250  1  0.49998334  0.24652142  0.13312319  1
  O  O251  1  0.49772256  0.24070220  0.63345489  1
  O  O252  1  0.49619904  0.74552565  0.13028496  1
  O  O253  1  0.49937885  0.75096031  0.64306868  1
  O  O254  1  0.99845136  0.24750195  0.13268105  1
  O  O255  1  1.01255518  0.25068596  0.64232191  1
  O  O256  1  1.00062247  0.74111403  0.13129151  1
  O  O257  1  0.99587355  0.74493946  0.62923133  1
  O  O258  1  0.00699328  0.25788110  0.37002671  1
  O  O259  1  0.00791420  0.25676134  0.86803857  1
  O  O260  1  0.00518799  0.75625273  0.36864758  1
  O  O261  1  0.00553405  0.75524648  0.86999619  1
  O  O262  1  0.50583749  0.25482854  0.37075030  1
  O  O263  1  0.50416200  0.24830991  0.86411630  1
  O  O264  1  0.50375321  0.75516164  0.37005287  1
  O  O265  1  0.50525557  0.75487952  0.86735536  1
  O  O266  1  0.25940885  0.13808600  0.49331072  1
  O  O267  1  0.24434611  0.12906026  0.99345854  1
  O  O268  1  0.24626719  0.63163328  0.48903771  1
  O  O269  1  0.24687990  0.63248989  0.99213022  1
  O  O270  1  0.74594530  0.13192273  0.49510530  1
  O  O271  1  0.75238323  0.13199568  0.99192275  1
  O  O272  1  0.75226006  0.63695362  0.49742568  1
  O  O273  1  0.74365007  0.62713186  0.99397503  1
  O  O274  1  0.24934661  0.36709836  0.00785217  1
  O  O275  1  0.25719206  0.36347746  0.49575935  1
  O  O276  1  0.25184478  0.86853664  0.00689237  1
  O  O277  1  0.25657920  0.86806409  0.50530184  1
  O  O278  1  0.75494025  0.36782462  0.00347538  1
  O  O279  1  0.75737345  0.36671825  0.50004713  1
  O  O280  1  0.75514083  0.87558765  0.00749429  1
  O  O281  1  0.75619513  0.86328961  0.49838375  1
  O  O282  1  0.13128144  0.49320811  0.24491259  1
  O  O283  1  0.12351131  0.50412463  0.73354873  1
  O  O284  1  0.13067663  0.99548849  0.24567126  1
  O  O285  1  0.13085473  0.99394656  0.74362600  1
  O  O286  1  0.62934911  0.49445760  0.24453545  1
  O  O287  1  0.62817560  0.49254015  0.74324639  1
  O  O288  1  0.62410385  0.99332981  0.24043795  1
  O  O289  1  0.64208235  1.00239897  0.75699470  1
  O  O290  1  0.36957095  0.00376314  0.25772486  1
  O  O291  1  0.36932465  0.00558567  0.75609189  1
  O  O292  1  0.37029572  0.50460155  0.25432575  1
  O  O293  1  0.37737400  0.50129278  0.76775257  1
  O  O294  1  0.87330306  0.00971299  0.25555411  1
  O  O295  1  0.86741224  0.00823696  0.75664773  1
  O  O296  1  0.86921134  0.50861123  0.25111968  1
  O  O297  1  0.86772127  0.50121379  0.75647979  1
  O  O298  1  0.11681491  0.36639459  0.37006614  1
  O  O299  1  0.11580238  0.36511833  0.88106865  1
  O  O300  1  0.12001700  0.87079045  0.36916107  1
  O  O301  1  0.12024553  0.86965539  0.86952968  1
  O  O302  1  0.61954232  0.36949116  0.36958967  1
  O  O303  1  0.62253329  0.37529665  0.86193369  1
  O  O304  1  0.61887180  0.86878228  0.36981912  1
  O  O305  1  0.61681050  0.86671719  0.87138629  1
  O  O306  1  0.37756097  0.12624634  0.13507027  1
  O  O307  1  0.38508380  0.12763935  0.63226441  1
  O  O308  1  0.38040012  0.63041499  0.13058088  1
  O  O309  1  0.37023857  0.61728242  0.62432568  1
  O  O310  1  0.87530080  0.12558900  0.13694069  1
  O  O311  1  0.87827982  0.12038580  0.63963546  1
  O  O312  1  0.88353746  0.62520281  0.13376685  1
  O  O313  1  0.88570814  0.63094535  0.62627963  1
  O  O314  1  0.24903837  0.25529800  0.11879013  1
  O  O315  1  0.24957104  0.25072175  0.61359549  1
  O  O316  1  0.25466889  0.75490981  0.12107189  1
  O  O317  1  0.25163307  0.75468835  0.61990584  1
  O  O318  1  0.75146084  0.25510693  0.11525934  1
  O  O319  1  0.74409360  0.25048435  0.61055889  1
  O  O320  1  0.74825427  0.76330523  0.12155411  1
  O  O321  1  0.75647034  0.74840796  0.61595100  1
  O  O322  1  0.24165434  0.24500867  0.38016826  1
  O  O323  1  0.24339573  0.24535267  0.87943438  1
  O  O324  1  0.24498220  0.74503552  0.37883781  1
  O  O325  1  0.24691942  0.74341380  0.87893008  1
  O  O326  1  0.74282070  0.24410875  0.38348288  1
  O  O327  1  0.75112530  0.24204279  0.88303535  1
  O  O328  1  0.74414711  0.74870340  0.38351940  1
  O  O329  1  0.73972651  0.74614023  0.87303274  1
  O  O330  1  0.00533420  0.11877041  -0.00137358  1
  O  O331  1  -0.00640258  0.12166133  0.50441802  1
  O  O332  1  0.00036189  0.62428175  0.01271947  1
  O  O333  1  0.00022823  0.62540256  0.51050803  1
  O  O334  1  0.50318087  0.11255049  -0.00051156  1
  O  O335  1  0.50392187  0.12033169  0.50715236  1
  O  O336  1  0.50635552  0.61727024  0.00620614  1
  O  O337  1  0.49947519  0.60836599  0.49171208  1
  O  O338  1  0.49260690  0.38135676  0.49440244  1
  O  O339  1  0.50387817  0.38724546  1.00014368  1
  O  O340  1  0.49553244  0.87795424  0.49594861  1
  O  O341  1  0.49964794  0.88359877  0.98845526  1
  O  O342  1  0.99056016  0.37126160  0.48995729  1
  O  O343  1  0.99408017  0.37354086  0.98766872  1
  O  O344  1  0.99289622  0.87744287  0.49248540  1
  O  O345  1  0.99592736  0.88101400  0.99468606  1
  O  O346  1  0.49442282  0.49285221  0.38116677  1
  O  O347  1  0.49447918  0.50261720  0.88596832  1
  O  O348  1  0.49423012  0.99302088  0.38165686  1
  O  O349  1  0.49696371  0.99366484  0.88016953  1
  O  O350  1  1.00121726  0.48632446  0.37445085  1
  O  O351  1  0.99643201  0.49171761  0.87353030  1
  O  O352  1  0.99387407  0.99307325  0.37513272  1
  O  O353  1  0.99667330  0.99424554  0.87929565  1
  O  O354  1  0.00743604  0.00156011  0.11775720  1
  O  O355  1  0.01517705  -0.00250792  0.62695205  1
  O  O356  1  0.00589675  0.50878975  0.12587998  1
  O  O357  1  0.00773951  0.50904850  0.62505550  1
  O  O358  1  0.50804681  -0.00302691  0.11587326  1
  O  O359  1  0.49444757  0.01178580  0.62024374  1
  O  O360  1  0.50546763  0.50522838  0.11872003  1
  O  O361  1  0.51004054  0.49720472  0.61402388  1
  O  O362  1  0.24487585  0.37966662  0.24579897  1
  O  O363  1  0.24896766  0.37776375  0.74917625  1
  O  O364  1  0.24457833  0.88079782  0.24593113  1
  O  O365  1  0.24578600  0.87988056  0.74646612  1
  O  O366  1  0.74530707  0.37857652  0.24547112  1
  O  O367  1  0.74202401  0.37868986  0.74909407  1
  O  O368  1  0.74361712  0.87641646  0.24037008  1
  O  O369  1  0.75193444  0.89217105  0.75309214  1
  O  O370  1  0.25506302  0.11857454  0.25789112  1
  O  O371  1  0.25636615  0.12036483  0.75578214  1
  O  O372  1  0.25556514  0.61896341  0.25355539  1
  O  O373  1  0.24498424  0.62053332  0.76503782  1
  O  O374  1  0.75825644  0.12474348  0.25581377  1
  O  O375  1  0.75675028  0.11901461  0.75673492  1
  O  O376  1  0.75950785  0.62009293  0.24808479  1
  O  O377  1  0.75049685  0.61828991  0.75733140  1
  O  O378  1  0.36932517  0.11753139  0.37004923  1
  O  O379  1  0.36927038  0.11854833  0.86906759  1
  O  O380  1  0.36826656  0.61854288  0.36756973  1
  O  O381  1  0.36455481  0.61626624  0.88367765  1
  O  O382  1  0.86882209  0.12028067  0.36563893  1
  O  O383  1  0.86622519  0.12030052  0.86721737  1
  O  O384  1  0.87630723  0.62335490  0.36135190  1
  O  O385  1  0.86935768  0.61902818  0.87377845  1
  O  O386  1  0.12985481  0.37905241  0.13151280  1
  O  O387  1  0.12063550  0.38898641  0.62061177  1
  O  O388  1  0.13064127  0.88106738  0.13122738  1
  O  O389  1  0.13212642  0.88214936  0.63207078  1
  O  O390  1  0.63227320  0.38095612  0.13184061  1
  O  O391  1  0.62723173  0.38351109  0.63468010  1
  O  O392  1  0.63049022  0.88204619  0.12837209  1
  O  O393  1  0.63222465  0.87170437  0.63092316  1
  O  O394  1  0.12072508  0.25517176  0.25945695  1
  O  O395  1  0.11702921  0.24162704  0.76384078  1
  O  O396  1  0.11993544  0.75708188  0.25563903  1
  O  O397  1  0.11950897  0.75624863  0.75532440  1
  O  O398  1  0.62060910  0.25502611  0.25600297  1
  O  O399  1  0.61993737  0.25645667  0.75024709  1
  O  O400  1  0.61856711  0.75515821  0.25480847  1
  O  O401  1  0.61236952  0.74726949  0.76091027  1
  O  O402  1  0.38185113  0.24304745  0.25145879  1
  O  O403  1  0.38568721  0.24400348  0.75021979  1
  O  O404  1  0.38038121  0.74443926  0.24525419  1
  O  O405  1  0.39060370  0.74987899  0.75168016  1
  O  O406  1  0.87983167  0.24025581  0.25088162  1
  O  O407  1  0.88519208  0.24008933  0.75746265  1
  O  O408  1  0.88027867  0.74121735  0.24667533  1
  O  O409  1  0.88143964  0.74962985  0.74356280  1
  O  O410  1  0.38000240  0.49096997  0.49279023  1
  O  O411  1  0.38724534  0.50024811  0.99625387  1
  O  O412  1  0.38168781  0.99335276  0.49541247  1
  O  O413  1  0.38481686  0.99893482  0.99429141  1
  O  O414  1  0.87752757  0.48896319  0.49558248  1
  O  O415  1  0.87764052  0.49320925  0.99233187  1
  O  O416  1  0.87384054  0.99207998  0.49244540  1
  O  O417  1  0.88114571  0.99547078  0.99409954  1
  O  O418  1  0.12066133  0.00505444  0.00433370  1
  O  O419  1  0.12596200  -0.00576484  0.51624046  1
  O  O420  1  0.12095437  0.50224150  0.00935378  1
  O  O421  1  0.11864747  0.50284944  0.51050108  1
  O  O422  1  0.61687604  -0.00054172  0.00720881  1
  O  O423  1  0.61692553  0.00877823  0.49278677  1
  O  O424  1  0.61816455  0.50526669  0.00505333  1
  O  O425  1  0.61668059  0.49791902  0.50702922  1
  O  O426  1  0.36659982  0.37138846  0.12227494  1
  O  O427  1  0.36997779  0.37126478  0.60719880  1
  O  O428  1  0.36848117  0.86893712  0.12510479  1
  O  O429  1  0.36746218  0.87471955  0.61935198  1
  O  O430  1  0.86885659  0.37348889  0.11826313  1
  O  O431  1  0.87609391  0.37799000  0.61155414  1
  O  O432  1  0.86526628  0.87663321  0.12055347  1
  O  O433  1  0.87037364  0.86932930  0.61820883  1
  O  O434  1  0.13024806  0.13715709  0.36926748  1
  O  O435  1  0.13071925  0.13245680  0.87979471  1
  O  O436  1  0.12980071  0.63231762  0.37272741  1
  O  O437  1  0.13277337  0.63129778  0.87718015  1
  O  O438  1  0.62971015  0.13046550  0.38075183  1
  O  O439  1  0.63976375  0.12719526  0.87742821  1
  O  O440  1  0.62705466  0.63313023  0.37729259  1
  O  O441  1  0.63086218  0.63214171  0.88068604  1
