# generated using pymatgen
data_V93Zn93O256
_symmetry_space_group_name_H-M   'P 1'
_cell_length_a   17.04848910
_cell_length_b   17.04803108
_cell_length_c   17.04805408
_cell_angle_alpha   89.94249104
_cell_angle_beta   90.00398122
_cell_angle_gamma   90.05940187
_symmetry_Int_Tables_number   1
_chemical_formula_structural   V93Zn93O256
_chemical_formula_sum   'V93 Zn93 O256'
_cell_volume   4954.89534466
_cell_formula_units_Z   1
loop_
 _symmetry_equiv_pos_site_id
 _symmetry_equiv_pos_as_xyz
  1  'x, y, z'
loop_
 _atom_site_type_symbol
 _atom_site_label
 _atom_site_symmetry_multiplicity
 _atom_site_fract_x
 _atom_site_fract_y
 _atom_site_fract_z
 _atom_site_occupancy
  V  V0  1  -0.00408429  0.24980273  0.24774550  1
  V  V1  1  0.12556691  0.63245091  0.49506984  1
  V  V2  1  0.75247367  0.87511439  0.12591314  1
  V  V3  1  0.49808702  0.74750170  0.24638690  1
  V  V4  1  -0.00010682  0.75067860  0.75026672  1
  V  V5  1  0.74973118  0.24989574  0.49956698  1
  V  V6  1  0.74905949  0.49843814  0.25081081  1
  V  V7  1  0.00480849  0.87187737  0.37427964  1
  V  V8  1  0.49527824  0.24606938  0.25234497  1
  V  V9  1  0.75088315  0.75036957  0.00124246  1
  V  V10  1  0.87422048  0.50008378  0.87589576  1
  V  V11  1  0.75014779  0.00002723  0.24934014  1
  V  V12  1  0.00034345  0.37437202  0.37561216  1
  V  V13  1  0.62431465  0.37340423  0.75052817  1
  V  V14  1  0.87635752  -0.00078130  0.87541263  1
  V  V15  1  0.24928524  0.50117903  0.74962546  1
  V  V16  1  0.49738225  0.49813813  0.50008181  1
  V  V17  1  0.25069003  0.49901023  0.25053853  1
  V  V18  1  -0.00335740  -0.00335938  0.49871725  1
  V  V19  1  0.12778275  0.25081727  0.37744506  1
  V  V20  1  0.49915127  0.62589672  0.62399129  1
  V  V21  1  0.62335101  0.37317160  0.25067350  1
  V  V22  1  0.25346137  0.00402416  0.74809732  1
  V  V23  1  0.62378825  0.24943464  0.87487968  1
  V  V24  1  0.12279820  0.37691928  0.74985525  1
  V  V25  1  0.87395464  0.37475037  0.50118460  1
  V  V26  1  0.00004757  0.50066453  0.50007661  1
  V  V27  1  0.87616505  0.12551829  0.75046183  1
  V  V28  1  0.62657941  0.87377811  0.74823842  1
  V  V29  1  0.75042605  0.00032018  0.74989997  1
  V  V30  1  0.12644731  0.87572341  0.74936441  1
  V  V31  1  0.62361600  0.62284072  0.00130111  1
  V  V32  1  0.74848142  0.37396682  0.62563243  1
  V  V33  1  -0.00058165  0.49933631  0.00142828  1
  V  V34  1  0.62538881  0.74978684  0.87376591  1
  V  V35  1  0.12551249  0.49934688  0.12577705  1
  V  V36  1  0.87640851  0.74969221  0.12590923  1
  V  V37  1  0.37084474  0.36767690  0.50215487  1
  V  V38  1  -0.00369179  0.12813786  0.12459925  1
  V  V39  1  0.12669663  0.86860207  0.25332274  1
  V  V40  1  0.49943118  0.87572607  0.37347801  1
  V  V41  1  -0.00021011  0.37489910  0.87587598  1
  V  V42  1  0.75418296  0.36825955  0.12604607  1
  V  V43  1  0.62627260  0.87509717  0.24941890  1
  V  V44  1  0.62525468  0.12433844  -0.00035708  1
  V  V45  1  0.87353712  0.75666028  0.62009758  1
  V  V46  1  0.49897523  -0.00218074  -0.00095115  1
  V  V47  1  0.62457877  0.62520762  0.49992689  1
  V  V48  1  0.12601578  0.62665726  -0.00091950  1
  V  V49  1  0.25149476  0.00391470  0.24809669  1
  V  V50  1  0.37506516  0.87441358  0.49824318  1
  V  V51  1  0.87552521  0.62495901  0.24999414  1
  V  V52  1  0.12669994  0.74998774  0.87559216  1
  V  V53  1  0.00001553  0.12577332  0.62540981  1
  V  V54  1  0.62431829  0.24880148  0.37517487  1
  V  V55  1  0.49221437  0.12621068  0.63020477  1
  V  V56  1  0.87461462  0.37158399  0.00352248  1
  V  V57  1  0.87547627  0.12639034  0.24848043  1
  V  V58  1  0.74940685  0.62486929  0.37619226  1
  V  V59  1  0.25425935  0.12713071  0.86943722  1
  V  V60  1  0.62526988  0.00058999  0.62200445  1
  V  V61  1  0.75004873  0.12496046  0.37524255  1
  V  V62  1  0.37475823  0.75069871  0.62339123  1
  V  V63  1  0.00084078  0.00097324  0.00013585  1
  V  V64  1  0.37452838  0.50028557  0.87617051  1
  V  V65  1  0.37601924  0.00197675  0.86939962  1
  V  V66  1  -0.00044265  0.62556805  0.12600801  1
  V  V67  1  0.24886892  0.36986129  0.62000261  1
  V  V68  1  0.87505882  -0.00544763  0.37726722  1
  V  V69  1  0.25347366  0.12835918  0.37235882  1
  V  V70  1  0.12552491  0.12517600  0.00068992  1
  V  V71  1  0.24781989  0.63216003  0.37362097  1
  V  V72  1  0.25080134  0.25099073  0.00054040  1
  V  V73  1  0.12590917  0.00076848  0.62423851  1
  V  V74  1  0.37531166  0.62583113  0.74841686  1
  V  V75  1  -0.00072050  0.25083496  0.75098380  1
  V  V76  1  0.49881811  0.37444806  0.87494629  1
  V  V77  1  0.25150373  0.87580910  0.62314073  1
  V  V78  1  0.62534451  0.74930714  0.37537701  1
  V  V79  1  0.75008909  0.12473423  0.87593618  1
  V  V80  1  0.00113179  0.87638334  0.87583620  1
  V  V81  1  0.00006787  0.62612785  0.62500687  1
  V  V82  1  0.37325367  0.24764237  0.12848657  1
  V  V83  1  0.37566871  0.00356842  0.37144335  1
  V  V84  1  0.74987919  0.49863223  0.75045443  1
  V  V85  1  0.12443738  0.50171450  0.62485612  1
  V  V86  1  0.62386053  0.49896789  0.12485212  1
  V  V87  1  0.12912330  0.12810172  0.49871571  1
  V  V88  1  0.75285141  0.24906128  0.00298983  1
  V  V89  1  0.87456777  0.62448365  0.75070203  1
  V  V90  1  0.49710245  0.12419574  0.12739434  1
  V  V91  1  0.25234168  0.87351368  0.12241726  1
  V  V92  1  0.87485608  0.50049877  0.37605412  1
  Zn  Zn93  1  0.62414308  0.50037598  0.62665698  1
  Zn  Zn94  1  0.12474157  0.37434775  0.24909201  1
  Zn  Zn95  1  0.62414796  0.12533532  0.50053586  1
  Zn  Zn96  1  0.48931692  0.24224707  0.75485203  1
  Zn  Zn97  1  0.49625142  0.37314666  0.37658072  1
  Zn  Zn98  1  0.25422596  0.74952628  -0.00198641  1
  Zn  Zn99  1  0.36460592  0.24197951  0.62936107  1
  Zn  Zn100  1  0.37529378  0.62333217  0.24925509  1
  Zn  Zn101  1  0.37661581  0.74641286  0.11975058  1
  Zn  Zn102  1  0.75721968  0.87927559  0.61342243  1
  Zn  Zn103  1  0.87687286  0.87410960  0.00057325  1
  Zn  Zn104  1  0.50034441  0.75022363  0.74908807  1
  Zn  Zn105  1  0.37376406  0.49907142  0.37457779  1
  Zn  Zn106  1  0.00358709  0.74824299  0.25416383  1
  Zn  Zn107  1  0.24622765  0.75410197  0.49420598  1
  Zn  Zn108  1  0.62593391  -0.00078771  0.12422112  1
  Zn  Zn109  1  0.24954992  0.37467652  0.12626787  1
  Zn  Zn110  1  0.49758327  0.49882673  0.00288530  1
  Zn  Zn111  1  0.37443700  0.37614078  0.00077970  1
  Zn  Zn112  1  0.12461082  -0.00026748  0.12543021  1
  Zn  Zn113  1  0.87364873  0.24908645  0.62504747  1
  Zn  Zn114  1  0.49855681  0.87397498  0.87456899  1
  Zn  Zn115  1  0.12626634  0.25176820  0.87553474  1
  Zn  Zn116  1  0.75022507  0.62397909  0.87461820  1
  Zn  Zn117  1  0.75469447  0.75550548  0.49751738  1
  Zn  Zn118  1  0.25143052  0.62777406  0.87580842  1
  Zn  Zn119  1  0.37526822  0.87209428  -0.00158609  1
  Zn  Zn120  1  0.50100584  0.00168114  0.49831257  1
  Zn  Zn121  1  0.49610055  0.62063625  0.12655668  1
  Zn  Zn122  1  0.18345080  0.18687603  0.18889384  1
  Zn  Zn123  1  0.18392922  0.18994086  0.68949198  1
  Zn  Zn124  1  0.18875391  0.68745446  0.18617989  1
  Zn  Zn125  1  0.18930959  0.68858872  0.68632710  1
  Zn  Zn126  1  0.68388373  0.18580899  0.18861165  1
  Zn  Zn127  1  0.68426769  0.18813740  0.68816288  1
  Zn  Zn128  1  0.68724647  0.68697906  0.18761603  1
  Zn  Zn129  1  0.69015948  0.68605284  0.68483268  1
  Zn  Zn130  1  0.31284471  0.31525877  0.31375875  1
  Zn  Zn131  1  0.31352872  0.31279124  0.80729522  1
  Zn  Zn132  1  0.31403334  0.81366892  0.30998179  1
  Zn  Zn133  1  0.31330164  0.81447963  0.81164764  1
  Zn  Zn134  1  0.81275984  0.31241538  0.31415206  1
  Zn  Zn135  1  0.81266715  0.31193170  0.81452821  1
  Zn  Zn136  1  0.81397890  0.81161978  0.31225267  1
  Zn  Zn137  1  0.81230156  0.81281849  0.81035129  1
  Zn  Zn138  1  0.18715521  0.44142130  0.43706981  1
  Zn  Zn139  1  0.18715413  0.43816353  0.93780292  1
  Zn  Zn140  1  0.18707857  0.93989104  0.43704883  1
  Zn  Zn141  1  0.18723054  0.93950237  0.93737015  1
  Zn  Zn142  1  0.68429316  0.43642130  0.43811497  1
  Zn  Zn143  1  0.68760211  0.43660581  0.93764133  1
  Zn  Zn144  1  0.68830465  0.93422286  0.43813138  1
  Zn  Zn145  1  0.68806911  0.93607369  0.93809984  1
  Zn  Zn146  1  0.31444370  0.06251991  0.05980536  1
  Zn  Zn147  1  0.31255320  0.06019106  0.55692201  1
  Zn  Zn148  1  0.31236681  0.56541267  0.06417287  1
  Zn  Zn149  1  0.31144538  0.56079065  0.56084519  1
  Zn  Zn150  1  0.81507877  0.06149894  0.06264765  1
  Zn  Zn151  1  0.81218840  0.06364071  0.56232277  1
  Zn  Zn152  1  0.81046078  0.56104333  0.06336450  1
  Zn  Zn153  1  0.81129378  0.56449600  0.56439933  1
  Zn  Zn154  1  0.43583424  0.43396696  0.18681622  1
  Zn  Zn155  1  0.43560377  0.43619355  0.68755727  1
  Zn  Zn156  1  0.43607023  0.93629212  0.18769270  1
  Zn  Zn157  1  0.44008981  0.93750339  0.68759980  1
  Zn  Zn158  1  0.93733312  0.43743206  0.18873666  1
  Zn  Zn159  1  0.93550156  0.43764541  0.68682885  1
  Zn  Zn160  1  0.93859187  0.93887900  0.18826824  1
  Zn  Zn161  1  0.93898672  0.93849972  0.68860336  1
  Zn  Zn162  1  0.06529157  0.06049690  0.31066087  1
  Zn  Zn163  1  0.06619565  0.06400273  0.81360745  1
  Zn  Zn164  1  0.06453512  0.56268564  0.31238024  1
  Zn  Zn165  1  0.06145469  0.56333285  0.81372143  1
  Zn  Zn166  1  0.56418562  0.06286393  0.31137589  1
  Zn  Zn167  1  0.56336404  0.06140381  0.81079019  1
  Zn  Zn168  1  0.56212704  0.56117712  0.31446051  1
  Zn  Zn169  1  0.56180248  0.56177646  0.81180929  1
  Zn  Zn170  1  0.43851655  0.18588195  0.44453615  1
  Zn  Zn171  1  0.43608643  0.18653904  0.93945708  1
  Zn  Zn172  1  0.43419451  0.68651490  0.43486816  1
  Zn  Zn173  1  0.43852105  0.68744597  0.93780710  1
  Zn  Zn174  1  0.93737951  0.18621858  0.43644226  1
  Zn  Zn175  1  0.93638692  0.18937601  0.93767437  1
  Zn  Zn176  1  0.93772922  0.68763945  0.43803177  1
  Zn  Zn177  1  0.93850686  0.68783832  0.93808358  1
  Zn  Zn178  1  0.06464879  0.31313497  0.06342968  1
  Zn  Zn179  1  0.06154435  0.31239560  0.56341619  1
  Zn  Zn180  1  0.06504185  0.81308157  0.06437066  1
  Zn  Zn181  1  0.06099063  0.81344832  0.56315951  1
  Zn  Zn182  1  0.56358055  0.31224108  0.06203150  1
  Zn  Zn183  1  0.56238118  0.31108223  0.56286757  1
  Zn  Zn184  1  0.56556564  0.81278719  0.06347932  1
  Zn  Zn185  1  0.56220287  0.81314532  0.55991809  1
  O  O186  1  0.11406472  0.12264516  0.12007640  1
  O  O187  1  0.12107164  0.12105749  0.61671158  1
  O  O188  1  0.11886421  0.61962030  0.11931174  1
  O  O189  1  0.11973898  0.62037128  0.61789966  1
  O  O190  1  0.61363892  0.12333069  0.11842221  1
  O  O191  1  0.61845634  0.11339940  0.62532597  1
  O  O192  1  0.62570708  0.61786333  0.11642513  1
  O  O193  1  0.61753856  0.62371222  0.61829101  1
  O  O194  1  0.37547243  0.37677372  0.38766096  1
  O  O195  1  0.38228674  0.38398937  0.87484302  1
  O  O196  1  0.37919209  0.88380032  0.37834133  1
  O  O197  1  0.37773918  0.88759435  0.87715464  1
  O  O198  1  0.88006229  0.38147635  0.38126604  1
  O  O199  1  0.88049800  0.38105341  0.88226660  1
  O  O200  1  0.88518551  0.88976760  0.36599122  1
  O  O201  1  0.88277897  0.88137146  0.87482944  1
  O  O202  1  0.25615615  0.00757509  0.36731488  1
  O  O203  1  0.25725787  0.00782191  0.86977524  1
  O  O204  1  0.24831427  0.50902733  0.36501749  1
  O  O205  1  0.25980841  0.49930581  0.86865262  1
  O  O206  1  0.75794097  0.00429188  0.36978881  1
  O  O207  1  0.75532979  0.00562870  0.87055134  1
  O  O208  1  0.75491626  0.50381073  0.37004321  1
  O  O209  1  0.75721402  0.49954414  0.86906121  1
  O  O210  1  0.24390566  0.49968931  0.13434959  1
  O  O211  1  0.24300555  0.49348370  0.63078616  1
  O  O212  1  0.25226465  0.99578793  0.13401817  1
  O  O213  1  0.24523619  0.99651135  0.62823122  1
  O  O214  1  0.74359285  0.48989159  0.13159933  1
  O  O215  1  0.74861580  0.49241207  0.63219529  1
  O  O216  1  0.75040654  0.99447204  0.13189379  1
  O  O217  1  0.74212880  1.00058584  0.63141648  1
  O  O218  1  -0.00021408  0.36631519  0.25657186  1
  O  O219  1  0.00337761  0.37164544  0.75532892  1
  O  O220  1  0.01057197  0.87789228  0.25732456  1
  O  O221  1  0.00787088  0.87128389  0.75579837  1
  O  O222  1  0.50499433  0.36215074  0.25106791  1
  O  O223  1  0.50553777  0.37626185  0.76210953  1
  O  O224  1  0.50604635  0.86846506  0.25382544  1
  O  O225  1  0.51436039  0.87383320  0.75274192  1
  O  O226  1  0.50575921  0.13484674  0.23889767  1
  O  O227  1  0.50291623  0.12175868  0.73479744  1
  O  O228  1  0.50116065  0.63550100  0.25038915  1
  O  O229  1  0.49347278  0.62537453  0.74197166  1
  O  O230  1  0.99728354  0.13029220  0.24402642  1
  O  O231  1  0.99697375  0.12954359  0.74551403  1
  O  O232  1  0.99422629  0.62594732  0.24507733  1
  O  O233  1  0.99531380  0.63064015  0.74417698  1
  O  O234  1  0.36543360  0.24960761  0.00875970  1
  O  O235  1  0.37965759  0.26352165  0.50867013  1
  O  O236  1  0.37316108  0.75484762  0.00085547  1
  O  O237  1  0.37215558  0.75758171  0.50489649  1
  O  O238  1  0.86552579  0.25851568  -0.00475725  1
  O  O239  1  0.86912090  0.25639710  0.49953721  1
  O  O240  1  0.86895269  0.75029090  0.00697075  1
  O  O241  1  0.87626195  0.74263672  0.51581331  1
  O  O242  1  0.11616651  0.23920451  0.48874368  1
  O  O243  1  0.13541342  0.24415310  0.99956768  1
  O  O244  1  0.12567138  0.73637515  0.50605608  1
  O  O245  1  0.12522113  0.74373192  0.99307527  1
  O  O246  1  0.63207219  0.24951338  0.49223523  1
  O  O247  1  0.63137316  0.24346131  0.99464759  1
  O  O248  1  0.62258259  0.74147810  0.49130614  1
  O  O249  1  0.63022784  0.74300968  0.99319833  1
  O  O250  1  0.49379935  0.24342301  0.13051546  1
  O  O251  1  0.50434978  0.23184452  0.62565628  1
  O  O252  1  0.50284858  0.74916996  0.13648911  1
  O  O253  1  0.49266054  0.74384700  0.62507437  1
  O  O254  1  1.00702919  0.24098918  0.13680385  1
  O  O255  1  0.99821106  0.24333359  0.63185840  1
  O  O256  1  0.99439989  0.74304602  0.12732860  1
  O  O257  1  0.99423591  0.74592152  0.63128554  1
  O  O258  1  0.00845256  0.25314422  0.36799172  1
  O  O259  1  0.00223330  0.25737856  0.86974393  1
  O  O260  1  -0.00877972  0.76786558  0.37456627  1
  O  O261  1  0.00569360  0.75634329  0.86923280  1
  O  O262  1  0.50319119  0.24647644  0.36618677  1
  O  O263  1  0.50426950  0.25685216  0.87617722  1
  O  O264  1  0.50502664  0.75547759  0.36629378  1
  O  O265  1  0.51448304  0.75186541  0.87300819  1
  O  O266  1  0.23712096  0.11893058  0.48859995  1
  O  O267  1  0.24605487  0.13256258  0.99263046  1
  O  O268  1  0.24140062  0.62459183  0.49173694  1
  O  O269  1  0.23967976  0.62677801  0.99693867  1
  O  O270  1  0.74921766  0.13176783  0.49257243  1
  O  O271  1  0.74572010  0.12855561  0.99605483  1
  O  O272  1  0.74287023  0.62578891  0.49302008  1
  O  O273  1  0.73964151  0.63046085  0.99903268  1
  O  O274  1  0.25030209  0.36166083  0.00105890  1
  O  O275  1  0.25758140  0.38512891  0.50973727  1
  O  O276  1  0.24921871  0.87760154  0.01214083  1
  O  O277  1  0.25480316  0.87547984  0.50477590  1
  O  O278  1  0.75343660  0.36974016  0.00880149  1
  O  O279  1  0.75457019  0.37033530  0.50484251  1
  O  O280  1  0.75224877  0.86860011  0.00724780  1
  O  O281  1  0.74968935  0.86873816  0.50132700  1
  O  O282  1  0.13287198  0.49856078  0.24418515  1
  O  O283  1  0.12778306  0.49630285  0.74427310  1
  O  O284  1  0.13699778  0.99202053  0.24891500  1
  O  O285  1  0.13139165  0.99569590  0.74314604  1
  O  O286  1  0.63009148  0.49302006  0.24622904  1
  O  O287  1  0.63174620  0.49214772  0.75021298  1
  O  O288  1  0.63243305  0.99335659  0.24836159  1
  O  O289  1  0.63078407  0.99244464  0.74346979  1
  O  O290  1  0.36453481  -0.00436315  0.26157620  1
  O  O291  1  0.36958456  -0.00431030  0.76060435  1
  O  O292  1  0.36336415  0.49868123  0.25126870  1
  O  O293  1  0.36969027  0.50496787  0.75773673  1
  O  O294  1  0.87035692  0.00713679  0.25810164  1
  O  O295  1  0.87092491  0.00611146  0.75571390  1
  O  O296  1  0.86912841  0.50474726  0.25667148  1
  O  O297  1  0.87055955  0.50458997  0.75625616  1
  O  O298  1  0.11949787  0.36547671  0.37718150  1
  O  O299  1  0.11736210  0.37579286  0.86836943  1
  O  O300  1  0.11643874  0.88371744  0.36571782  1
  O  O301  1  0.12096022  0.87141857  0.86825224  1
  O  O302  1  0.62195166  0.36671307  0.36808751  1
  O  O303  1  0.61741689  0.36953105  0.87150869  1
  O  O304  1  0.61850707  0.87008456  0.36786865  1
  O  O305  1  0.62555035  0.86694469  0.86657581  1
  O  O306  1  0.38679220  0.13516121  0.11890707  1
  O  O307  1  0.38824851  0.12200802  0.61731102  1
  O  O308  1  0.37930286  0.62873106  0.13062773  1
  O  O309  1  0.37872554  0.63037945  0.62857820  1
  O  O310  1  0.88835563  0.12152039  0.13143886  1
  O  O311  1  0.88230424  0.12529192  0.63246645  1
  O  O312  1  0.87948792  0.62825854  0.13063952  1
  O  O313  1  0.88190694  0.63121405  0.63210379  1
  O  O314  1  0.25713223  0.24573055  0.11939086  1
  O  O315  1  0.24410628  0.26582390  0.62661193  1
  O  O316  1  0.25159629  0.76265278  0.12427021  1
  O  O317  1  0.25692692  0.75885983  0.62278643  1
  O  O318  1  0.74216722  0.26114388  0.12071063  1
  O  O319  1  0.75071193  0.25536280  0.61853810  1
  O  O320  1  0.75620895  0.75499842  0.12126710  1
  O  O321  1  0.76164263  0.75190761  0.62421421  1
  O  O322  1  0.23864279  0.24039633  0.36562034  1
  O  O323  1  0.25158377  0.24306595  0.88329968  1
  O  O324  1  0.25348690  0.73738611  0.37387572  1
  O  O325  1  0.24141702  0.74957999  0.87527025  1
  O  O326  1  0.74464164  0.24445112  0.37902487  1
  O  O327  1  0.74358894  0.24368511  0.88175974  1
  O  O328  1  0.74409412  0.74202977  0.37359090  1
  O  O329  1  0.74025073  0.74904317  0.88052956  1
  O  O330  1  0.00413747  0.12325714  0.00703416  1
  O  O331  1  0.00866345  0.11636404  0.50304878  1
  O  O332  1  0.00509176  0.61829404  0.00621759  1
  O  O333  1  0.00733704  0.61984021  0.50376994  1
  O  O334  1  0.50493069  0.11735215  0.00732980  1
  O  O335  1  0.50561982  0.11995007  0.51184507  1
  O  O336  1  0.51429925  0.62286884  0.00160223  1
  O  O337  1  0.50286507  0.61661624  0.50356398  1
  O  O338  1  0.49136796  0.38266846  0.50264074  1
  O  O339  1  0.49923871  0.37560300  0.98683144  1
  O  O340  1  0.49348986  0.87874419  0.49083868  1
  O  O341  1  0.50244771  0.88830792  0.99913457  1
  O  O342  1  0.99456085  0.38085280  0.49544956  1
  O  O343  1  0.99478912  0.37957198  0.99706183  1
  O  O344  1  1.01075808  0.89003181  0.49114639  1
  O  O345  1  1.00073026  0.88243659  0.99371643  1
  O  O346  1  0.49776076  0.49662233  0.38708228  1
  O  O347  1  0.49096545  0.49182292  0.87616395  1
  O  O348  1  0.49016378  0.99664456  0.37158977  1
  O  O349  1  0.49268073  1.00304932  0.88273137  1
  O  O350  1  0.99490933  0.49428900  0.38013235  1
  O  O351  1  0.99393535  0.49438322  0.88182458  1
  O  O352  1  0.99399520  0.99573976  0.38057530  1
  O  O353  1  0.99643889  0.99639172  0.87956113  1
  O  O354  1  0.00176739  0.01045168  0.11948811  1
  O  O355  1  0.00557716  0.00503731  0.61734860  1
  O  O356  1  0.00430132  0.50536002  0.12064436  1
  O  O357  1  0.00410515  0.50624762  0.61962153  1
  O  O358  1  0.49817822  0.00841277  0.11771961  1
  O  O359  1  0.50823131  0.00846363  0.62410630  1
  O  O360  1  0.50852156  0.49815516  0.12274574  1
  O  O361  1  0.49988943  0.50603023  0.61563886  1
  O  O362  1  0.24596454  0.38540956  0.24955172  1
  O  O363  1  0.24195874  0.38257553  0.74152138  1
  O  O364  1  0.24455952  0.88330520  0.24462358  1
  O  O365  1  0.24491095  0.88352399  0.74263359  1
  O  O366  1  0.74525601  0.37766628  0.24395638  1
  O  O367  1  0.74490873  0.37844725  0.74603198  1
  O  O368  1  0.74584549  0.88042497  0.24579975  1
  O  O369  1  0.73959242  0.88177792  0.74812199  1
  O  O370  1  0.24250419  0.11508626  0.26049222  1
  O  O371  1  0.24229902  0.12034574  0.76123324  1
  O  O372  1  0.24758738  0.61661773  0.25734983  1
  O  O373  1  0.25662270  0.61819385  0.75093401  1
  O  O374  1  0.75509525  0.12080351  0.25449594  1
  O  O375  1  0.75508154  0.12023366  0.75673220  1
  O  O376  1  0.75492579  0.61743834  0.25540419  1
  O  O377  1  0.75652358  0.61683907  0.75163659  1
  O  O378  1  0.36300877  0.11744527  0.38422991  1
  O  O379  1  0.36384113  0.11517626  0.88121152  1
  O  O380  1  0.36291307  0.61968499  0.37191685  1
  O  O381  1  0.37621822  0.61489269  0.86853538  1
  O  O382  1  0.87094436  0.11487217  0.36888990  1
  O  O383  1  0.86977922  0.11895793  0.87016099  1
  O  O384  1  0.87053837  0.61915236  0.37023800  1
  O  O385  1  0.87452030  0.61848796  0.86924169  1
  O  O386  1  0.12795293  0.38345287  0.12799887  1
  O  O387  1  0.12928529  0.38239526  0.62800171  1
  O  O388  1  0.13416902  0.87983597  0.13427143  1
  O  O389  1  0.13047084  0.88171612  0.62948283  1
  O  O390  1  0.63343205  0.37902916  0.13023544  1
  O  O391  1  0.63046124  0.37576967  0.63271080  1
  O  O392  1  0.63421947  0.87713395  0.13188010  1
  O  O393  1  0.62342245  0.88401768  0.63316862  1
  O  O394  1  0.11395935  0.25004055  0.26088257  1
  O  O395  1  0.11678046  0.25911605  0.75296147  1
  O  O396  1  0.12406995  0.76438763  0.24703817  1
  O  O397  1  0.11935616  0.75601474  0.75376475  1
  O  O398  1  0.61525140  0.25389074  0.25495546  1
  O  O399  1  0.62060411  0.25573558  0.75879727  1
  O  O400  1  0.61861492  0.75504562  0.25554685  1
  O  O401  1  0.62712318  0.75673712  0.75709867  1
  O  O402  1  0.38418852  0.25410268  0.24129012  1
  O  O403  1  0.37802777  0.25306156  0.74110615  1
  O  O404  1  0.38894386  0.75080236  0.24858400  1
  O  O405  1  0.37748831  0.74459510  0.74334377  1
  O  O406  1  0.88881950  0.24287894  0.26022117  1
  O  O407  1  0.88119656  0.24289688  0.75017514  1
  O  O408  1  0.87731059  0.74180435  0.24370077  1
  O  O409  1  0.88124245  0.74373055  0.74461121  1
  O  O410  1  0.38402207  0.49172531  0.50017409  1
  O  O411  1  0.37503211  0.49853319  0.98872397  1
  O  O412  1  0.37501767  0.99254245  0.48606425  1
  O  O413  1  0.38460922  0.99926185  0.99032763  1
  O  O414  1  0.88059085  0.49597537  0.49512499  1
  O  O415  1  0.87986354  0.49346033  0.99643433  1
  O  O416  1  0.88674006  1.00776594  0.49000718  1
  O  O417  1  0.88269103  0.99854550  0.99231305  1
  O  O418  1  0.11843645  0.00832004  0.00122083  1
  O  O419  1  0.11737342  0.01043984  0.50366669  1
  O  O420  1  0.11855864  0.50547401  0.00510316  1
  O  O421  1  0.11834106  0.50927535  0.50572105  1
  O  O422  1  0.61561819  0.00591716  0.00010395  1
  O  O423  1  0.62432159  0.00041671  0.51140559  1
  O  O424  1  0.62595404  0.50831570  0.00475254  1
  O  O425  1  0.61411539  0.50497304  0.50159221  1
  O  O426  1  0.37230167  0.36086157  0.12046809  1
  O  O427  1  0.36300051  0.37809886  0.61817739  1
  O  O428  1  0.36368268  0.87423063  0.12345914  1
  O  O429  1  0.37111621  0.87231830  0.61873031  1
  O  O430  1  0.86144295  0.38080714  0.12089337  1
  O  O431  1  0.86793852  0.37286592  0.61824794  1
  O  O432  1  0.87048061  0.86845258  0.12504766  1
  O  O433  1  0.87581341  0.86246632  0.63326071  1
  O  O434  1  0.13102855  0.13076960  0.38069672  1
  O  O435  1  0.13690417  0.12719617  0.88217626  1
  O  O436  1  0.13223373  0.62025215  0.38566343  1
  O  O437  1  0.12457890  0.63159763  0.88126778  1
  O  O438  1  0.63259634  0.13052186  0.37572371  1
  O  O439  1  0.63058562  0.12888638  0.87991563  1
  O  O440  1  0.63087340  0.62925012  0.37987608  1
  O  O441  1  0.62679640  0.63254729  0.88223342  1
