# generated using pymatgen
data_V93Zn93O256
_symmetry_space_group_name_H-M   'P 1'
_cell_length_a   17.04865397
_cell_length_b   17.04742414
_cell_length_c   17.04796525
_cell_angle_alpha   89.98967492
_cell_angle_beta   89.97297105
_cell_angle_gamma   89.96393383
_symmetry_Int_Tables_number   1
_chemical_formula_structural   V93Zn93O256
_chemical_formula_sum   'V93 Zn93 O256'
_cell_volume   4954.74459712
_cell_formula_units_Z   1
loop_
 _symmetry_equiv_pos_site_id
 _symmetry_equiv_pos_as_xyz
  1  'x, y, z'
loop_
 _atom_site_type_symbol
 _atom_site_label
 _atom_site_symmetry_multiplicity
 _atom_site_fract_x
 _atom_site_fract_y
 _atom_site_fract_z
 _atom_site_occupancy
  V  V0  1  0.37660212  0.62628831  0.75007773  1
  V  V1  1  0.12497290  0.12472369  -0.00026631  1
  V  V2  1  0.62428256  0.24936580  0.87649345  1
  V  V3  1  -0.00214329  0.37481698  0.37441029  1
  V  V4  1  0.62513385  0.00014342  0.62513682  1
  V  V5  1  0.00339108  -0.00094152  0.50348736  1
  V  V6  1  0.87314298  0.37561961  0.49920698  1
  V  V7  1  0.74807358  0.24726340  -0.00025077  1
  V  V8  1  0.37548873  0.50007897  0.87452268  1
  V  V9  1  0.50006963  0.62410370  0.12391927  1
  V  V10  1  0.63289729  0.63144062  0.49051146  1
  V  V11  1  -0.00059967  0.62430708  0.12401759  1
  V  V12  1  0.00461561  0.62055223  0.62436402  1
  V  V13  1  0.62354802  0.37678514  0.25098755  1
  V  V14  1  0.37476671  0.12652740  0.25107377  1
  V  V15  1  -0.00035149  0.25057829  0.75238776  1
  V  V16  1  0.50369123  0.62631803  0.62461518  1
  V  V17  1  0.87220218  0.50311552  0.37367700  1
  V  V18  1  0.87360214  0.24772777  0.12502912  1
  V  V19  1  0.12657185  0.12261664  0.50341043  1
  V  V20  1  0.50035598  0.00060720  0.00136681  1
  V  V21  1  0.12576837  0.75005517  0.87390660  1
  V  V22  1  0.12616518  0.87777243  0.74402490  1
  V  V23  1  0.87498771  0.37395038  -0.00025455  1
  V  V24  1  0.25108817  0.49969569  0.25272168  1
  V  V25  1  0.25184958  0.62406921  0.37383060  1
  V  V26  1  0.37483033  0.62153167  0.25155510  1
  V  V27  1  0.49639277  0.50260221  0.49666041  1
  V  V28  1  0.49865330  0.25127418  0.25119366  1
  V  V29  1  0.86975787  0.74811495  0.11969725  1
  V  V30  1  0.50157434  0.87492750  0.87468245  1
  V  V31  1  0.24674948  0.00009486  0.74408451  1
  V  V32  1  0.62619202  0.37591362  0.74958017  1
  V  V33  1  0.24918913  0.87536837  0.12414797  1
  V  V34  1  0.24973989  0.74959244  -0.00054093  1
  V  V35  1  0.24880484  0.12652340  0.37682121  1
  V  V36  1  0.75078773  0.63073609  0.87822494  1
  V  V37  1  0.12459424  -0.00075919  0.12450219  1
  V  V38  1  0.37541312  0.00014550  0.37653263  1
  V  V39  1  -0.00099636  0.12318801  0.12679389  1
  V  V40  1  0.12443884  0.87423033  0.24965513  1
  V  V41  1  0.25146779  0.62494261  0.87443941  1
  V  V42  1  0.74750340  0.87365271  0.13092186  1
  V  V43  1  0.87208206  0.12304626  0.25177573  1
  V  V44  1  -0.00204360  0.24913526  0.25048783  1
  V  V45  1  0.62587992  0.87558232  0.74981867  1
  V  V46  1  0.75045061  0.12533479  0.37546212  1
  V  V47  1  0.87451774  0.24947718  0.62546017  1
  V  V48  1  0.87582795  0.75002136  0.62491261  1
  V  V49  1  0.25038581  0.37438017  0.12417090  1
  V  V50  1  0.49818889  0.37656611  0.87630266  1
  V  V51  1  0.00118332  0.87475221  0.37533638  1
  V  V52  1  -0.00098361  -0.00173844  0.00068502  1
  V  V53  1  0.00269331  0.12139698  0.62685945  1
  V  V54  1  0.62436820  0.50004461  0.12490091  1
  V  V55  1  0.62355663  0.25163944  0.37647052  1
  V  V56  1  0.62858130  0.63023886  -0.00084521  1
  V  V57  1  0.37668918  0.87593126  0.49842083  1
  V  V58  1  0.62506087  -0.00443441  0.13269786  1
  V  V59  1  0.87317336  0.62470178  0.25272001  1
  V  V60  1  0.00048248  0.74971554  0.24923554  1
  V  V61  1  0.12374558  0.37472765  0.25008076  1
  V  V62  1  0.24968843  0.24968176  -0.00199443  1
  V  V63  1  0.37584427  0.75206391  0.62429706  1
  V  V64  1  0.49819301  0.24806663  0.74779642  1
  V  V65  1  0.74919685  0.50444699  0.25406782  1
  V  V66  1  0.87002014  0.87084988  -0.00068330  1
  V  V67  1  0.12363689  0.24900196  0.37548148  1
  V  V68  1  0.50443744  0.75579253  0.25418811  1
  V  V69  1  0.37390595  0.00365466  0.87263668  1
  V  V70  1  -0.00082752  0.50025061  0.49960873  1
  V  V71  1  0.62437127  0.12497191  0.50169902  1
  V  V72  1  0.49986270  0.00046087  0.50051823  1
  V  V73  1  0.24982553  0.75039157  0.49903085  1
  V  V74  1  0.87729285  0.87463969  0.50134253  1
  V  V75  1  0.50037113  0.12517756  0.12660857  1
  V  V76  1  0.00246370  0.74873556  0.75034354  1
  V  V77  1  0.75157986  0.87442077  0.62434740  1
  V  V78  1  0.87238261  -0.00004190  0.87453850  1
  V  V79  1  0.75041917  0.49982824  0.75081049  1
  V  V80  1  0.37478066  0.87532483  -0.00072055  1
  V  V81  1  0.74910457  0.37535623  0.62620385  1
  V  V82  1  0.74826389  0.25120237  0.50103590  1
  V  V83  1  0.50175838  0.75096181  0.75073806  1
  V  V84  1  0.87534670  0.62334508  0.75085187  1
  V  V85  1  0.36747830  0.25867645  0.62076707  1
  V  V86  1  0.49127999  0.38087078  0.37762422  1
  V  V87  1  0.24995949  0.00027588  0.25025725  1
  V  V88  1  0.12788390  0.37486544  0.74422713  1
  V  V89  1  0.24999944  0.49639208  0.74254490  1
  V  V90  1  0.37418924  0.74998022  0.12454076  1
  V  V91  1  0.00014790  0.49815353  -0.00137614  1
  V  V92  1  0.12470348  0.62400462  -0.00093021  1
  Zn  Zn93  1  0.87317299  0.12365803  0.75104289  1
  Zn  Zn94  1  0.12506462  0.62385394  0.49722897  1
  Zn  Zn95  1  0.49879062  0.12575143  0.62429562  1
  Zn  Zn96  1  0.12464610  0.74963673  0.37454930  1
  Zn  Zn97  1  0.37606875  0.24972137  0.12448890  1
  Zn  Zn98  1  0.64732533  0.76002933  0.35846923  1
  Zn  Zn99  1  0.74561583  -0.00479611  0.25676324  1
  Zn  Zn100  1  0.87362930  -0.00042934  0.37485424  1
  Zn  Zn101  1  0.62662142  0.50282674  0.62346185  1
  Zn  Zn102  1  0.51010639  0.87948322  0.37153205  1
  Zn  Zn103  1  0.62956190  0.75358618  0.87893395  1
  Zn  Zn104  1  0.12491766  0.50001224  0.12407617  1
  Zn  Zn105  1  0.37383466  0.37602648  0.00031512  1
  Zn  Zn106  1  0.00128690  0.37415212  0.87483822  1
  Zn  Zn107  1  0.13502410  0.49078164  0.61498701  1
  Zn  Zn108  1  0.37026329  0.12648514  0.74596035  1
  Zn  Zn109  1  0.12473617  0.24964313  0.87420538  1
  Zn  Zn110  1  0.24323142  0.26363155  0.50511636  1
  Zn  Zn111  1  0.74708134  0.12327853  0.87218654  1
  Zn  Zn112  1  0.24705083  0.12562567  0.87335834  1
  Zn  Zn113  1  0.24742783  0.88103806  0.62074328  1
  Zn  Zn114  1  0.36265472  0.38938436  0.50170376  1
  Zn  Zn115  1  0.75624902  0.74769202  0.48956863  1
  Zn  Zn116  1  0.49873200  0.50025102  0.00057189  1
  Zn  Zn117  1  0.74710137  0.37369099  0.12602933  1
  Zn  Zn118  1  0.74986163  0.00181418  0.75014221  1
  Zn  Zn119  1  0.62445325  0.12347284  0.00069429  1
  Zn  Zn120  1  0.87388967  0.49906409  0.87547418  1
  Zn  Zn121  1  0.00015894  0.87378434  0.87485179  1
  Zn  Zn122  1  0.18678854  0.18755031  0.18704949  1
  Zn  Zn123  1  0.18707085  0.18645626  0.68915845  1
  Zn  Zn124  1  0.18530622  0.68746365  0.18533821  1
  Zn  Zn125  1  0.18854429  0.68702623  0.68669568  1
  Zn  Zn126  1  0.68546393  0.18573607  0.18798344  1
  Zn  Zn127  1  0.68765576  0.18531890  0.68948056  1
  Zn  Zn128  1  0.68865356  0.68546414  0.18463302  1
  Zn  Zn129  1  0.68830972  0.68919186  0.68554724  1
  Zn  Zn130  1  0.31110906  0.31145938  0.31535123  1
  Zn  Zn131  1  0.31251429  0.31387778  0.81099889  1
  Zn  Zn132  1  0.31577553  0.81257538  0.31336312  1
  Zn  Zn133  1  0.31268534  0.81506980  0.81151484  1
  Zn  Zn134  1  0.80972134  0.31398253  0.31220047  1
  Zn  Zn135  1  0.81312381  0.31176372  0.81442616  1
  Zn  Zn136  1  0.81724099  0.81241217  0.31316788  1
  Zn  Zn137  1  0.81300768  0.81261241  0.80997689  1
  Zn  Zn138  1  0.18584378  0.43845709  0.43494012  1
  Zn  Zn139  1  0.18589060  0.43569911  0.93142468  1
  Zn  Zn140  1  0.18697251  0.93786170  0.43660541  1
  Zn  Zn141  1  0.18707638  0.93695595  0.93360992  1
  Zn  Zn142  1  0.68300239  0.44073181  0.43749124  1
  Zn  Zn143  1  0.68681321  0.44016616  0.93743238  1
  Zn  Zn144  1  0.68792178  0.93496387  0.43777764  1
  Zn  Zn145  1  0.68749880  0.93677127  0.94222315  1
  Zn  Zn146  1  0.31341001  0.06415468  0.06278382  1
  Zn  Zn147  1  0.31609736  0.06882966  0.56450949  1
  Zn  Zn148  1  0.31332736  0.56047906  0.06260634  1
  Zn  Zn149  1  0.31596173  0.56778875  0.56224121  1
  Zn  Zn150  1  0.81064902  0.05956956  0.06336064  1
  Zn  Zn151  1  0.81377670  0.06125344  0.56282217  1
  Zn  Zn152  1  0.80983818  0.56037936  0.06424714  1
  Zn  Zn153  1  0.81354311  0.56190083  0.56428116  1
  Zn  Zn154  1  0.43692563  0.43776691  0.18804213  1
  Zn  Zn155  1  0.43963250  0.43975875  0.68570496  1
  Zn  Zn156  1  0.43592632  0.93891276  0.18711955  1
  Zn  Zn157  1  0.43713675  0.93678081  0.68578569  1
  Zn  Zn158  1  0.93538367  0.43682792  0.18525136  1
  Zn  Zn159  1  0.93733990  0.43670610  0.68738217  1
  Zn  Zn160  1  0.93439877  0.93692362  0.18869829  1
  Zn  Zn161  1  0.93939130  0.93645364  0.68912421  1
  Zn  Zn162  1  0.06139947  0.06093324  0.31461298  1
  Zn  Zn163  1  0.06215232  0.06115142  0.81546788  1
  Zn  Zn164  1  0.06322350  0.56258685  0.31233207  1
  Zn  Zn165  1  0.06484636  0.55979282  0.81217874  1
  Zn  Zn166  1  0.56245594  0.06390255  0.31446099  1
  Zn  Zn167  1  0.56359906  0.06331694  0.81323740  1
  Zn  Zn168  1  0.56271367  0.56514811  0.31360845  1
  Zn  Zn169  1  0.56555070  0.56274591  0.81269800  1
  Zn  Zn170  1  0.43727518  0.18916991  0.43920643  1
  Zn  Zn171  1  0.43602986  0.18778740  0.93931249  1
  Zn  Zn172  1  0.43812745  0.68574373  0.43681163  1
  Zn  Zn173  1  0.44030167  0.68726809  0.93754813  1
  Zn  Zn174  1  0.93639603  0.18704770  0.43851280  1
  Zn  Zn175  1  0.93645385  0.18392301  0.93781859  1
  Zn  Zn176  1  0.93655336  0.68747213  0.43621557  1
  Zn  Zn177  1  0.93801805  0.68611956  0.93561398  1
  Zn  Zn178  1  0.06345538  0.31094698  0.06415406  1
  Zn  Zn179  1  0.06073953  0.31083279  0.56295154  1
  Zn  Zn180  1  0.05971541  0.81164716  0.06174076  1
  Zn  Zn181  1  0.06386467  0.80963597  0.56361705  1
  Zn  Zn182  1  0.56207097  0.31282358  0.06360512  1
  Zn  Zn183  1  0.56032746  0.31568297  0.56300888  1
  Zn  Zn184  1  0.56220062  0.81220849  0.06493649  1
  Zn  Zn185  1  0.56401106  0.81407404  0.56002368  1
  O  O186  1  0.11869009  0.11821267  0.12096728  1
  O  O187  1  0.11350462  0.13276473  0.61470989  1
  O  O188  1  0.11805542  0.62340695  0.11656561  1
  O  O189  1  0.11293008  0.62235126  0.62423604  1
  O  O190  1  0.61808481  0.11529573  0.12319197  1
  O  O191  1  0.62288432  0.11928872  0.61874760  1
  O  O192  1  0.62082607  0.61944503  0.11705191  1
  O  O193  1  0.61861467  0.62497941  0.61662739  1
  O  O194  1  0.38860055  0.37004544  0.37867724  1
  O  O195  1  0.38438638  0.38083170  0.87363244  1
  O  O196  1  0.37807299  0.88318184  0.38070731  1
  O  O197  1  0.38043539  0.88409168  0.87985754  1
  O  O198  1  0.87962286  0.38055003  0.37989914  1
  O  O199  1  0.87796133  0.37561993  0.88907926  1
  O  O200  1  0.88533615  0.87761068  0.38300305  1
  O  O201  1  0.87555188  0.87945244  0.88383664  1
  O  O202  1  0.25469505  0.00655927  0.36947061  1
  O  O203  1  0.26037538  -0.00060519  0.86732682  1
  O  O204  1  0.24592388  0.50977111  0.36097287  1
  O  O205  1  0.25524427  0.50620987  0.86557238  1
  O  O206  1  0.75219699  0.00944792  0.37538297  1
  O  O207  1  0.76084970  -0.00041583  0.87693189  1
  O  O208  1  0.75577466  0.49322192  0.36234136  1
  O  O209  1  0.75162947  0.50947967  0.86846824  1
  O  O210  1  0.24729359  0.49181314  0.13332413  1
  O  O211  1  0.25118733  0.50958730  0.63835107  1
  O  O212  1  0.24466817  0.99484268  0.13002763  1
  O  O213  1  0.25788607  1.00023443  0.63985494  1
  O  O214  1  0.74330686  0.49552663  0.13505055  1
  O  O215  1  0.75011763  0.49234743  0.63277070  1
  O  O216  1  0.74096143  0.99233715  0.12676045  1
  O  O217  1  0.74394750  0.99269730  0.62543348  1
  O  O218  1  0.00295003  0.36915515  0.25366997  1
  O  O219  1  0.00570333  0.36583863  0.75092462  1
  O  O220  1  0.00472988  0.87027151  0.25414075  1
  O  O221  1  0.00953834  0.86774620  0.75143397  1
  O  O222  1  0.50336151  0.37253463  0.25860382  1
  O  O223  1  0.50463796  0.36765480  0.75823533  1
  O  O224  1  0.49246643  0.85848601  0.24775649  1
  O  O225  1  0.50569277  0.87052131  0.75513104  1
  O  O226  1  0.49435246  0.13165903  0.24684214  1
  O  O227  1  0.49839433  0.13945461  0.75127561  1
  O  O228  1  0.49018533  0.63050985  0.24520576  1
  O  O229  1  0.49599344  0.63029965  0.74585245  1
  O  O230  1  0.99430900  0.12992217  0.24612664  1
  O  O231  1  1.00119628  0.13173907  0.74151248  1
  O  O232  1  0.99477696  0.62854151  0.24263279  1
  O  O233  1  0.99643462  0.62732701  0.74303219  1
  O  O234  1  0.36292328  0.25301754  0.00336341  1
  O  O235  1  0.37433476  0.25191026  0.51403033  1
  O  O236  1  0.36962477  0.75504167  0.00453862  1
  O  O237  1  0.36804952  0.75441995  0.50275020  1
  O  O238  1  0.86865216  0.25541958  0.00446242  1
  O  O239  1  0.86882049  0.25625816  0.50503957  1
  O  O240  1  0.88286916  0.75736186  0.01032946  1
  O  O241  1  0.87869611  0.75683945  0.50831427  1
  O  O242  1  0.12262386  0.23978590  0.49418775  1
  O  O243  1  0.13330036  0.24425616  1.00005416  1
  O  O244  1  0.13770403  0.74709437  0.49817693  1
  O  O245  1  0.12999730  0.74457789  0.99477379  1
  O  O246  1  0.62911812  0.24602260  0.49624894  1
  O  O247  1  0.63381572  0.25099055  0.99593341  1
  O  O248  1  0.62688574  0.73644497  0.50206161  1
  O  O249  1  0.62058296  0.73483377  1.00030130  1
  O  O250  1  0.49849943  0.24484066  0.13290289  1
  O  O251  1  0.49347704  0.25138656  0.63497393  1
  O  O252  1  0.49334535  0.74415432  0.13380603  1
  O  O253  1  0.49458356  0.74653019  0.63077856  1
  O  O254  1  0.99424504  0.24282428  0.13089715  1
  O  O255  1  0.99409258  0.24208241  0.63318647  1
  O  O256  1  0.99108365  0.74416915  0.12916009  1
  O  O257  1  0.99649780  0.73970267  0.63058757  1
  O  O258  1  0.00340888  0.25519158  0.36993036  1
  O  O259  1  -0.00096545  0.24824916  0.86255743  1
  O  O260  1  0.00208694  0.75621855  0.36743536  1
  O  O261  1  0.00774415  0.74912790  0.86771359  1
  O  O262  1  0.50513412  0.25858312  0.37149807  1
  O  O263  1  0.50173882  0.25836393  0.86818951  1
  O  O264  1  0.49486124  0.74891187  0.35767028  1
  O  O265  1  0.50084219  0.75780435  0.86842713  1
  O  O266  1  0.23869503  0.12565320  0.49627219  1
  O  O267  1  0.24406689  0.13423836  1.00176109  1
  O  O268  1  0.25245215  0.63211792  0.48957764  1
  O  O269  1  0.24524795  0.62985621  0.99500836  1
  O  O270  1  0.74500043  0.13224890  0.49621571  1
  O  O271  1  0.75011814  0.13801041  0.99938403  1
  O  O272  1  0.73535140  0.62349057  0.50563516  1
  O  O273  1  0.74135974  0.61741740  0.99042984  1
  O  O274  1  0.24725280  0.36785402  0.00766033  1
  O  O275  1  0.25149380  0.37576451  0.49687275  1
  O  O276  1  0.25451910  0.86942846  0.00444017  1
  O  O277  1  0.25506440  0.86652270  0.49989910  1
  O  O278  1  0.75772765  0.36623027  0.00128792  1
  O  O279  1  0.75336439  0.37092093  0.50478891  1
  O  O280  1  0.76356436  0.87731987  0.01121296  1
  O  O281  1  0.76077559  0.87399026  0.50822815  1
  O  O282  1  0.13356240  0.49367148  0.24681219  1
  O  O283  1  0.13372193  0.49252190  0.74753674  1
  O  O284  1  0.13003652  0.99484889  0.24424150  1
  O  O285  1  0.13468281  0.98927214  0.75911139  1
  O  O286  1  0.63159735  0.49821786  0.24628334  1
  O  O287  1  0.63225307  0.49298122  0.74804209  1
  O  O288  1  0.62369425  1.00208557  0.23698011  1
  O  O289  1  0.62447608  0.99299034  0.74377729  1
  O  O290  1  0.36908619  0.00602451  0.25583268  1
  O  O291  1  0.36843510  -0.00055510  0.75903292  1
  O  O292  1  0.36407937  0.51176833  0.24315624  1
  O  O293  1  0.36882537  0.50572276  0.75404083  1
  O  O294  1  0.87219376  0.00895986  0.25287827  1
  O  O295  1  0.87562106  -0.00152370  0.76285409  1
  O  O296  1  0.86752181  0.50326918  0.25292058  1
  O  O297  1  0.86948559  0.50524000  0.75269150  1
  O  O298  1  0.11658305  0.36898881  0.36807892  1
  O  O299  1  0.12032389  0.37087605  0.86130810  1
  O  O300  1  0.11941118  0.87353870  0.36705429  1
  O  O301  1  0.12378536  0.86691383  0.86565386  1
  O  O302  1  0.61552150  0.37015434  0.37021609  1
  O  O303  1  0.61640211  0.37035409  0.87015460  1
  O  O304  1  0.62110730  0.86759880  0.38037178  1
  O  O305  1  0.61976422  0.87406783  0.87092989  1
  O  O306  1  0.38180344  0.12496987  0.13385375  1
  O  O307  1  0.38126153  0.14001266  0.62788147  1
  O  O308  1  0.37829456  0.63033472  0.13197440  1
  O  O309  1  0.38377642  0.63304617  0.63127547  1
  O  O310  1  0.87986938  0.12873376  0.13041847  1
  O  O311  1  0.88662346  0.13125120  0.62453372  1
  O  O312  1  0.87897979  0.63149983  0.12862068  1
  O  O313  1  0.88464041  0.62907150  0.63055621  1
  O  O314  1  0.24976572  0.25836944  0.11791178  1
  O  O315  1  0.26448173  0.24759625  0.62698140  1
  O  O316  1  0.25447714  0.75537751  0.11885789  1
  O  O317  1  0.25721258  0.74673804  0.61288487  1
  O  O318  1  0.75427830  0.25120947  0.11649855  1
  O  O319  1  0.75472093  0.25563341  0.62021641  1
  O  O320  1  0.76240881  0.75616527  0.12973918  1
  O  O321  1  0.75989126  0.75648288  0.62260677  1
  O  O322  1  0.24102001  0.24265910  0.37653896  1
  O  O323  1  0.24955848  0.24905804  0.88629601  1
  O  O324  1  0.25036312  0.74297942  0.38277977  1
  O  O325  1  0.24689937  0.74456010  0.88047614  1
  O  O326  1  0.74318166  0.24691780  0.38202888  1
  O  O327  1  0.74387140  0.25045380  0.88495588  1
  O  O328  1  0.75694810  0.74422368  0.37581355  1
  O  O329  1  0.74949077  0.73511250  0.86969441  1
  O  O330  1  0.00424316  0.11900921  0.00819239  1
  O  O331  1  0.00659361  0.11903123  0.50636383  1
  O  O332  1  0.00407668  0.61642239  0.00407676  1
  O  O333  1  -0.00023292  0.61950686  0.50883504  1
  O  O334  1  0.49890840  0.11860682  0.00853641  1
  O  O335  1  0.50763026  0.11901195  0.49986140  1
  O  O336  1  0.50819049  0.62211777  0.00542476  1
  O  O337  1  0.50830086  0.62110322  0.50354440  1
  O  O338  1  0.50172597  0.38660144  0.49260720  1
  O  O339  1  0.49834942  0.37518672  0.98726652  1
  O  O340  1  0.49213941  0.88239300  0.49910122  1
  O  O341  1  0.49351012  0.88015369  0.99584056  1
  O  O342  1  0.99274817  0.37913126  0.49468149  1
  O  O343  1  0.99326570  0.38068899  1.00085619  1
  O  O344  1  0.99954025  0.88212649  0.49811193  1
  O  O345  1  0.98872837  0.88022876  0.99980933  1
  O  O346  1  0.50585023  0.49157787  0.38277554  1
  O  O347  1  0.49507918  0.49009583  0.87185994  1
  O  O348  1  0.49267453  1.00066720  0.38132813  1
  O  O349  1  0.49231872  0.99498032  0.87994318  1
  O  O350  1  0.99421041  0.49332804  0.37910038  1
  O  O351  1  0.99718549  0.49935243  0.88790570  1
  O  O352  1  0.99917496  0.99444996  0.38664348  1
  O  O353  1  0.98993958  0.99680163  0.88258696  1
  O  O354  1  0.00498987  0.00383833  0.12086645  1
  O  O355  1  -0.00373376  0.01054137  0.61668709  1
  O  O356  1  0.00082206  0.50432826  0.11436600  1
  O  O357  1  -0.00125548  0.50823940  0.61859466  1
  O  O358  1  0.50611821  0.00309384  0.12131055  1
  O  O359  1  0.50612355  0.00227153  0.61874069  1
  O  O360  1  0.50595180  0.50676138  0.12546756  1
  O  O361  1  0.50394594  0.50775177  0.61665816  1
  O  O362  1  0.24574160  0.38129421  0.24496559  1
  O  O363  1  0.24162140  0.38630739  0.75501017  1
  O  O364  1  0.24593292  0.88023630  0.24399696  1
  O  O365  1  0.24312644  0.88185534  0.74812015  1
  O  O366  1  0.74228228  0.38368659  0.24782914  1
  O  O367  1  0.74605712  0.37864878  0.74632932  1
  O  O368  1  0.75946240  0.87773926  0.23499904  1
  O  O369  1  0.74371579  0.87672806  0.74264355  1
  O  O370  1  0.25338057  0.11957407  0.25563841  1
  O  O371  1  0.24982101  0.11523085  0.75459928  1
  O  O372  1  0.25530886  0.61999440  0.25298841  1
  O  O373  1  0.25626770  0.61909652  0.75590124  1
  O  O374  1  0.75510917  0.12551712  0.25797601  1
  O  O375  1  0.75537210  0.12087614  0.75389518  1
  O  O376  1  0.75669136  0.61191823  0.24267197  1
  O  O377  1  0.75545580  0.61960254  0.75614798  1
  O  O378  1  0.36845428  0.12079249  0.37110265  1
  O  O379  1  0.37413659  0.11249324  0.87338069  1
  O  O380  1  0.36332836  0.63028495  0.36255842  1
  O  O381  1  0.37101404  0.62085119  0.86915899  1
  O  O382  1  0.86822104  0.12577692  0.37001195  1
  O  O383  1  0.87284611  0.11175897  0.87549226  1
  O  O384  1  0.88349467  0.61483321  0.36510512  1
  O  O385  1  0.86727643  0.62269781  0.87003478  1
  O  O386  1  0.13506749  0.37505906  0.13185033  1
  O  O387  1  0.11933490  0.37525123  0.63848410  1
  O  O388  1  0.12984373  0.87989994  0.12894247  1
  O  O389  1  0.12825338  0.86938364  0.63930716  1
  O  O390  1  0.62282480  0.38228686  0.13336825  1
  O  O391  1  0.63212962  0.37647598  0.63184593  1
  O  O392  1  0.63638311  0.88213566  0.11765633  1
  O  O393  1  0.63114985  0.88062890  0.62932629  1
  O  O394  1  0.11752706  0.25416342  0.25513613  1
  O  O395  1  0.11622795  0.25648980  0.74978398  1
  O  O396  1  0.11836091  0.75706612  0.24835103  1
  O  O397  1  0.12294984  0.75591456  0.75504448  1
  O  O398  1  0.61844729  0.25619649  0.25636990  1
  O  O399  1  0.61670230  0.25599430  0.75547647  1
  O  O400  1  0.60760775  0.74042356  0.24663848  1
  O  O401  1  0.61849359  0.75768574  0.75135349  1
  O  O402  1  0.38058295  0.24373670  0.24968200  1
  O  O403  1  0.38210846  0.25131882  0.74098105  1
  O  O404  1  0.38051926  0.74028601  0.24324111  1
  O  O405  1  0.38055220  0.74572350  0.74524623  1
  O  O406  1  0.87881318  0.24488739  0.24501478  1
  O  O407  1  0.88443885  0.24981496  0.74441831  1
  O  O408  1  0.88270769  0.74420495  0.23863321  1
  O  O409  1  0.88307133  0.74374616  0.74464077  1
  O  O410  1  0.39131205  0.50500958  0.50327292  1
  O  O411  1  0.37729364  0.49716740  0.99090463  1
  O  O412  1  0.37905044  0.99675475  0.49557899  1
  O  O413  1  0.37869060  0.99488185  0.99241789  1
  O  O414  1  0.87882512  0.49443740  0.49385950  1
  O  O415  1  0.88242546  0.49016623  1.00217612  1
  O  O416  1  0.88832032  0.99453832  0.49967508  1
  O  O417  1  0.87936430  0.99101466  0.99499324  1
  O  O418  1  0.12018424  0.00304891  0.00542725  1
  O  O419  1  0.11545621  0.01040642  0.49654854  1
  O  O420  1  0.11638282  0.50427296  -0.00034132  1
  O  O421  1  0.11559564  0.50384857  0.50015416  1
  O  O422  1  0.61771136  0.00138419  0.01085209  1
  O  O423  1  0.61933012  0.00609917  0.50640109  1
  O  O424  1  0.62184053  0.50878521  0.00643361  1
  O  O425  1  0.61656977  0.51320630  0.50118472  1
  O  O426  1  0.36178805  0.37371033  0.12448010  1
  O  O427  1  0.38126765  0.36243234  0.62301004  1
  O  O428  1  0.36810657  0.87106024  0.11868974  1
  O  O429  1  0.37158521  0.86823931  0.61713982  1
  O  O430  1  0.87382509  0.36664982  0.11442533  1
  O  O431  1  0.86936811  0.36918956  0.61863106  1
  O  O432  1  0.86978690  0.86713320  0.11798545  1
  O  O433  1  0.87308659  0.86951464  0.62122599  1
  O  O434  1  0.12791635  0.12939844  0.38361475  1
  O  O435  1  0.12608251  0.12746907  0.88524831  1
  O  O436  1  0.13841024  0.62890058  0.37365750  1
  O  O437  1  0.13178536  0.63009058  0.87944796  1
  O  O438  1  0.63023492  0.13225822  0.38140160  1
  O  O439  1  0.62586011  0.13332727  0.88064466  1
  O  O440  1  0.62105436  0.63126048  0.38835045  1
  O  O441  1  0.63267098  0.62646248  0.88251900  1
