# generated using pymatgen
data_V93Zn93O256
_symmetry_space_group_name_H-M   'P 1'
_cell_length_a   17.05320195
_cell_length_b   17.05046255
_cell_length_c   17.05439723
_cell_angle_alpha   90.02769152
_cell_angle_beta   89.98526904
_cell_angle_gamma   90.03645402
_symmetry_Int_Tables_number   1
_chemical_formula_structural   V93Zn93O256
_chemical_formula_sum   'V93 Zn93 O256'
_cell_volume   4958.81974289
_cell_formula_units_Z   1
loop_
 _symmetry_equiv_pos_site_id
 _symmetry_equiv_pos_as_xyz
  1  'x, y, z'
loop_
 _atom_site_type_symbol
 _atom_site_label
 _atom_site_symmetry_multiplicity
 _atom_site_fract_x
 _atom_site_fract_y
 _atom_site_fract_z
 _atom_site_occupancy
  V  V0  1  -0.00150035  0.25096761  0.24940274  1
  V  V1  1  0.00140841  0.62630797  0.12426792  1
  V  V2  1  0.00024609  0.12469100  0.62483731  1
  V  V3  1  0.37280671  0.24999881  0.62525148  1
  V  V4  1  0.62862209  0.87242756  0.74605235  1
  V  V5  1  0.12595786  0.75100987  0.87403405  1
  V  V6  1  0.37562253  0.12548184  0.25009571  1
  V  V7  1  0.49931544  0.62557898  0.62511026  1
  V  V8  1  0.12470352  0.87563837  0.74850248  1
  V  V9  1  0.50698446  0.87555978  0.37193021  1
  V  V10  1  0.00034534  0.37652242  0.37482630  1
  V  V11  1  0.87297614  0.12399082  0.75056355  1
  V  V12  1  0.75007061  0.37525032  0.62591439  1
  V  V13  1  -0.00028036  0.62726831  0.62418352  1
  V  V14  1  0.37492798  0.24892734  0.12554291  1
  V  V15  1  0.00150274  0.50258821  0.50015480  1
  V  V16  1  0.00122610  0.75104593  0.24851073  1
  V  V17  1  0.87411911  -0.00140766  0.87502259  1
  V  V18  1  0.37477292  0.37377940  0.50130756  1
  V  V19  1  0.24996485  -0.00138103  0.74895081  1
  V  V20  1  0.37481295  0.62505972  0.74920558  1
  V  V21  1  0.74155411  -0.00410325  0.24957579  1
  V  V22  1  0.62548687  0.50026364  0.62560940  1
  V  V23  1  -0.00140456  0.12625093  0.12568101  1
  V  V24  1  0.00059837  0.25319836  0.75136233  1
  V  V25  1  0.49870778  0.12239136  0.62592437  1
  V  V26  1  0.74832178  -0.00313650  0.74619820  1
  V  V27  1  -0.00071017  0.75071412  0.74933585  1
  V  V28  1  0.13363090  0.75226019  0.37756389  1
  V  V29  1  -0.00086946  0.00142914  0.50009388  1
  V  V30  1  0.62715925  0.62419015  0.00003320  1
  V  V31  1  0.87444329  0.37345914  0.00143387  1
  V  V32  1  0.37598337  0.50017361  0.37480130  1
  V  V33  1  -0.00201116  0.00029442  -0.00054812  1
  V  V34  1  0.37512405  0.37501112  -0.00123598  1
  V  V35  1  0.12836390  0.87680261  0.24538362  1
  V  V36  1  0.87590242  0.50074162  0.87535671  1
  V  V37  1  0.37357215  0.75622117  0.11907267  1
  V  V38  1  0.37390333  -0.00614006  0.37676194  1
  V  V39  1  0.62626261  -0.00443355  0.62577337  1
  V  V40  1  0.74982991  0.12498710  0.37457027  1
  V  V41  1  0.12564521  0.25028936  0.87570139  1
  V  V42  1  0.37132251  0.75193016  0.61149085  1
  V  V43  1  0.87604760  0.50190771  0.37533551  1
  V  V44  1  0.49513393  -0.00361414  0.00086662  1
  V  V45  1  0.25370615  0.87113630  0.61167530  1
  V  V46  1  0.74688852  0.12499404  0.87717704  1
  V  V47  1  0.62661809  0.62583408  0.49999148  1
  V  V48  1  0.62357954  0.12194473  0.00255576  1
  V  V49  1  0.12669104  0.62796507  -0.00012742  1
  V  V50  1  0.12538927  0.00049157  0.62403716  1
  V  V51  1  0.86893889  0.87085612  -0.00028036  1
  V  V52  1  0.75048153  0.63132336  0.37845095  1
  V  V53  1  0.00079025  0.87687810  0.37356238  1
  V  V54  1  0.75016424  0.50015448  0.25035169  1
  V  V55  1  0.50056881  0.37447574  0.37601028  1
  V  V56  1  0.75097454  0.62689690  0.87982907  1
  V  V57  1  0.49459633  -0.00710754  0.50114390  1
  V  V58  1  0.37599837  0.62427136  0.25023328  1
  V  V59  1  0.24943020  0.12664346  0.37561562  1
  V  V60  1  0.62452320  0.12322154  0.50187187  1
  V  V61  1  0.49665339  0.87209187  0.87764737  1
  V  V62  1  0.75139119  0.49988926  0.75139346  1
  V  V63  1  0.87453563  0.00001647  0.37421473  1
  V  V64  1  0.25147528  0.50099346  0.25120333  1
  V  V65  1  0.86964073  0.87084196  0.50455344  1
  V  V66  1  0.12524822  0.37761355  0.24954411  1
  V  V67  1  0.37216821  -0.00549354  0.87698837  1
  V  V68  1  0.87461989  0.24983585  0.62593625  1
  V  V69  1  0.87644920  0.62596976  0.24965465  1
  V  V70  1  0.49999088  0.24846811  0.25081370  1
  V  V71  1  0.87465624  0.12528043  0.24917267  1
  V  V72  1  0.50016294  0.49757206  -0.00002992  1
  V  V73  1  0.37519465  0.12232746  0.75000083  1
  V  V74  1  0.62577332  0.37465897  0.25036574  1
  V  V75  1  0.00133791  0.50199789  -0.00018147  1
  V  V76  1  0.12439098  0.00036323  0.12460967  1
  V  V77  1  0.62448495  0.24980511  0.37662467  1
  V  V78  1  0.62627950  0.49881887  0.12609324  1
  V  V79  1  0.12414928  0.12552075  -0.00037857  1
  V  V80  1  0.87513424  0.37630047  0.50038955  1
  V  V81  1  0.62267032  0.37180263  0.75332586  1
  V  V82  1  0.50148863  0.62475625  0.12572063  1
  V  V83  1  0.25172267  0.62368294  0.87439871  1
  V  V84  1  0.13187421  0.63097431  0.49892585  1
  V  V85  1  0.87208508  0.75027232  0.12234124  1
  V  V86  1  0.74951243  0.24963445  0.50109579  1
  V  V87  1  0.50128528  0.49980223  0.49971751  1
  V  V88  1  0.50675838  0.75425034  0.25053850  1
  V  V89  1  0.62758308  0.74887454  0.87912830  1
  V  V90  1  0.12508824  0.25087749  0.37512103  1
  V  V91  1  0.25008122  0.37596139  0.12542702  1
  V  V92  1  0.74454732  0.87222403  0.12743539  1
  Zn  Zn93  1  0.61988779  -0.00742383  0.12879576  1
  Zn  Zn94  1  0.62079894  0.24880086  0.87732345  1
  Zn  Zn95  1  0.25682821  0.88245121  0.11507747  1
  Zn  Zn96  1  0.86892892  0.75431434  0.63031637  1
  Zn  Zn97  1  0.12712802  0.50259545  0.12471668  1
  Zn  Zn98  1  0.49946669  0.12168679  0.12590161  1
  Zn  Zn99  1  0.73773787  0.76069602  0.51718978  1
  Zn  Zn100  1  0.25031843  0.24884429  -0.00049852  1
  Zn  Zn101  1  0.74993242  0.37179240  0.12588472  1
  Zn  Zn102  1  0.12705584  0.49810084  0.62630945  1
  Zn  Zn103  1  0.24743725  0.49771731  0.74717508  1
  Zn  Zn104  1  0.49915771  0.37185364  0.87540872  1
  Zn  Zn105  1  0.12388419  0.12705593  0.49972774  1
  Zn  Zn106  1  0.00154065  0.37815757  0.87526599  1
  Zn  Zn107  1  0.25167032  0.00024821  0.24738500  1
  Zn  Zn108  1  0.25688935  0.75710927  -0.00693430  1
  Zn  Zn109  1  0.37654767  0.49794669  0.87234136  1
  Zn  Zn110  1  0.12876444  0.37863593  0.74869327  1
  Zn  Zn111  1  0.62835078  0.75503298  0.37380529  1
  Zn  Zn112  1  0.74770532  0.25043752  0.00349841  1
  Zn  Zn113  1  0.25053410  0.12376266  0.87617306  1
  Zn  Zn114  1  0.87427105  0.62622122  0.74968755  1
  Zn  Zn115  1  0.49932220  0.24756447  0.75319601  1
  Zn  Zn116  1  -0.00076624  0.87524750  0.87511436  1
  Zn  Zn117  1  0.24655530  0.25328837  0.50080132  1
  Zn  Zn118  1  0.25499618  0.63016508  0.37870256  1
  Zn  Zn119  1  0.24704005  0.37849344  0.62577501  1
  Zn  Zn120  1  0.49955292  0.74976097  0.74853451  1
  Zn  Zn121  1  0.87212238  0.24958576  0.12414144  1
  Zn  Zn122  1  0.18763766  0.18911365  0.18789798  1
  Zn  Zn123  1  0.18844897  0.18616313  0.68941242  1
  Zn  Zn124  1  0.18992094  0.68726798  0.18923943  1
  Zn  Zn125  1  0.18901445  0.68900899  0.68627110  1
  Zn  Zn126  1  0.68750500  0.18606467  0.18501740  1
  Zn  Zn127  1  0.68628817  0.18536513  0.68781695  1
  Zn  Zn128  1  0.68933780  0.68709001  0.18791344  1
  Zn  Zn129  1  0.68809873  0.68718957  0.69105643  1
  Zn  Zn130  1  0.31254978  0.31318457  0.31257654  1
  Zn  Zn131  1  0.31014351  0.31150525  0.81092712  1
  Zn  Zn132  1  0.31603269  0.81373600  0.30710731  1
  Zn  Zn133  1  0.31126917  0.81105115  0.80375036  1
  Zn  Zn134  1  0.81266728  0.31262541  0.31274334  1
  Zn  Zn135  1  0.81180619  0.31234721  0.81594801  1
  Zn  Zn136  1  0.81448727  0.81407725  0.31086080  1
  Zn  Zn137  1  0.81108487  0.81116642  0.81323237  1
  Zn  Zn138  1  0.18917138  0.44044174  0.43997787  1
  Zn  Zn139  1  0.18744886  0.43776501  0.93683683  1
  Zn  Zn140  1  0.18570394  0.94119372  0.43568546  1
  Zn  Zn141  1  0.18676329  0.93431636  0.93898406  1
  Zn  Zn142  1  0.68894217  0.43955787  0.43687321  1
  Zn  Zn143  1  0.68944136  0.43828455  0.93801095  1
  Zn  Zn144  1  0.68660830  0.93977661  0.43794408  1
  Zn  Zn145  1  0.68602183  0.93684953  0.93783713  1
  Zn  Zn146  1  0.31016821  0.06379163  0.06148333  1
  Zn  Zn147  1  0.31079098  0.06228552  0.56173512  1
  Zn  Zn148  1  0.31318163  0.56465851  0.06268828  1
  Zn  Zn149  1  0.31225139  0.56148716  0.56360301  1
  Zn  Zn150  1  0.81165701  0.05864049  0.06456368  1
  Zn  Zn151  1  0.81214407  0.05994114  0.56333060  1
  Zn  Zn152  1  0.81327431  0.56045199  0.06270653  1
  Zn  Zn153  1  0.81321957  0.56550057  0.56372060  1
  Zn  Zn154  1  0.43863774  0.43628693  0.18694369  1
  Zn  Zn155  1  0.43680233  0.43813960  0.68727395  1
  Zn  Zn156  1  0.43845492  0.93759258  0.19097097  1
  Zn  Zn157  1  0.43702980  0.93312831  0.68939335  1
  Zn  Zn158  1  0.93832925  0.43926756  0.18510817  1
  Zn  Zn159  1  0.93913605  0.44029196  0.68702594  1
  Zn  Zn160  1  0.93541338  0.93838598  0.18629655  1
  Zn  Zn161  1  0.93755856  0.93829698  0.68734345  1
  Zn  Zn162  1  0.06243177  0.06318405  0.31150765  1
  Zn  Zn163  1  0.06160910  0.06359783  0.81258072  1
  Zn  Zn164  1  0.06489495  0.56433917  0.31321645  1
  Zn  Zn165  1  0.06429596  0.56296148  0.81215025  1
  Zn  Zn166  1  0.56130773  0.06370584  0.31484398  1
  Zn  Zn167  1  0.56068911  0.05917310  0.81347111  1
  Zn  Zn168  1  0.56372103  0.56411804  0.31222129  1
  Zn  Zn169  1  0.56069424  0.55920591  0.81288708  1
  Zn  Zn170  1  0.43642810  0.18484564  0.43940374  1
  Zn  Zn171  1  0.43843244  0.18641761  0.93597734  1
  Zn  Zn172  1  0.44060966  0.68701996  0.43533642  1
  Zn  Zn173  1  0.44095432  0.68482430  0.93709877  1
  Zn  Zn174  1  0.93719140  0.18841470  0.43690029  1
  Zn  Zn175  1  0.93722008  0.18747000  0.93743906  1
  Zn  Zn176  1  0.94256427  0.69085664  0.43568066  1
  Zn  Zn177  1  0.93827348  0.68832098  0.93746534  1
  Zn  Zn178  1  0.06127121  0.31389994  0.06279137  1
  Zn  Zn179  1  0.06415060  0.31323150  0.56244290  1
  Zn  Zn180  1  0.06100235  0.81313810  0.05951983  1
  Zn  Zn181  1  0.06167742  0.81444556  0.56192571  1
  Zn  Zn182  1  0.56203369  0.30941842  0.06417700  1
  Zn  Zn183  1  0.56028824  0.31119937  0.56568285  1
  Zn  Zn184  1  0.56147546  0.81048073  0.06067918  1
  Zn  Zn185  1  0.55708607  0.81009639  0.56193680  1
  O  O186  1  0.11830955  0.12080734  0.12076252  1
  O  O187  1  0.11848421  0.11897317  0.62370501  1
  O  O188  1  0.11953093  0.62724946  0.11880169  1
  O  O189  1  0.11408529  0.63050343  0.61523152  1
  O  O190  1  0.62274183  0.11774877  0.11392468  1
  O  O191  1  0.61841649  0.11755776  0.62056968  1
  O  O192  1  0.62134751  0.61997431  0.11986836  1
  O  O193  1  0.61943397  0.61873287  0.62085265  1
  O  O194  1  0.38265506  0.37967633  0.38015778  1
  O  O195  1  0.37397951  0.37580858  0.88804507  1
  O  O196  1  0.38245854  0.88818060  0.36959180  1
  O  O197  1  0.38485329  0.88292869  0.86495969  1
  O  O198  1  0.88008754  0.38151971  0.38086578  1
  O  O199  1  0.87621863  0.38174743  0.88423290  1
  O  O200  1  0.88198897  0.88100667  0.38115182  1
  O  O201  1  0.87379229  0.87987386  0.88361046  1
  O  O202  1  0.25801272  0.00777062  0.37278778  1
  O  O203  1  0.25896739  -0.00250519  0.86878959  1
  O  O204  1  0.25953450  0.50172747  0.36853213  1
  O  O205  1  0.25344519  0.51457046  0.87530866  1
  O  O206  1  0.75385560  0.00550678  0.36797224  1
  O  O207  1  0.75375116  0.00762710  0.86842928  1
  O  O208  1  0.75670106  0.50974420  0.37091625  1
  O  O209  1  0.75544578  0.50799119  0.87007729  1
  O  O210  1  0.25002301  0.49470794  0.13265209  1
  O  O211  1  0.24574882  0.49855536  0.62759424  1
  O  O212  1  0.24108785  0.99995429  0.12837589  1
  O  O213  1  0.24583181  0.99323272  0.62961119  1
  O  O214  1  0.74361868  0.49973802  0.13359080  1
  O  O215  1  0.74597316  0.49503858  0.63047781  1
  O  O216  1  0.74856730  0.99084315  0.13461440  1
  O  O217  1  0.73976787  1.00559262  0.63379628  1
  O  O218  1  0.00437337  0.37210465  0.25582093  1
  O  O219  1  -0.00277091  0.36123550  0.75175536  1
  O  O220  1  0.00773443  0.87151313  0.25362440  1
  O  O221  1  0.00515975  0.86625931  0.74918301  1
  O  O222  1  0.50590321  0.36878157  0.25692757  1
  O  O223  1  0.51256302  0.37552364  0.74997956  1
  O  O224  1  0.49732869  0.86605194  0.25956329  1
  O  O225  1  0.51076412  0.87515141  0.76254080  1
  O  O226  1  0.49381418  0.13075766  0.25023692  1
  O  O227  1  0.49337293  0.12124722  0.74267332  1
  O  O228  1  0.49528008  0.63174848  0.24546868  1
  O  O229  1  0.49253386  0.62429773  0.74369135  1
  O  O230  1  0.99425684  0.13068329  0.24570071  1
  O  O231  1  0.99250134  0.13329300  0.74504617  1
  O  O232  1  0.99543223  0.63063233  0.24511835  1
  O  O233  1  1.00084814  0.63528413  0.74116610  1
  O  O234  1  0.37469804  0.25838034  0.00611881  1
  O  O235  1  0.37582128  0.25452978  0.50916592  1
  O  O236  1  0.38037732  0.74393661  0.01660860  1
  O  O237  1  0.37814056  0.74333136  0.51245256  1
  O  O238  1  0.87422018  0.26112339  -0.00039588  1
  O  O239  1  0.86923943  0.25621926  0.50543181  1
  O  O240  1  0.88105894  0.76227392  0.00599622  1
  O  O241  1  0.87878157  0.76579431  0.49734457  1
  O  O242  1  0.12571521  0.24660952  0.49053202  1
  O  O243  1  0.12250610  0.24450272  0.99091903  1
  O  O244  1  0.11674359  0.74401602  0.48757424  1
  O  O245  1  0.12265851  0.74349461  0.99090347  1
  O  O246  1  0.62986011  0.24409622  0.49698258  1
  O  O247  1  0.62530493  0.23545867  0.99885302  1
  O  O248  1  0.62426307  0.74285342  0.49493617  1
  O  O249  1  0.61889886  0.74149840  0.98616571  1
  O  O250  1  0.49283218  0.24647370  0.13378855  1
  O  O251  1  0.48970297  0.24102180  0.62659786  1
  O  O252  1  0.49393687  0.74602009  0.13169572  1
  O  O253  1  0.49026094  0.74331863  0.62784754  1
  O  O254  1  0.99797448  0.24382603  0.13263875  1
  O  O255  1  0.99351084  0.24478614  0.63284016  1
  O  O256  1  0.99346197  0.74526695  0.13015395  1
  O  O257  1  0.99799165  0.74486481  0.63361924  1
  O  O258  1  0.00419247  0.25672797  0.36934289  1
  O  O259  1  0.00680989  0.24876427  0.86566403  1
  O  O260  1  0.01025515  0.75733778  0.36655862  1
  O  O261  1  0.00636543  0.74953184  0.86370299  1
  O  O262  1  0.50558601  0.25426173  0.37185373  1
  O  O263  1  0.50330023  0.25354340  0.87023285  1
  O  O264  1  0.49876675  0.75992328  0.36749642  1
  O  O265  1  0.50708525  0.75672985  0.87316409  1
  O  O266  1  0.24879592  0.12656064  0.48576096  1
  O  O267  1  0.23989960  0.12811127  0.99651557  1
  O  O268  1  0.23553186  0.62302860  0.49794695  1
  O  O269  1  0.24725865  0.63155665  0.99075744  1
  O  O270  1  0.74504739  0.12951950  0.49481440  1
  O  O271  1  0.74092754  0.11855539  0.99193258  1
  O  O272  1  0.74595475  0.62551323  0.49028273  1
  O  O273  1  0.74344681  0.61683978  0.98761737  1
  O  O274  1  0.25948752  0.37462947  0.00622438  1
  O  O275  1  0.26064249  0.37264948  0.50122328  1
  O  O276  1  0.24612596  0.86787219  0.00454288  1
  O  O277  1  0.24571200  0.88153345  0.51298250  1
  O  O278  1  0.76123628  0.37468272  0.00156672  1
  O  O279  1  0.75481028  0.37013290  0.50564407  1
  O  O280  1  0.76196829  0.88297755  0.00909621  1
  O  O281  1  0.76512351  0.87426749  0.49096930  1
  O  O282  1  0.13213850  0.49479800  0.24972998  1
  O  O283  1  0.12649568  0.49757659  0.74669339  1
  O  O284  1  0.12431519  0.99094241  0.24445235  1
  O  O285  1  0.12883783  0.99603425  0.74366489  1
  O  O286  1  0.62986619  0.49460319  0.24601096  1
  O  O287  1  0.63100497  0.49157054  0.74484504  1
  O  O288  1  0.63746246  1.00598184  0.24969203  1
  O  O289  1  0.62813247  0.99076286  0.74620805  1
  O  O290  1  0.37459794  0.00671717  0.25992658  1
  O  O291  1  0.37041236  0.00289972  0.75763410  1
  O  O292  1  0.37254868  0.50419313  0.25545463  1
  O  O293  1  0.37480950  0.51400996  0.75081643  1
  O  O294  1  0.86708996  0.00605489  0.25567712  1
  O  O295  1  0.86894088  0.00432295  0.75414750  1
  O  O296  1  0.87129604  0.50657665  0.25592401  1
  O  O297  1  0.86956287  0.50157864  0.75698827  1
  O  O298  1  0.11926990  0.37156318  0.36983738  1
  O  O299  1  0.12133586  0.36270486  0.87450087  1
  O  O300  1  0.12124139  0.87135816  0.36582613  1
  O  O301  1  0.12152030  0.86923800  0.86554696  1
  O  O302  1  0.62018850  0.36965395  0.37149936  1
  O  O303  1  0.62754794  0.37317034  0.86408538  1
  O  O304  1  0.61149854  0.87516150  0.37796535  1
  O  O305  1  0.61851481  0.86671358  0.86965445  1
  O  O306  1  0.37539417  0.13034583  0.13233158  1
  O  O307  1  0.37940676  0.12970077  0.62913788  1
  O  O308  1  0.38345941  0.63239359  0.13126462  1
  O  O309  1  0.37923799  0.63151662  0.63098793  1
  O  O310  1  0.88132908  0.12465266  0.13125089  1
  O  O311  1  0.87891536  0.13023616  0.63110353  1
  O  O312  1  0.87992685  0.63025444  0.12986069  1
  O  O313  1  0.88966843  0.62753713  0.62576220  1
  O  O314  1  0.25688053  0.25769886  0.12433575  1
  O  O315  1  0.26340059  0.24688544  0.62230962  1
  O  O316  1  0.26842168  0.74733003  0.12756064  1
  O  O317  1  0.25836337  0.75983178  0.62932871  1
  O  O318  1  0.75405249  0.25306917  0.12169686  1
  O  O319  1  0.75524367  0.25409262  0.62016036  1
  O  O320  1  0.75903784  0.76060569  0.13501884  1
  O  O321  1  0.75743315  0.74268666  0.62541015  1
  O  O322  1  0.24473703  0.24175349  0.37474089  1
  O  O323  1  0.23717460  0.24573239  0.87603760  1
  O  O324  1  0.23748079  0.75170753  0.36729515  1
  O  O325  1  0.24523146  0.74060364  0.87165679  1
  O  O326  1  0.74447086  0.24511790  0.38175499  1
  O  O327  1  0.74794235  0.23431355  0.87765614  1
  O  O328  1  0.74958954  0.73867014  0.37244841  1
  O  O329  1  0.73932280  0.73832184  0.86977219  1
  O  O330  1  0.00335494  0.11962630  0.00583941  1
  O  O331  1  -0.00245269  0.11927077  0.50704032  1
  O  O332  1  0.00571118  0.62139064  0.00512493  1
  O  O333  1  0.00679762  0.62301874  0.50607495  1
  O  O334  1  0.50708543  0.11338077  -0.00011272  1
  O  O335  1  0.50581883  0.11417219  0.50452011  1
  O  O336  1  0.50733600  0.61724613  0.00597309  1
  O  O337  1  0.50692635  0.61810870  0.50461423  1
  O  O338  1  0.49650772  0.38024607  0.49509439  1
  O  O339  1  0.49048869  0.37950687  1.00275239  1
  O  O340  1  0.50160769  0.88724583  0.49181288  1
  O  O341  1  0.50581107  0.88345351  0.98735194  1
  O  O342  1  0.99372673  0.38130585  0.49410785  1
  O  O343  1  0.99140817  0.38278420  0.99887551  1
  O  O344  1  0.99220945  0.88225856  0.49278565  1
  O  O345  1  0.98818559  0.88261488  0.99879769  1
  O  O346  1  0.49634279  0.49428210  0.37986763  1
  O  O347  1  0.49739805  0.49499161  0.88503000  1
  O  O348  1  0.49388803  0.99422087  0.38100155  1
  O  O349  1  0.49163083  0.99122255  0.88128060  1
  O  O350  1  0.99441037  0.49650190  0.37956097  1
  O  O351  1  0.99330466  0.50141895  0.88186927  1
  O  O352  1  0.99422511  0.99667558  0.37918721  1
  O  O353  1  0.99128797  0.99945830  0.88005762  1
  O  O354  1  0.00444291  0.00668282  0.12010391  1
  O  O355  1  0.00544047  0.00603736  0.62097031  1
  O  O356  1  0.00283898  0.50948492  0.11855343  1
  O  O357  1  0.00100330  0.51136355  0.61848712  1
  O  O358  1  0.50009856  -0.00231776  0.11468652  1
  O  O359  1  0.50288372  0.00165876  0.61747148  1
  O  O360  1  0.50682566  0.50554161  0.12119875  1
  O  O361  1  0.50577178  0.50534318  0.61855862  1
  O  O362  1  0.24554747  0.38112916  0.24537297  1
  O  O363  1  0.24841951  0.37889607  0.74633576  1
  O  O364  1  0.23806964  0.87663454  0.24373396  1
  O  O365  1  0.24241760  0.88141184  0.74102770  1
  O  O366  1  0.74341420  0.38270186  0.25243004  1
  O  O367  1  0.74346716  0.37912410  0.74522571  1
  O  O368  1  0.75668504  0.88591428  0.24161758  1
  O  O369  1  0.73619602  0.88115313  0.75910576  1
  O  O370  1  0.25539449  0.12469226  0.26123736  1
  O  O371  1  0.25706717  0.11546207  0.75198693  1
  O  O372  1  0.25823687  0.61864445  0.25306924  1
  O  O373  1  0.25836167  0.62573176  0.75822536  1
  O  O374  1  0.75479608  0.11728999  0.25577344  1
  O  O375  1  0.75315535  0.11862735  0.75837152  1
  O  O376  1  0.75646332  0.61980102  0.25863000  1
  O  O377  1  0.75072094  0.61707090  0.76264057  1
  O  O378  1  0.36842823  0.11778002  0.36980123  1
  O  O379  1  0.37461445  0.11173452  0.86869583  1
  O  O380  1  0.37563987  0.61860183  0.36896332  1
  O  O381  1  0.36863697  0.62642036  0.86703541  1
  O  O382  1  0.86869281  0.12014429  0.37022404  1
  O  O383  1  0.86580965  0.11883842  0.87081847  1
  O  O384  1  0.87001157  0.62215328  0.37074237  1
  O  O385  1  0.86591151  0.62052239  0.87582391  1
  O  O386  1  0.13149349  0.37743452  0.13171007  1
  O  O387  1  0.12700983  0.37728112  0.62835924  1
  O  O388  1  0.12054608  0.88071533  0.13442562  1
  O  O389  1  0.13173794  0.88044996  0.62915953  1
  O  O390  1  0.62536938  0.38081756  0.13296654  1
  O  O391  1  0.63087834  0.37972509  0.63205431  1
  O  O392  1  0.63979764  0.87415941  0.11557950  1
  O  O393  1  0.61492402  0.87838647  0.63858698  1
  O  O394  1  0.11827449  0.25767284  0.25570671  1
  O  O395  1  0.11459484  0.24679967  0.75833533  1
  O  O396  1  0.12053533  0.75872304  0.25512700  1
  O  O397  1  0.11662062  0.75510172  0.75344039  1
  O  O398  1  0.62038039  0.25357272  0.25738034  1
  O  O399  1  0.62416285  0.26035780  0.74961830  1
  O  O400  1  0.61007258  0.74215127  0.25276586  1
  O  O401  1  0.62139739  0.75600760  0.76105940  1
  O  O402  1  0.38111231  0.24546538  0.24622192  1
  O  O403  1  0.37625311  0.24158506  0.74107557  1
  O  O404  1  0.38624131  0.74387943  0.24230605  1
  O  O405  1  0.37816146  0.73738338  0.74214037  1
  O  O406  1  0.88117711  0.24342207  0.25088178  1
  O  O407  1  0.88070578  0.24447050  0.74625640  1
  O  O408  1  0.88269424  0.74467918  0.24458603  1
  O  O409  1  0.88695420  0.74941797  0.75133815  1
  O  O410  1  0.38306380  0.49506359  0.49469341  1
  O  O411  1  0.38176021  0.49019075  1.00247908  1
  O  O412  1  0.38580098  1.00808541  0.48919383  1
  O  O413  1  0.38407899  1.00506596  0.98931811  1
  O  O414  1  0.88043453  0.49555896  0.49482402  1
  O  O415  1  0.88096366  0.49338245  0.99503810  1
  O  O416  1  0.87863323  0.99156642  0.49411342  1
  O  O417  1  0.87935534  0.99239246  0.99482965  1
  O  O418  1  0.11688663  0.00569041  0.00444468  1
  O  O419  1  0.11628078  0.00350483  0.50558848  1
  O  O420  1  0.11952820  0.50920686  0.00079456  1
  O  O421  1  0.11687995  0.51305073  0.49759273  1
  O  O422  1  0.61302374  0.00630672  -0.00148160  1
  O  O423  1  0.61651075  0.00420864  0.50556883  1
  O  O424  1  0.61989039  0.50356300  0.00669302  1
  O  O425  1  0.62117451  0.50466166  0.50621120  1
  O  O426  1  0.37061737  0.36948586  0.11817268  1
  O  O427  1  0.37812354  0.36385101  0.61954759  1
  O  O428  1  0.37689396  0.85925380  0.13133325  1
  O  O429  1  0.36606018  0.86404662  0.63248121  1
  O  O430  1  0.87385974  0.37516431  0.11408628  1
  O  O431  1  0.86973836  0.37012675  0.62001878  1
  O  O432  1  0.86765437  0.87086156  0.11795113  1
  O  O433  1  0.88041562  0.87681057  0.60749898  1
  O  O434  1  0.13362329  0.13063858  0.37347026  1
  O  O435  1  0.12396312  0.13342962  0.88092722  1
  O  O436  1  0.12535186  0.63644180  0.38142793  1
  O  O437  1  0.13433050  0.63150654  0.87915685  1
  O  O438  1  0.63017387  0.13061572  0.38243139  1
  O  O439  1  0.63229165  0.12096246  0.88281179  1
  O  O440  1  0.63557832  0.62401370  0.38143163  1
  O  O441  1  0.63086038  0.62966122  0.87851144  1
