# generated using pymatgen
data_V93Zn93O256
_symmetry_space_group_name_H-M   'P 1'
_cell_length_a   17.04471391
_cell_length_b   17.04706816
_cell_length_c   17.04283860
_cell_angle_alpha   89.99010397
_cell_angle_beta   89.98945547
_cell_angle_gamma   90.03515656
_symmetry_Int_Tables_number   1
_chemical_formula_structural   V93Zn93O256
_chemical_formula_sum   'V93 Zn93 O256'
_cell_volume   4952.00699345
_cell_formula_units_Z   1
loop_
 _symmetry_equiv_pos_site_id
 _symmetry_equiv_pos_as_xyz
  1  'x, y, z'
loop_
 _atom_site_type_symbol
 _atom_site_label
 _atom_site_symmetry_multiplicity
 _atom_site_fract_x
 _atom_site_fract_y
 _atom_site_fract_z
 _atom_site_occupancy
  V  V0  1  0.62537977  0.87522329  0.75127769  1
  V  V1  1  0.74700102  0.37543408  0.12678834  1
  V  V2  1  0.25348133  0.87590082  0.61789873  1
  V  V3  1  0.87517250  -0.00030484  0.87456314  1
  V  V4  1  0.12636006  -0.00089718  0.12557647  1
  V  V5  1  0.49987002  0.74981516  0.25094852  1
  V  V6  1  -0.00134665  0.37425985  0.87476201  1
  V  V7  1  0.75395670  0.87724512  0.61672710  1
  V  V8  1  0.25122582  0.12384335  0.87447081  1
  V  V9  1  0.37581636  0.49930683  0.87376067  1
  V  V10  1  0.87539717  0.49950853  0.87363904  1
  V  V11  1  0.86735075  0.37147718  0.50016807  1
  V  V12  1  0.37517763  0.74940288  0.12496323  1
  V  V13  1  0.49859400  0.24250746  0.74618236  1
  V  V14  1  -0.00282516  0.87452000  0.37804079  1
  V  V15  1  0.50125322  0.87456770  0.87672612  1
  V  V16  1  0.25128868  0.12590813  0.37129266  1
  V  V17  1  0.87553185  0.62475657  0.74822568  1
  V  V18  1  0.00055133  0.49919514  -0.00082129  1
  V  V19  1  0.37418162  0.00507080  0.37357962  1
  V  V20  1  0.25153734  0.62441600  0.87363336  1
  V  V21  1  0.49324670  0.87550927  0.37975326  1
  V  V22  1  0.62424359  0.12518356  0.00155938  1
  V  V23  1  0.12567213  0.00016922  0.62512547  1
  V  V24  1  0.49497031  0.00250570  0.50173535  1
  V  V25  1  0.12426918  0.12632761  0.49990353  1
  V  V26  1  0.49876607  0.24812315  0.25410667  1
  V  V27  1  0.62471210  0.87620740  0.25128845  1
  V  V28  1  0.12560870  0.87453064  0.25069396  1
  V  V29  1  0.12511096  0.49948205  0.12343354  1
  V  V30  1  0.25350891  0.49936372  0.25197027  1
  V  V31  1  0.75148894  0.75016681  -0.00111775  1
  V  V32  1  0.74905880  0.24884782  0.00026755  1
  V  V33  1  0.25275716  0.00344741  0.25061408  1
  V  V34  1  -0.00103503  0.37369015  0.37497714  1
  V  V35  1  0.62681358  0.50130098  0.62535154  1
  V  V36  1  0.62488286  0.13016043  0.50118973  1
  V  V37  1  0.75074440  0.87497742  0.12662866  1
  V  V38  1  0.86776805  0.24938246  0.62182353  1
  V  V39  1  0.87561752  0.75434906  0.61842315  1
  V  V40  1  0.75042926  0.62550133  0.37440628  1
  V  V41  1  -0.00091931  0.24880975  0.74910183  1
  V  V42  1  0.49642969  0.50280077  0.49607613  1
  V  V43  1  0.12382324  0.24995314  0.37422217  1
  V  V44  1  -0.00066329  0.12451524  0.12564133  1
  V  V45  1  0.37406649  0.37925474  0.49901203  1
  V  V46  1  -0.00043053  0.49961835  0.49968003  1
  V  V47  1  0.50130613  0.62349173  0.12529546  1
  V  V48  1  0.12463973  0.12428319  -0.00005916  1
  V  V49  1  -0.00001606  0.25057909  0.24988600  1
  V  V50  1  0.61898167  0.00456755  0.62543200  1
  V  V51  1  0.75106908  0.62364874  0.87366443  1
  V  V52  1  0.12493506  0.24886436  0.87472447  1
  V  V53  1  0.50052697  -0.00032184  0.00241860  1
  V  V54  1  0.25479554  0.62136018  0.37576806  1
  V  V55  1  0.25030277  0.24957054  0.00123590  1
  V  V56  1  0.37445643  0.24653809  0.12930439  1
  V  V57  1  0.25108195  0.74937909  0.00012642  1
  V  V58  1  0.62566012  0.62383774  0.00032585  1
  V  V59  1  -0.00203845  -0.00134506  0.49981871  1
  V  V60  1  0.87663938  0.62478320  0.24871823  1
  V  V61  1  0.74872094  0.13269751  0.37916749  1
  V  V62  1  0.87554216  0.87416109  0.00070273  1
  V  V63  1  0.37628076  0.75505415  0.61894416  1
  V  V64  1  0.62539095  0.74996852  0.87395624  1
  V  V65  1  0.49922097  0.37420646  0.87514108  1
  V  V66  1  0.62456735  0.37525293  0.74853924  1
  V  V67  1  0.49709622  0.12374207  0.13180854  1
  V  V68  1  0.50055194  0.49897401  0.00002352  1
  V  V69  1  0.37481138  0.00028279  0.87506553  1
  V  V70  1  0.25121933  0.87407957  0.12556168  1
  V  V71  1  0.12528470  0.62338336  -0.00117959  1
  V  V72  1  0.12591957  0.75009997  0.37405037  1
  V  V73  1  0.24978499  0.25193534  0.49917222  1
  V  V74  1  0.24987588  0.37401121  0.12528991  1
  V  V75  1  0.00081049  0.62679279  0.62365028  1
  V  V76  1  0.37725418  0.24334532  0.62387803  1
  V  V77  1  0.12669743  0.37617167  0.74691543  1
  V  V78  1  0.87224337  -0.00398408  0.38003421  1
  V  V79  1  0.62477670  0.24920720  0.87492541  1
  V  V80  1  0.12630870  0.75010157  0.87334471  1
  V  V81  1  0.37724264  0.62623548  0.74808621  1
  V  V82  1  0.75132944  0.00148740  0.75114646  1
  V  V83  1  0.87383768  0.24926824  0.12425734  1
  V  V84  1  -0.00089574  0.12479220  0.62506604  1
  V  V85  1  0.00183726  0.87409041  0.87439716  1
  V  V86  1  0.62687560  0.63012199  0.49998196  1
  V  V87  1  0.37571320  0.62277615  0.25195886  1
  V  V88  1  0.12635038  0.87520120  0.74912058  1
  V  V89  1  0.49758461  0.37729170  0.37523358  1
  V  V90  1  0.00037685  -0.00119981  0.00059563  1
  V  V91  1  0.87342451  0.12387931  0.25172044  1
  V  V92  1  0.12603844  0.62548805  0.49887384  1
  Zn  Zn93  1  0.75423922  0.75724600  0.49657526  1
  Zn  Zn94  1  0.75103052  0.49776544  0.74906600  1
  Zn  Zn95  1  0.62473432  0.37782967  0.25379894  1
  Zn  Zn96  1  0.25516752  0.75319099  0.49608655  1
  Zn  Zn97  1  0.74859207  0.00096059  0.25161393  1
  Zn  Zn98  1  0.37643355  0.87318294  0.00049182  1
  Zn  Zn99  1  0.37506983  0.37417054  -0.00090750  1
  Zn  Zn100  1  0.87952585  0.74871408  0.12442450  1
  Zn  Zn101  1  0.62765528  0.25328187  0.38178607  1
  Zn  Zn102  1  0.50093251  0.63044216  0.62383025  1
  Zn  Zn103  1  0.12754319  0.50189299  0.62530701  1
  Zn  Zn104  1  0.25009432  0.37745428  0.62459910  1
  Zn  Zn105  1  0.00005484  0.62537972  0.12492170  1
  Zn  Zn106  1  0.74819527  0.49944610  0.24936430  1
  Zn  Zn107  1  0.62511862  0.00154892  0.12675731  1
  Zn  Zn108  1  0.25169474  0.00143996  0.74808921  1
  Zn  Zn109  1  0.75148213  0.12488432  0.87769350  1
  Zn  Zn110  1  0.87470030  0.12654257  0.75129684  1
  Zn  Zn111  1  0.62561617  0.75304456  0.37728233  1
  Zn  Zn112  1  0.00056251  0.75006886  0.74851473  1
  Zn  Zn113  1  0.50144408  0.75150391  0.74867256  1
  Zn  Zn114  1  0.74704580  0.37098101  0.62215033  1
  Zn  Zn115  1  0.12362827  0.37637293  0.25014807  1
  Zn  Zn116  1  0.87397514  0.37458526  -0.00079197  1
  Zn  Zn117  1  0.62486015  0.49889317  0.12756106  1
  Zn  Zn118  1  0.25049027  0.49960461  0.74747006  1
  Zn  Zn119  1  0.00095190  0.74902756  0.24716184  1
  Zn  Zn120  1  0.87342582  0.49841398  0.37362485  1
  Zn  Zn121  1  0.37544809  0.12343491  0.74563172  1
  Zn  Zn122  1  0.18610685  0.18671675  0.18914650  1
  Zn  Zn123  1  0.19059816  0.18874169  0.68686094  1
  Zn  Zn124  1  0.18636922  0.68637571  0.18734999  1
  Zn  Zn125  1  0.18992445  0.68966319  0.68585901  1
  Zn  Zn126  1  0.68461079  0.18992911  0.19152743  1
  Zn  Zn127  1  0.68592906  0.18613420  0.68880083  1
  Zn  Zn128  1  0.68798462  0.68934671  0.18798035  1
  Zn  Zn129  1  0.69126735  0.68892383  0.68714126  1
  Zn  Zn130  1  0.31408637  0.31362898  0.31310498  1
  Zn  Zn131  1  0.31269775  0.31156235  0.81206708  1
  Zn  Zn132  1  0.31310299  0.81261295  0.31244932  1
  Zn  Zn133  1  0.31259961  0.81386466  0.80847900  1
  Zn  Zn134  1  0.81411421  0.31252115  0.31126292  1
  Zn  Zn135  1  0.81057828  0.31332274  0.81004177  1
  Zn  Zn136  1  0.81366270  0.80882091  0.31179986  1
  Zn  Zn137  1  0.81393781  0.81213481  0.80894130  1
  Zn  Zn138  1  0.18579280  0.43784313  0.43593810  1
  Zn  Zn139  1  0.18906664  0.43658343  0.93547183  1
  Zn  Zn140  1  0.18568264  0.93855941  0.43774235  1
  Zn  Zn141  1  0.18939799  0.93593571  0.93852298  1
  Zn  Zn142  1  0.68445036  0.44126918  0.43649779  1
  Zn  Zn143  1  0.68749706  0.43644722  0.93821713  1
  Zn  Zn144  1  0.68300187  0.94358623  0.43668594  1
  Zn  Zn145  1  0.68675817  0.93830770  0.93940974  1
  Zn  Zn146  1  0.31392290  0.06242414  0.06185326  1
  Zn  Zn147  1  0.31110084  0.06195024  0.55787845  1
  Zn  Zn148  1  0.31371731  0.56144121  0.06232086  1
  Zn  Zn149  1  0.31087060  0.56335479  0.56615538  1
  Zn  Zn150  1  0.81160459  0.06094323  0.06337559  1
  Zn  Zn151  1  0.81049498  0.06464671  0.56148087  1
  Zn  Zn152  1  0.81381405  0.56055727  0.06172137  1
  Zn  Zn153  1  0.81348390  0.56350573  0.56143847  1
  Zn  Zn154  1  0.43582448  0.43603923  0.18650606  1
  Zn  Zn155  1  0.43959276  0.43650939  0.68518598  1
  Zn  Zn156  1  0.43574927  0.93717899  0.19071335  1
  Zn  Zn157  1  0.43772262  0.93590273  0.69012943  1
  Zn  Zn158  1  0.93476685  0.43889134  0.18677827  1
  Zn  Zn159  1  0.93814040  0.43664316  0.68589419  1
  Zn  Zn160  1  0.93715411  0.93771504  0.19117011  1
  Zn  Zn161  1  0.93807955  0.93673367  0.68821058  1
  Zn  Zn162  1  0.06270480  0.06191934  0.31209920  1
  Zn  Zn163  1  0.06278051  0.06149622  0.81089705  1
  Zn  Zn164  1  0.06391674  0.56127688  0.31235578  1
  Zn  Zn165  1  0.06125666  0.56240158  0.81135389  1
  Zn  Zn166  1  0.56288253  0.06255451  0.31472745  1
  Zn  Zn167  1  0.56257172  0.06257121  0.81503980  1
  Zn  Zn168  1  0.56563356  0.56119078  0.31203593  1
  Zn  Zn169  1  0.56142012  0.56299572  0.81242543  1
  Zn  Zn170  1  0.43741235  0.18619310  0.43935935  1
  Zn  Zn171  1  0.43816500  0.18679792  0.93979355  1
  Zn  Zn172  1  0.43800137  0.68804651  0.43643826  1
  Zn  Zn173  1  0.43862080  0.68697741  0.93744825  1
  Zn  Zn174  1  0.93569544  0.18675587  0.43858824  1
  Zn  Zn175  1  0.93574227  0.18650063  0.93701126  1
  Zn  Zn176  1  0.93797140  0.68803042  0.43554897  1
  Zn  Zn177  1  0.93879099  0.68712745  0.93673688  1
  Zn  Zn178  1  0.06250575  0.31373849  0.06246460  1
  Zn  Zn179  1  0.05855843  0.31202058  0.56265329  1
  Zn  Zn180  1  0.06335083  0.80967314  0.06298670  1
  Zn  Zn181  1  0.06521431  0.81172131  0.56044725  1
  Zn  Zn182  1  0.56259685  0.31218754  0.06247666  1
  Zn  Zn183  1  0.55930777  0.31437505  0.56465545  1
  Zn  Zn184  1  0.56382182  0.81135534  0.06276259  1
  Zn  Zn185  1  0.56242392  0.81699947  0.56442451  1
  O  O186  1  0.11928806  0.11887539  0.11943779  1
  O  O187  1  0.12017790  0.12101359  0.61926738  1
  O  O188  1  0.12594732  0.61705181  0.11623632  1
  O  O189  1  0.11902531  0.62621264  0.61740694  1
  O  O190  1  0.61370238  0.12474597  0.12159165  1
  O  O191  1  0.63219505  0.11111160  0.61791112  1
  O  O192  1  0.61904217  0.62551575  0.11813301  1
  O  O193  1  0.62427260  0.61961930  0.61721846  1
  O  O194  1  0.38498538  0.37082825  0.38840973  1
  O  O195  1  0.38125492  0.38059888  0.87553978  1
  O  O196  1  0.38628912  0.88369830  0.37216900  1
  O  O197  1  0.38070446  0.88396378  0.87585436  1
  O  O198  1  0.88057671  0.37472319  0.38380581  1
  O  O199  1  0.88141651  0.38047886  0.87470085  1
  O  O200  1  0.88414494  0.88451529  0.36834540  1
  O  O201  1  0.88093862  0.87977217  0.88023280  1
  O  O202  1  0.25654738  0.00432119  0.37250752  1
  O  O203  1  0.25975373  0.00424554  0.87581914  1
  O  O204  1  0.24334016  0.51019710  0.36402759  1
  O  O205  1  0.25777128  0.50662206  0.87215081  1
  O  O206  1  0.75812120  0.00702974  0.37374711  1
  O  O207  1  0.75496443  -0.00221209  0.86605205  1
  O  O208  1  0.75097704  0.51389969  0.37442531  1
  O  O209  1  0.75670619  0.50594074  0.87400460  1
  O  O210  1  0.24541067  0.49437904  0.13115898  1
  O  O211  1  0.24507971  0.49505548  0.62919777  1
  O  O212  1  0.24609277  0.99536066  0.12951451  1
  O  O213  1  0.24518162  0.99343443  0.62450146  1
  O  O214  1  0.74917333  0.48671292  0.12350077  1
  O  O215  1  0.73639333  0.50034804  0.62455943  1
  O  O216  1  0.74817309  0.98691869  0.12848087  1
  O  O217  1  0.74448470  0.99430689  0.63234890  1
  O  O218  1  -0.00111876  0.36860891  0.25649320  1
  O  O219  1  0.00757568  0.36876794  0.75483631  1
  O  O220  1  0.00740703  0.87616628  0.26177997  1
  O  O221  1  0.00797893  0.87400974  0.75681602  1
  O  O222  1  0.49665326  0.36949726  0.26138242  1
  O  O223  1  0.50531611  0.36601340  0.75538049  1
  O  O224  1  0.50682816  0.87066248  0.25786639  1
  O  O225  1  0.50888966  0.87513770  0.75892099  1
  O  O226  1  0.50457766  0.13372069  0.24173434  1
  O  O227  1  0.49831234  0.13887369  0.75473321  1
  O  O228  1  0.49561416  0.62972053  0.24690773  1
  O  O229  1  0.48906020  0.62833175  0.74799310  1
  O  O230  1  0.99466978  0.12973140  0.24462406  1
  O  O231  1  0.99930079  0.13069489  0.74274875  1
  O  O232  1  0.98978407  0.62463362  0.25047752  1
  O  O233  1  0.99406027  0.62698476  0.74177586  1
  O  O234  1  0.36905474  0.25034948  0.01101316  1
  O  O235  1  0.37158033  0.25776904  0.50614965  1
  O  O236  1  0.36894168  0.74956682  0.00686499  1
  O  O237  1  0.37425255  0.74391196  0.51443704  1
  O  O238  1  0.86809369  0.24986405  0.00686018  1
  O  O239  1  0.88178551  0.26012076  0.50996126  1
  O  O240  1  0.86883007  0.75694282  -0.00016949  1
  O  O241  1  0.87384505  0.74562454  0.51400478  1
  O  O242  1  0.12897844  0.24607714  0.49447740  1
  O  O243  1  0.12965769  0.24335541  0.99495709  1
  O  O244  1  0.12843159  0.74217494  0.49147787  1
  O  O245  1  0.13198835  0.74370203  0.99317834  1
  O  O246  1  0.61359528  0.23436508  0.50255965  1
  O  O247  1  0.62882347  0.24411370  0.99434012  1
  O  O248  1  0.62516672  0.73924047  0.50114964  1
  O  O249  1  0.63179037  0.74415207  0.99365261  1
  O  O250  1  0.49306925  0.24409726  0.13266498  1
  O  O251  1  0.48942581  0.25633009  0.63553778  1
  O  O252  1  0.49530077  0.74382918  0.13086784  1
  O  O253  1  0.49146167  0.75224654  0.62819984  1
  O  O254  1  0.99500865  0.24381261  0.12913285  1
  O  O255  1  0.99096502  0.24381522  0.62983006  1
  O  O256  1  0.99804383  0.74481643  0.12839184  1
  O  O257  1  0.99246605  0.74650128  0.62474324  1
  O  O258  1  0.00396994  0.25317391  0.36966798  1
  O  O259  1  0.00547143  0.25342925  0.86992437  1
  O  O260  1  0.00573899  0.75983995  0.37378425  1
  O  O261  1  0.00803586  0.75690008  0.87355084  1
  O  O262  1  0.49754397  0.25728081  0.36823562  1
  O  O263  1  0.50426203  0.25463183  0.86795722  1
  O  O264  1  0.50062245  0.76009567  0.37021919  1
  O  O265  1  0.50780583  0.75650946  0.87462271  1
  O  O266  1  0.24294167  0.13225563  0.49231404  1
  O  O267  1  0.24357569  0.12979918  0.99561591  1
  O  O268  1  0.24518869  0.62251499  0.48910194  1
  O  O269  1  0.24539199  0.62952226  0.99347922  1
  O  O270  1  0.73773512  0.11799807  0.48999412  1
  O  O271  1  0.74229968  0.13042746  1.00188893  1
  O  O272  1  0.74133564  0.62612972  0.49263661  1
  O  O273  1  0.74608433  0.63048442  0.99388686  1
  O  O274  1  0.25081070  0.36680232  0.00646793  1
  O  O275  1  0.25942192  0.37104040  0.49662041  1
  O  O276  1  0.25188879  0.86720506  0.00799594  1
  O  O277  1  0.24479032  0.87407926  0.51324412  1
  O  O278  1  0.75054860  0.36661547  0.00859821  1
  O  O279  1  0.76357477  0.38302967  0.49982307  1
  O  O280  1  0.75481004  0.87074708  0.00788215  1
  O  O281  1  0.74167904  0.87771148  0.51310862  1
  O  O282  1  0.13645440  0.49947298  0.24287170  1
  O  O283  1  0.12426813  0.48770674  0.74942348  1
  O  O284  1  0.13101946  0.99442435  0.24426642  1
  O  O285  1  0.12690680  0.99358564  0.74220395  1
  O  O286  1  0.62950015  0.49542173  0.24574630  1
  O  O287  1  0.62190893  0.49502089  0.73956355  1
  O  O288  1  0.62514102  0.98757217  0.24902388  1
  O  O289  1  0.63085756  0.99684802  0.74392613  1
  O  O290  1  0.36813630  -0.00362173  0.26370844  1
  O  O291  1  0.37639524  0.00401242  0.76234533  1
  O  O292  1  0.36137613  0.50616655  0.24354787  1
  O  O293  1  0.37698793  0.50938076  0.75395406  1
  O  O294  1  0.87429743  0.00681857  0.26237290  1
  O  O295  1  0.86598391  0.00017398  0.75487150  1
  O  O296  1  0.87044081  0.51069782  0.25348027  1
  O  O297  1  0.87470160  0.50607742  0.75479338  1
  O  O298  1  0.11712900  0.36724417  0.37365319  1
  O  O299  1  0.11950428  0.36815686  0.86719659  1
  O  O300  1  0.11900791  0.87119276  0.36946008  1
  O  O301  1  0.12178602  0.87009704  0.87009275  1
  O  O302  1  0.61181241  0.37092823  0.37947120  1
  O  O303  1  0.61896903  0.36884440  0.86880719  1
  O  O304  1  0.61634943  0.87606439  0.36663412  1
  O  O305  1  0.62148587  0.86989621  0.87116574  1
  O  O306  1  0.38524581  0.13506348  0.12106220  1
  O  O307  1  0.36937101  0.13917737  0.62348781  1
  O  O308  1  0.38118579  0.63040603  0.13138216  1
  O  O309  1  0.37648351  0.63396398  0.63340903  1
  O  O310  1  0.88009589  0.12828670  0.13099905  1
  O  O311  1  0.88060923  0.13254552  0.62507456  1
  O  O312  1  0.87473565  0.62575609  0.13531538  1
  O  O313  1  0.87994796  0.63280627  0.62875333  1
  O  O314  1  0.25673513  0.25208991  0.12278173  1
  O  O315  1  0.25828175  0.25505938  0.61692219  1
  O  O316  1  0.25527902  0.75403881  0.12048487  1
  O  O317  1  0.25823063  0.75881782  0.62188652  1
  O  O318  1  0.75400521  0.25557929  0.12123881  1
  O  O319  1  0.76350248  0.24895994  0.63017550  1
  O  O320  1  0.75125395  0.76134166  0.11832241  1
  O  O321  1  0.75724115  0.76061551  0.62310915  1
  O  O322  1  0.24493552  0.24594209  0.37903035  1
  O  O323  1  0.24482205  0.24407472  0.88143563  1
  O  O324  1  0.24559743  0.74107294  0.37569978  1
  O  O325  1  0.24635946  0.74507002  0.87995976  1
  O  O326  1  0.74839537  0.23685359  0.37166107  1
  O  O327  1  0.74286844  0.24840449  0.88076335  1
  O  O328  1  0.74758511  0.74112485  0.37982864  1
  O  O329  1  0.74564670  0.74492035  0.87929451  1
  O  O330  1  0.00504948  0.11860459  0.00590306  1
  O  O331  1  0.00558330  0.11954182  0.50526047  1
  O  O332  1  0.00796620  0.61681151  -0.00149546  1
  O  O333  1  0.00477134  0.61713547  0.50233455  1
  O  O334  1  0.50506242  0.12071042  0.01109633  1
  O  O335  1  0.50915978  0.11088817  0.49303086  1
  O  O336  1  0.50605378  0.61968944  0.00528231  1
  O  O337  1  0.50863158  0.61789767  0.49825571  1
  O  O338  1  0.49311672  0.38245035  0.49419899  1
  O  O339  1  0.49885831  0.38001694  0.99293761  1
  O  O340  1  0.51028100  0.88819312  0.48784044  1
  O  O341  1  0.49954933  0.88122109  0.99503292  1
  O  O342  1  0.99187225  0.38213897  0.49529282  1
  O  O343  1  0.99911706  0.38056051  0.99200871  1
  O  O344  1  1.00791711  0.88235342  0.48553259  1
  O  O345  1  0.99612565  0.88042353  0.99493641  1
  O  O346  1  0.50505093  0.49162364  0.38701905  1
  O  O347  1  0.49535704  0.49431332  0.88010490  1
  O  O348  1  0.49190724  0.99491321  0.37994345  1
  O  O349  1  0.49351432  0.99547809  0.88187403  1
  O  O350  1  0.99928947  0.49383573  0.38497978  1
  O  O351  1  0.99491533  0.49386416  0.87937989  1
  O  O352  1  0.99267506  0.99445447  0.37921765  1
  O  O353  1  0.99612802  0.99416271  0.88132644  1
  O  O354  1  0.00575777  0.00433030  0.12046625  1
  O  O355  1  0.00468485  0.00432247  0.61944759  1
  O  O356  1  0.00705163  0.50000873  0.11736249  1
  O  O357  1  0.00128630  0.50655060  0.61377970  1
  O  O358  1  0.49745740  0.00915479  0.12268297  1
  O  O359  1  0.50990721  -0.00883177  0.61650393  1
  O  O360  1  0.49979015  0.50591529  0.11844052  1
  O  O361  1  0.51091313  0.50198294  0.61407926  1
  O  O362  1  0.24991838  0.38387239  0.24590746  1
  O  O363  1  0.23770899  0.37432660  0.75021440  1
  O  O364  1  0.24507839  0.88190444  0.24506678  1
  O  O365  1  0.24341873  0.87823331  0.73897240  1
  O  O366  1  0.74836602  0.37382841  0.24017529  1
  O  O367  1  0.73953622  0.37835124  0.74545778  1
  O  O368  1  0.74140992  0.87317533  0.24360824  1
  O  O369  1  0.74506039  0.88534403  0.74242594  1
  O  O370  1  0.24212701  0.11604140  0.25907625  1
  O  O371  1  0.25305601  0.12256217  0.75874816  1
  O  O372  1  0.25465523  0.61810608  0.25628464  1
  O  O373  1  0.26124195  0.62503851  0.75530829  1
  O  O374  1  0.75394800  0.12264577  0.25906960  1
  O  O375  1  0.74980202  0.11077099  0.75219335  1
  O  O376  1  0.75656462  0.62712533  0.25876259  1
  O  O377  1  0.75687914  0.62198634  0.75625658  1
  O  O378  1  0.36684635  0.11463016  0.38002867  1
  O  O379  1  0.37027556  0.11521430  0.87697016  1
  O  O380  1  0.36301067  0.63049477  0.36865829  1
  O  O381  1  0.37163449  0.62087972  0.86652768  1
  O  O382  1  0.86713300  0.11841189  0.37200606  1
  O  O383  1  0.87193117  0.11568996  0.87237716  1
  O  O384  1  0.86628997  0.62493567  0.36861030  1
  O  O385  1  0.87083270  0.61993754  0.86843130  1
  O  O386  1  0.13221934  0.38050637  0.12737131  1
  O  O387  1  0.12340661  0.37392632  0.63628947  1
  O  O388  1  0.13137219  0.88045486  0.13002279  1
  O  O389  1  0.13201643  0.88015308  0.62925160  1
  O  O390  1  0.63575390  0.37369324  0.12678746  1
  O  O391  1  0.62577177  0.38422270  0.62758780  1
  O  O392  1  0.63243199  0.87542515  0.13390891  1
  O  O393  1  0.63337727  0.88593976  0.63090873  1
  O  O394  1  0.11730097  0.25167662  0.25623181  1
  O  O395  1  0.11964557  0.25641397  0.75509937  1
  O  O396  1  0.12508321  0.75665060  0.25647401  1
  O  O397  1  0.12462405  0.75659979  0.75635796  1
  O  O398  1  0.60957298  0.25556826  0.25434878  1
  O  O399  1  0.61702471  0.25414862  0.75306250  1
  O  O400  1  0.61824254  0.76076887  0.25198917  1
  O  O401  1  0.62610367  0.75701169  0.75611716  1
  O  O402  1  0.38507289  0.25431186  0.24014046  1
  O  O403  1  0.38186726  0.24977811  0.74153937  1
  O  O404  1  0.38068964  0.74378994  0.24446519  1
  O  O405  1  0.37665811  0.74141940  0.74172580  1
  O  O406  1  0.88115372  0.24258094  0.24421679  1
  O  O407  1  0.88131136  0.24909126  0.74099993  1
  O  O408  1  0.87789338  0.73817727  0.24792094  1
  O  O409  1  0.87670251  0.74353677  0.73847335  1
  O  O410  1  0.38669229  0.49217918  0.50908932  1
  O  O411  1  0.38230354  0.49886553  0.99230881  1
  O  O412  1  0.38466944  1.00294508  0.49004650  1
  O  O413  1  0.38132932  0.99775060  0.99087720  1
  O  O414  1  0.88523091  0.49270456  0.49948545  1
  O  O415  1  0.88258794  0.49804976  0.99146341  1
  O  O416  1  0.88117010  1.00610852  0.48739242  1
  O  O417  1  0.88082528  0.99372897  0.99527896  1
  O  O418  1  0.12016151  0.00433228  0.00589252  1
  O  O419  1  0.11863897  0.00742143  0.50530073  1
  O  O420  1  0.12100880  0.50424600  0.00283086  1
  O  O421  1  0.11405862  0.50500559  0.49981140  1
  O  O422  1  0.61792441  0.00618668  0.00367218  1
  O  O423  1  0.61631849  0.00852826  0.50781696  1
  O  O424  1  0.61810358  0.50688611  0.00091214  1
  O  O425  1  0.61742718  0.50989373  0.50670635  1
  O  O426  1  0.36895394  0.36328283  0.12238143  1
  O  O427  1  0.37496853  0.36645100  0.61344778  1
  O  O428  1  0.36925889  0.86739483  0.12515889  1
  O  O429  1  0.36537576  0.86667377  0.63306721  1
  O  O430  1  0.86538280  0.36717659  0.12337557  1
  O  O431  1  0.87382984  0.36698866  0.61715199  1
  O  O432  1  0.86652227  0.87490634  0.12089951  1
  O  O433  1  0.86514442  0.86725559  0.63093866  1
  O  O434  1  0.12924784  0.13042568  0.38113974  1
  O  O435  1  0.12974860  0.12906026  0.88097200  1
  O  O436  1  0.13421903  0.63051685  0.37816604  1
  O  O437  1  0.13152811  0.62972289  0.87833610  1
  O  O438  1  0.63235310  0.12532522  0.38318875  1
  O  O439  1  0.62651246  0.13127538  0.88325559  1
  O  O440  1  0.63228889  0.62787183  0.38350424  1
  O  O441  1  0.63080935  0.62981064  0.87993834  1
