# generated using pymatgen
data_V93Zn93O256
_symmetry_space_group_name_H-M   'P 1'
_cell_length_a   17.04584628
_cell_length_b   17.04732725
_cell_length_c   17.05014060
_cell_angle_alpha   89.98842731
_cell_angle_beta   90.01297123
_cell_angle_gamma   90.00211080
_symmetry_Int_Tables_number   1
_chemical_formula_structural   V93Zn93O256
_chemical_formula_sum   'V93 Zn93 O256'
_cell_volume   4954.53396676
_cell_formula_units_Z   1
loop_
 _symmetry_equiv_pos_site_id
 _symmetry_equiv_pos_as_xyz
  1  'x, y, z'
loop_
 _atom_site_type_symbol
 _atom_site_label
 _atom_site_symmetry_multiplicity
 _atom_site_fract_x
 _atom_site_fract_y
 _atom_site_fract_z
 _atom_site_occupancy
  V  V0  1  -0.00024173  0.12381385  0.62428522  1
  V  V1  1  0.87482113  0.37560489  -0.00093768  1
  V  V2  1  0.50057698  0.00028898  0.50096809  1
  V  V3  1  0.87655667  0.62507854  0.24542107  1
  V  V4  1  0.50113668  0.87706920  0.37445282  1
  V  V5  1  0.62538933  0.11811072  0.00332103  1
  V  V6  1  0.37511395  0.37556916  0.50090682  1
  V  V7  1  0.87432188  0.49984586  0.37385557  1
  V  V8  1  0.62517660  0.37564261  0.75006998  1
  V  V9  1  0.37495328  0.25083254  0.12586338  1
  V  V10  1  0.74726939  0.12264639  0.36907282  1
  V  V11  1  -0.00048556  0.37580412  0.87530732  1
  V  V12  1  0.12373506  0.12418992  0.50103191  1
  V  V13  1  0.12220558  0.50296439  0.12549714  1
  V  V14  1  0.12500898  0.87471338  0.75001231  1
  V  V15  1  0.12530771  0.62549577  0.49917321  1
  V  V16  1  -0.00077482  0.62447983  0.62449829  1
  V  V17  1  0.50531804  0.75507858  0.74971903  1
  V  V18  1  0.87034193  0.12423611  0.75049225  1
  V  V19  1  0.50024153  0.24885259  0.75057425  1
  V  V20  1  0.25205364  0.12359737  0.87427021  1
  V  V21  1  0.12524778  0.24977276  0.87580301  1
  V  V22  1  -0.00067707  0.12522159  0.12490227  1
  V  V23  1  0.12433961  0.87450111  0.24862333  1
  V  V24  1  0.74826499  -0.01586550  0.74437404  1
  V  V25  1  0.12499543  0.00062543  0.12477959  1
  V  V26  1  0.62904991  0.88899933  0.24551768  1
  V  V27  1  0.12476092  0.75057800  0.87505357  1
  V  V28  1  -0.00140792  0.87368003  0.37369364  1
  V  V29  1  0.49923657  0.50043833  0.50056560  1
  V  V30  1  0.24910863  0.87466211  0.62543914  1
  V  V31  1  0.24979652  0.37409007  0.62566363  1
  V  V32  1  0.75103487  0.62752898  0.87778597  1
  V  V33  1  0.74888170  0.24943169  -0.00082041  1
  V  V34  1  -0.00055931  0.24944206  0.75026030  1
  V  V35  1  0.49987804  0.37593140  0.87644532  1
  V  V36  1  0.37346572  0.50168612  0.37396639  1
  V  V37  1  0.25066474  0.00019504  0.25017991  1
  V  V38  1  -0.00017563  0.50005410  0.49899139  1
  V  V39  1  0.87137055  0.75264507  0.62341790  1
  V  V40  1  -0.00014378  0.87473067  0.87533410  1
  V  V41  1  -0.00109264  0.50330126  0.00238858  1
  V  V42  1  0.62566010  0.50029013  0.62591099  1
  V  V43  1  0.50027415  0.74983837  0.24821623  1
  V  V44  1  -0.00113622  -0.00134899  -0.00124587  1
  V  V45  1  0.86774760  0.87049390  -0.00034956  1
  V  V46  1  0.24860264  0.74981242  0.49835517  1
  V  V47  1  0.24957092  0.24891383  0.50054262  1
  V  V48  1  0.62555749  0.25021064  0.87617080  1
  V  V49  1  0.87548203  0.62401602  0.75035645  1
  V  V50  1  0.12374392  0.37368018  0.25034104  1
  V  V51  1  0.74959799  0.62489843  0.37374638  1
  V  V52  1  0.12470374  0.12535037  -0.00071144  1
  V  V53  1  0.87367556  0.37456460  0.50070730  1
  V  V54  1  -0.00123305  0.74562397  0.24186215  1
  V  V55  1  0.12151219  0.62625118  0.00282128  1
  V  V56  1  0.62544251  0.75076044  0.37356032  1
  V  V57  1  0.74804088  0.88910155  0.12825370  1
  V  V58  1  0.24910993  0.12493181  0.37483694  1
  V  V59  1  0.37633803  0.24865195  0.62677884  1
  V  V60  1  0.75000734  0.75150268  0.50028639  1
  V  V61  1  0.37540991  0.37612544  0.00130447  1
  V  V62  1  0.86996081  0.87521465  0.50116699  1
  V  V63  1  0.87615372  0.24914642  0.12728134  1
  V  V64  1  0.50141077  0.62634801  0.62593837  1
  V  V65  1  0.50023194  0.62640365  0.12554792  1
  V  V66  1  0.62547407  0.50066042  0.12502759  1
  V  V67  1  0.37527204  0.75116417  0.62500202  1
  V  V68  1  0.50032643  0.25059514  0.25281773  1
  V  V69  1  0.37671798  0.87571088  0.00043984  1
  V  V70  1  0.62761520  0.75248716  0.87463318  1
  V  V71  1  0.49976762  0.50011187  0.00041005  1
  V  V72  1  0.86644292  0.74810739  0.12287833  1
  V  V73  1  0.87023200  -0.00119880  0.36683161  1
  V  V74  1  0.25105443  0.50121104  0.75081592  1
  V  V75  1  0.87358210  0.25054832  0.62452030  1
  V  V76  1  0.50182067  0.12372472  0.62684215  1
  V  V77  1  0.12468635  0.49972710  0.62504098  1
  V  V78  1  0.37518169  0.62450240  0.75154949  1
  V  V79  1  0.24962239  0.37515721  0.12483852  1
  V  V80  1  0.74970489  0.50040401  0.24949629  1
  V  V81  1  0.62435690  0.37417505  0.25109556  1
  V  V82  1  0.74944431  0.37494234  0.62506097  1
  V  V83  1  0.12469753  0.37540673  0.75046382  1
  V  V84  1  0.12467410  -0.00102030  0.62513317  1
  V  V85  1  0.25066634  0.75073641  0.00108367  1
  V  V86  1  0.62528162  0.62571040  0.50003406  1
  V  V87  1  0.50382609  0.87697202  0.87477477  1
  V  V88  1  0.62908189  0.63019788  0.00045162  1
  V  V89  1  0.62801406  -0.01304147  0.62752234  1
  V  V90  1  -0.00073010  0.37397905  0.37405976  1
  V  V91  1  0.74964462  0.37467266  0.12486736  1
  V  V92  1  0.50339458  0.11843356  0.12520462  1
  Zn  Zn93  1  0.25180982  0.62342389  0.87583972  1
  Zn  Zn94  1  0.37467107  0.87516269  0.49875350  1
  Zn  Zn95  1  0.37516098  0.12452113  0.24915882  1
  Zn  Zn96  1  -0.00186367  0.00018672  0.49912427  1
  Zn  Zn97  1  0.24908670  0.62639235  0.37139585  1
  Zn  Zn98  1  0.00095637  0.75042351  0.74911374  1
  Zn  Zn99  1  0.12518832  0.74741760  0.37123837  1
  Zn  Zn100  1  0.74762712  0.24788053  0.50031923  1
  Zn  Zn101  1  0.87187217  0.11764143  0.24548610  1
  Zn  Zn102  1  0.37769067  0.00154370  0.87409959  1
  Zn  Zn103  1  0.50096137  0.37373700  0.37734476  1
  Zn  Zn104  1  0.25020760  0.50373714  0.25022383  1
  Zn  Zn105  1  0.25194286  0.87632077  0.12537362  1
  Zn  Zn106  1  0.37208404  0.62551425  0.24873688  1
  Zn  Zn107  1  0.37665053  0.12226724  0.75221886  1
  Zn  Zn108  1  0.50386310  -0.00275723  0.00395678  1
  Zn  Zn109  1  0.37515508  -0.00044643  0.37637863  1
  Zn  Zn110  1  0.87387355  0.50064245  0.87566742  1
  Zn  Zn111  1  0.37386834  0.50102296  0.87633467  1
  Zn  Zn112  1  0.25076874  0.25025198  0.00056535  1
  Zn  Zn113  1  0.25368387  -0.00108663  0.74985426  1
  Zn  Zn114  1  0.37445456  0.74896904  0.12597097  1
  Zn  Zn115  1  0.74833349  0.12242301  0.87401748  1
  Zn  Zn116  1  0.62605186  0.25166860  0.37921429  1
  Zn  Zn117  1  0.62927356  0.12611663  0.50396203  1
  Zn  Zn118  1  0.74965395  0.49970049  0.75117675  1
  Zn  Zn119  1  0.12178968  0.24958182  0.37586323  1
  Zn  Zn120  1  0.87297686  -0.00196891  0.87361854  1
  Zn  Zn121  1  -0.00125715  0.24604742  0.25285183  1
  Zn  Zn122  1  0.18686993  0.18848966  0.18678844  1
  Zn  Zn123  1  0.18775200  0.18640476  0.68895395  1
  Zn  Zn124  1  0.18800555  0.68695052  0.18703935  1
  Zn  Zn125  1  0.18780370  0.68777486  0.68748903  1
  Zn  Zn126  1  0.68652339  0.18543778  0.18827490  1
  Zn  Zn127  1  0.68569940  0.18525291  0.68538287  1
  Zn  Zn128  1  0.68867048  0.69276510  0.18689983  1
  Zn  Zn129  1  0.68984686  0.68857927  0.68898488  1
  Zn  Zn130  1  0.31183608  0.31419016  0.31301280  1
  Zn  Zn131  1  0.31354877  0.31177586  0.81407002  1
  Zn  Zn132  1  0.31478628  0.81501614  0.31475774  1
  Zn  Zn133  1  0.31416266  0.81202601  0.81309850  1
  Zn  Zn134  1  0.81043444  0.31082708  0.31364792  1
  Zn  Zn135  1  0.81126828  0.31216846  0.81271200  1
  Zn  Zn136  1  0.81022175  0.81301877  0.30951561  1
  Zn  Zn137  1  0.81470042  0.80829678  0.81378355  1
  Zn  Zn138  1  0.18822147  0.43756753  0.43704003  1
  Zn  Zn139  1  0.18909750  0.43748624  0.93730217  1
  Zn  Zn140  1  0.18462937  0.93672449  0.43783990  1
  Zn  Zn141  1  0.18793253  0.93851829  0.93674714  1
  Zn  Zn142  1  0.68652911  0.43638274  0.43785899  1
  Zn  Zn143  1  0.68768040  0.44011686  0.93706362  1
  Zn  Zn144  1  0.68598919  0.93956792  0.43597800  1
  Zn  Zn145  1  0.69113212  0.93862519  0.93408825  1
  Zn  Zn146  1  0.31531626  0.06328294  0.06105991  1
  Zn  Zn147  1  0.31385374  0.06188240  0.56424849  1
  Zn  Zn148  1  0.31183518  0.56335172  0.06447600  1
  Zn  Zn149  1  0.31276096  0.56414227  0.56365047  1
  Zn  Zn150  1  0.81353647  0.06238974  0.05912161  1
  Zn  Zn151  1  0.81061759  0.06103934  0.55985632  1
  Zn  Zn152  1  0.81228489  0.56374247  0.06293508  1
  Zn  Zn153  1  0.81132660  0.56214933  0.56229772  1
  Zn  Zn154  1  0.43803857  0.43769893  0.18835113  1
  Zn  Zn155  1  0.43786973  0.43749651  0.68823403  1
  Zn  Zn156  1  0.43685438  0.93561341  0.18869864  1
  Zn  Zn157  1  0.43548691  0.93841466  0.68824829  1
  Zn  Zn158  1  0.93823512  0.43651506  0.18694629  1
  Zn  Zn159  1  0.93706553  0.43825271  0.68760089  1
  Zn  Zn160  1  0.93728962  0.93454251  0.18426664  1
  Zn  Zn161  1  0.93839572  0.93739690  0.68719828  1
  Zn  Zn162  1  0.06034920  0.06199135  0.31159531  1
  Zn  Zn163  1  0.06318185  0.06022487  0.81194871  1
  Zn  Zn164  1  0.06209515  0.56392679  0.31309920  1
  Zn  Zn165  1  0.06318392  0.56388117  0.81503978  1
  Zn  Zn166  1  0.56151679  0.06542686  0.31376801  1
  Zn  Zn167  1  0.56787705  0.06215102  0.81137725  1
  Zn  Zn168  1  0.56062937  0.56213643  0.31327973  1
  Zn  Zn169  1  0.56162989  0.56297846  0.81288808  1
  Zn  Zn170  1  0.43580884  0.18483118  0.43919781  1
  Zn  Zn171  1  0.43855778  0.18920557  0.94000038  1
  Zn  Zn172  1  0.43655298  0.68760412  0.43646775  1
  Zn  Zn173  1  0.43844148  0.68738512  0.93718865  1
  Zn  Zn174  1  0.93448628  0.18703468  0.43701383  1
  Zn  Zn175  1  0.93700484  0.18676077  0.93672478  1
  Zn  Zn176  1  0.93755315  0.68719397  0.43433066  1
  Zn  Zn177  1  0.93894352  0.68995510  0.93854187  1
  Zn  Zn178  1  0.06211258  0.31315902  0.06168606  1
  Zn  Zn179  1  0.06156444  0.31109217  0.56188375  1
  Zn  Zn180  1  0.06039365  0.81453166  0.06322215  1
  Zn  Zn181  1  0.06024290  0.81169088  0.56214869  1
  Zn  Zn182  1  0.56221287  0.30956592  0.06408621  1
  Zn  Zn183  1  0.56340746  0.31100237  0.56169230  1
  Zn  Zn184  1  0.56670506  0.81406137  0.06367579  1
  Zn  Zn185  1  0.56234786  0.81287907  0.56059104  1
  O  O186  1  0.11938444  0.12064487  0.11905048  1
  O  O187  1  0.11970104  0.11984707  0.62098524  1
  O  O188  1  0.12797637  0.61470177  0.11415339  1
  O  O189  1  0.11870482  0.61915645  0.62007077  1
  O  O190  1  0.61529312  0.13315514  0.11454102  1
  O  O191  1  0.61783406  0.11325245  0.62490245  1
  O  O192  1  0.62314706  0.62187257  0.11747294  1
  O  O193  1  0.62110578  0.62151197  0.61963751  1
  O  O194  1  0.37622151  0.38380247  0.38282038  1
  O  O195  1  0.38240335  0.37605098  0.88275245  1
  O  O196  1  0.38530441  0.87980272  0.37820012  1
  O  O197  1  0.38679509  0.87219760  0.88464509  1
  O  O198  1  0.87854093  0.38130292  0.37942253  1
  O  O199  1  0.88075098  0.37687434  0.88120934  1
  O  O200  1  0.87994655  0.87935298  0.37986505  1
  O  O201  1  0.88002428  0.87196019  0.88440659  1
  O  O202  1  0.24796811  0.00731755  0.36715208  1
  O  O203  1  0.25031833  0.01221531  0.87413560  1
  O  O204  1  0.26147071  0.50169636  0.37567370  1
  O  O205  1  0.25214527  0.50198831  0.86657470  1
  O  O206  1  0.75836927  0.01161406  0.37976643  1
  O  O207  1  0.75199031  0.00241147  0.85813897  1
  O  O208  1  0.75491829  0.50530825  0.36897085  1
  O  O209  1  0.75216344  0.51337075  0.87262208  1
  O  O210  1  0.23754467  0.49400876  0.12508817  1
  O  O211  1  0.24407415  0.49379053  0.62992498  1
  O  O212  1  0.24438545  1.00162363  0.13454946  1
  O  O213  1  0.24274167  0.99256721  0.62480260  1
  O  O214  1  0.74491369  0.49435372  0.13009761  1
  O  O215  1  0.74317203  0.49431265  0.62673787  1
  O  O216  1  0.75748312  0.98842945  0.12602806  1
  O  O217  1  0.74393435  1.00249677  0.63636210  1
  O  O218  1  0.00839486  0.37435325  0.25496295  1
  O  O219  1  0.00472522  0.37029568  0.75498590  1
  O  O220  1  0.00335677  0.86720106  0.25650982  1
  O  O221  1  0.00573257  0.87275192  0.75662326  1
  O  O222  1  0.50584035  0.36507441  0.24989310  1
  O  O223  1  0.50592048  0.36951885  0.75545678  1
  O  O224  1  0.50820364  0.86794257  0.25290700  1
  O  O225  1  0.49528317  0.86251790  0.75994319  1
  O  O226  1  0.49924921  0.13368233  0.24312931  1
  O  O227  1  0.50076534  0.13180464  0.74546759  1
  O  O228  1  0.50158284  0.63509646  0.24452733  1
  O  O229  1  0.49596749  0.63452226  0.74539986  1
  O  O230  1  0.99577423  0.12692407  0.24121069  1
  O  O231  1  0.99129826  0.12902505  0.74506128  1
  O  O232  1  0.99260906  0.63710883  0.25582894  1
  O  O233  1  0.99144792  0.62610877  0.74502955  1
  O  O234  1  0.37537931  0.25883366  0.00910343  1
  O  O235  1  0.36968709  0.25518425  0.50654285  1
  O  O236  1  0.36736224  0.75735295  -0.00045957  1
  O  O237  1  0.36598488  0.75008430  0.50626893  1
  O  O238  1  0.87011678  0.25500654  0.00804353  1
  O  O239  1  0.87460402  0.25812044  0.50812003  1
  O  O240  1  0.88290726  0.76038739  0.01068238  1
  O  O241  1  0.87028077  0.75486846  0.50453583  1
  O  O242  1  0.13208282  0.24316735  0.49950847  1
  O  O243  1  0.12512486  0.24364329  0.99349444  1
  O  O244  1  0.13321742  0.74471673  0.49969838  1
  O  O245  1  0.12989315  0.74437281  0.99802169  1
  O  O246  1  0.62768954  0.24493035  0.49634408  1
  O  O247  1  0.63018739  0.24321505  0.99550537  1
  O  O248  1  0.62994063  0.74533278  0.49407917  1
  O  O249  1  0.61868013  0.73717511  0.99012373  1
  O  O250  1  0.49502607  0.24297716  0.13493348  1
  O  O251  1  0.49579329  0.24410660  0.63101849  1
  O  O252  1  0.50241806  0.74506741  0.13409958  1
  O  O253  1  0.49770564  0.74654065  0.63231407  1
  O  O254  1  0.98999356  0.24493045  0.12312371  1
  O  O255  1  0.99420357  0.24472905  0.63174969  1
  O  O256  1  0.98767592  0.75875745  0.13658151  1
  O  O257  1  0.98817971  0.74214392  0.62440212  1
  O  O258  1  0.00088808  0.25787035  0.37262225  1
  O  O259  1  0.00497034  0.25567187  0.86970595  1
  O  O260  1  -0.00276233  0.75995740  0.36364321  1
  O  O261  1  0.00749346  0.75699742  0.87382839  1
  O  O262  1  0.49919009  0.24851733  0.36351984  1
  O  O263  1  0.50615589  0.25679089  0.87087247  1
  O  O264  1  0.50597441  0.75523408  0.36805608  1
  O  O265  1  0.50834350  0.75584224  0.86839117  1
  O  O266  1  0.24477483  0.12853340  0.49318782  1
  O  O267  1  0.24321581  0.12660516  0.99185373  1
  O  O268  1  0.24386347  0.63562404  0.50229124  1
  O  O269  1  0.24089404  0.63375447  0.99953299  1
  O  O270  1  0.75051980  0.12676187  0.48784987  1
  O  O271  1  0.74238742  0.13070673  0.99835663  1
  O  O272  1  0.74474836  0.63032137  0.49327831  1
  O  O273  1  0.73971636  0.62030447  0.99080871  1
  O  O274  1  0.25591655  0.37360741  0.00700727  1
  O  O275  1  0.25424025  0.36911124  0.50678845  1
  O  O276  1  0.25864313  0.86762025  -0.00081272  1
  O  O277  1  0.24929632  0.86531108  0.50541447  1
  O  O278  1  0.75452045  0.37107254  0.00538506  1
  O  O279  1  0.75706596  0.37506345  0.50676071  1
  O  O280  1  0.76200381  0.87991885  0.00642840  1
  O  O281  1  0.76270485  0.86801497  0.49093853  1
  O  O282  1  0.12149746  0.49248650  0.24043577  1
  O  O283  1  0.12905165  0.49512377  0.74444161  1
  O  O284  1  0.13237123  0.99516647  0.24514753  1
  O  O285  1  0.12771245  0.99245285  0.74272273  1
  O  O286  1  0.62994292  0.49581336  0.24428444  1
  O  O287  1  0.62460212  0.49433826  0.74343507  1
  O  O288  1  0.61870593  0.98707679  0.25267269  1
  O  O289  1  0.64129768  1.00186306  0.74365337  1
  O  O290  1  0.36194738  0.00144878  0.25148562  1
  O  O291  1  0.37171887  0.00364040  0.75609063  1
  O  O292  1  0.37477502  0.49985969  0.26155137  1
  O  O293  1  0.36947040  0.50658345  0.74993635  1
  O  O294  1  0.87862936  -0.00351178  0.26293067  1
  O  O295  1  0.86422782  0.00671815  0.74672905  1
  O  O296  1  0.86966245  0.50429708  0.25312942  1
  O  O297  1  0.87480796  0.51294283  0.75223277  1
  O  O298  1  0.11916389  0.37622290  0.36586507  1
  O  O299  1  0.11939690  0.37006829  0.86980116  1
  O  O300  1  0.11334562  0.87339047  0.36859179  1
  O  O301  1  0.11985653  0.86992443  0.87075245  1
  O  O302  1  0.62172189  0.37363563  0.36665493  1
  O  O303  1  0.62007894  0.37055878  0.87091387  1
  O  O304  1  0.62131872  0.86976185  0.36618332  1
  O  O305  1  0.61760689  0.86158871  0.88555612  1
  O  O306  1  0.38416778  0.13293868  0.12566659  1
  O  O307  1  0.38245900  0.13188017  0.62719136  1
  O  O308  1  0.38472440  0.62831848  0.12708136  1
  O  O309  1  0.38242203  0.63142094  0.63082130  1
  O  O310  1  0.87926212  0.13366703  0.12409631  1
  O  O311  1  0.87962276  0.12949168  0.63247260  1
  O  O312  1  0.86741284  0.63615548  0.13127723  1
  O  O313  1  0.87926033  0.63082592  0.63108634  1
  O  O314  1  0.25676889  0.25657756  0.12439905  1
  O  O315  1  0.25519158  0.25453441  0.62062415  1
  O  O316  1  0.25085799  0.75346824  0.11219497  1
  O  O317  1  0.25446488  0.75473874  0.61676420  1
  O  O318  1  0.75731358  0.25497327  0.11955269  1
  O  O319  1  0.75638412  0.25710619  0.62507786  1
  O  O320  1  0.76184159  0.76085865  0.12801159  1
  O  O321  1  0.76344961  0.74322105  0.61774790  1
  O  O322  1  0.24786922  0.24093772  0.38072332  1
  O  O323  1  0.24333036  0.24200386  0.87700949  1
  O  O324  1  0.24858369  0.75045880  0.38657697  1
  O  O325  1  0.24383055  0.74967192  0.88673179  1
  O  O326  1  0.75148484  0.23644880  0.37782615  1
  O  O327  1  0.74362495  0.24878259  0.88215505  1
  O  O328  1  0.74492749  0.74350162  0.37932890  1
  O  O329  1  0.73942987  0.73865417  0.86816543  1
  O  O330  1  0.00454686  0.11874112  0.00427122  1
  O  O331  1  0.00518932  0.12431705  0.50658166  1
  O  O332  1  0.00974563  0.61543892  -0.00478696  1
  O  O333  1  0.00397782  0.61934726  0.50386877  1
  O  O334  1  0.50812192  0.12451649  0.00818683  1
  O  O335  1  0.50129076  0.11454791  0.50635033  1
  O  O336  1  0.50933611  0.62042296  0.00474344  1
  O  O337  1  0.50635419  0.62183606  0.50646418  1
  O  O338  1  0.49265096  0.38237774  0.50111251  1
  O  O339  1  0.49647445  0.38049718  0.99701132  1
  O  O340  1  0.50074244  0.88397236  0.49304193  1
  O  O341  1  0.49437117  0.87415227  0.99324728  1
  O  O342  1  0.99451479  0.38113104  0.49500156  1
  O  O343  1  0.99532903  0.38337115  0.99451185  1
  O  O344  1  0.98964369  0.87181931  0.48801855  1
  O  O345  1  0.99147536  0.88027693  0.99542128  1
  O  O346  1  0.49110904  0.49911463  0.38238693  1
  O  O347  1  0.49984483  0.49341005  0.88248941  1
  O  O348  1  0.50023643  0.99708313  0.38518574  1
  O  O349  1  0.50440440  0.98549879  0.87444593  1
  O  O350  1  0.99311921  0.49464369  0.37972351  1
  O  O351  1  0.99932240  0.49456267  0.88616462  1
  O  O352  1  0.99165227  0.98861629  0.37581970  1
  O  O353  1  0.99791822  0.99233133  0.88053545  1
  O  O354  1  0.00476254  0.00500070  0.11930702  1
  O  O355  1  0.00601576  0.00630493  0.62269625  1
  O  O356  1  0.01003018  0.49320411  0.11301526  1
  O  O357  1  0.00512754  0.50443651  0.61864891  1
  O  O358  1  0.49466405  0.01491320  0.12602278  1
  O  O359  1  0.50740559  0.00275902  0.62003651  1
  O  O360  1  0.50738280  0.50592784  0.12087144  1
  O  O361  1  0.50545819  0.50688902  0.62022114  1
  O  O362  1  0.23885619  0.37886323  0.24496522  1
  O  O363  1  0.24413416  0.37939964  0.74474655  1
  O  O364  1  0.24413930  0.88364667  0.25006393  1
  O  O365  1  0.24324363  0.87344322  0.74353321  1
  O  O366  1  0.74509405  0.38095299  0.24442195  1
  O  O367  1  0.74348123  0.37756891  0.74438694  1
  O  O368  1  0.73989021  0.87126702  0.24207633  1
  O  O369  1  0.75780247  0.88617598  0.74981486  1
  O  O370  1  0.24771894  0.11726860  0.25811669  1
  O  O371  1  0.25124540  0.12469780  0.76233692  1
  O  O372  1  0.25361699  0.62230232  0.25295641  1
  O  O373  1  0.25670477  0.61941766  0.75003661  1
  O  O374  1  0.75322722  0.12837554  0.26366342  1
  O  O375  1  0.76138629  0.12193776  0.74987015  1
  O  O376  1  0.75414660  0.61962998  0.25477658  1
  O  O377  1  0.75928128  0.62352272  0.75819822  1
  O  O378  1  0.36069296  0.12172365  0.37343442  1
  O  O379  1  0.36506158  0.12576431  0.87714336  1
  O  O380  1  0.37393990  0.61380308  0.37422177  1
  O  O381  1  0.37374726  0.62283699  0.86745343  1
  O  O382  1  0.86724955  0.11559174  0.37289531  1
  O  O383  1  0.87445664  0.12254358  0.86251555  1
  O  O384  1  0.86879534  0.61886297  0.36801103  1
  O  O385  1  0.86759926  0.62871450  0.86854373  1
  O  O386  1  0.12822264  0.38265199  0.13108217  1
  O  O387  1  0.12937856  0.37981821  0.63070873  1
  O  O388  1  0.12671715  0.88309143  0.13071853  1
  O  O389  1  0.12818683  0.87853891  0.62959644  1
  O  O390  1  0.63073155  0.38034235  0.12984441  1
  O  O391  1  0.62945372  0.38082474  0.63074412  1
  O  O392  1  0.63654199  0.87012983  0.13247697  1
  O  O393  1  0.62202321  0.88738157  0.62300300  1
  O  O394  1  0.12221430  0.26310440  0.25011298  1
  O  O395  1  0.11845503  0.25605366  0.75491396  1
  O  O396  1  0.11519410  0.75506843  0.24826357  1
  O  O397  1  0.12336474  0.75552598  0.75628333  1
  O  O398  1  0.61534562  0.25566444  0.25116153  1
  O  O399  1  0.61989884  0.25592977  0.75549307  1
  O  O400  1  0.61580903  0.75545058  0.25539362  1
  O  O401  1  0.61496528  0.74285564  0.76019854  1
  O  O402  1  0.38371723  0.25025174  0.24460049  1
  O  O403  1  0.38290778  0.24959210  0.74389791  1
  O  O404  1  0.38939724  0.75180256  0.24934906  1
  O  O405  1  0.38467720  0.74459789  0.74514390  1
  O  O406  1  0.87545162  0.25167810  0.23483818  1
  O  O407  1  0.88010478  0.24285142  0.74526458  1
  O  O408  1  0.88006972  0.74566976  0.24250541  1
  O  O409  1  0.87609584  0.74048788  0.74059448  1
  O  O410  1  0.37958644  0.49596249  0.49505767  1
  O  O411  1  0.38223767  0.49426374  1.00083104  1
  O  O412  1  0.38829962  0.99731174  0.50123709  1
  O  O413  1  0.37877254  0.98805874  0.99594668  1
  O  O414  1  0.88036799  0.49549881  0.49397710  1
  O  O415  1  0.88399449  0.49590118  1.00099726  1
  O  O416  1  0.87675226  0.98907642  0.49140132  1
  O  O417  1  0.88121653  0.98964221  0.99663963  1
  O  O418  1  0.11906885  0.00510578  0.00543801  1
  O  O419  1  0.12139425  0.00601026  0.50659877  1
  O  O420  1  0.11849000  0.50594605  0.00590183  1
  O  O421  1  0.11948352  0.50422208  0.50605256  1
  O  O422  1  0.62501982  0.01440151  -0.00635898  1
  O  O423  1  0.61626225  0.00103926  0.50792111  1
  O  O424  1  0.62017097  0.50941061  0.00577262  1
  O  O425  1  0.61947030  0.50641817  0.50539672  1
  O  O426  1  0.36969079  0.37134908  0.12103031  1
  O  O427  1  0.36904191  0.36956876  0.62057632  1
  O  O428  1  0.37479217  0.87165131  0.11277896  1
  O  O429  1  0.36840063  0.86731334  0.62308588  1
  O  O430  1  0.86992844  0.36823139  0.11876694  1
  O  O431  1  0.87016513  0.37086782  0.62093546  1
  O  O432  1  0.86752141  0.86901327  0.11853930  1
  O  O433  1  0.88387428  0.86402720  0.61246832  1
  O  O434  1  0.13358550  0.12522546  0.38026380  1
  O  O435  1  0.13096233  0.13014739  0.87940340  1
  O  O436  1  0.12714969  0.62732525  0.38376827  1
  O  O437  1  0.12736066  0.63104129  0.88636298  1
  O  O438  1  0.63938575  0.12413018  0.37598946  1
  O  O439  1  0.62536439  0.13331261  0.88459681  1
  O  O440  1  0.62997590  0.62987067  0.38057558  1
  O  O441  1  0.63096198  0.63135410  0.88141711  1
