# generated using pymatgen
data_V93Zn93O256
_symmetry_space_group_name_H-M   'P 1'
_cell_length_a   17.04833464
_cell_length_b   17.04755674
_cell_length_c   17.04659647
_cell_angle_alpha   90.01182849
_cell_angle_beta   90.00242106
_cell_angle_gamma   90.06000136
_symmetry_Int_Tables_number   1
_chemical_formula_structural   V93Zn93O256
_chemical_formula_sum   'V93 Zn93 O256'
_cell_volume   4954.29130467
_cell_formula_units_Z   1
loop_
 _symmetry_equiv_pos_site_id
 _symmetry_equiv_pos_as_xyz
  1  'x, y, z'
loop_
 _atom_site_type_symbol
 _atom_site_label
 _atom_site_symmetry_multiplicity
 _atom_site_fract_x
 _atom_site_fract_y
 _atom_site_fract_z
 _atom_site_occupancy
  V  V0  1  0.12562300  0.74964018  0.37422400  1
  V  V1  1  0.86814054  0.49813769  0.86682720  1
  V  V2  1  0.12496476  0.87475081  0.24896084  1
  V  V3  1  -0.00031294  0.37408948  0.87468329  1
  V  V4  1  0.74905947  0.74645607  -0.00413432  1
  V  V5  1  0.62464273  0.49997494  0.12719380  1
  V  V6  1  0.37420487  -0.00009216  0.87502214  1
  V  V7  1  0.62540506  0.74879422  0.37565267  1
  V  V8  1  0.87479841  0.50761436  0.37351386  1
  V  V9  1  0.74978527  0.37382908  0.12647720  1
  V  V10  1  0.62489955  0.25113503  0.37463761  1
  V  V11  1  0.12543264  0.49965903  0.62780404  1
  V  V12  1  0.62550115  0.12617241  0.50032612  1
  V  V13  1  0.49858781  0.49370735  0.50070931  1
  V  V14  1  0.75373648  0.50678615  0.25163439  1
  V  V15  1  0.12562227  0.25170497  0.37548722  1
  V  V16  1  -0.00116786  0.87089516  0.86952743  1
  V  V17  1  0.24963042  0.12477450  0.87523604  1
  V  V18  1  0.24863213  0.74891876  -0.00062044  1
  V  V19  1  0.25020429  0.00073341  0.75048265  1
  V  V20  1  0.62506687  0.00110050  0.12229250  1
  V  V21  1  0.87615346  0.25057349  0.62621614  1
  V  V22  1  0.37517620  0.12881189  0.24457196  1
  V  V23  1  0.25072721  0.62531307  0.37482044  1
  V  V24  1  0.12524480  0.62604391  0.50020309  1
  V  V25  1  0.12604764  0.12591522  0.49940019  1
  V  V26  1  0.87563038  0.00090004  0.37359126  1
  V  V27  1  0.00029189  0.50256025  0.50305299  1
  V  V28  1  0.12253162  0.87300354  0.74778938  1
  V  V29  1  0.49755356  0.25111190  0.24573910  1
  V  V30  1  0.74578882  0.24284698  0.00152309  1
  V  V31  1  0.75029454  0.87402158  0.12456730  1
  V  V32  1  0.62497115  0.24283513  0.87941050  1
  V  V33  1  0.12130843  0.74823119  0.86943757  1
  V  V34  1  0.87464110  -0.00061829  0.87419441  1
  V  V35  1  0.75073174  0.25066926  0.50048112  1
  V  V36  1  0.87448310  0.25077573  0.12491592  1
  V  V37  1  0.49968124  0.87591846  0.37434863  1
  V  V38  1  0.12522811  0.37557052  0.25060879  1
  V  V39  1  0.75030822  0.00075200  0.74927707  1
  V  V40  1  -0.00383824  0.74341021  0.24872298  1
  V  V41  1  0.62593433  0.00046402  0.62542647  1
  V  V42  1  -0.00001443  0.25001150  0.75106210  1
  V  V43  1  0.37577071  0.87573856  0.49882399  1
  V  V44  1  0.37496919  0.87534792  -0.00084813  1
  V  V45  1  -0.00338377  0.50016762  -0.00013032  1
  V  V46  1  0.74990132  0.37648498  0.62814332  1
  V  V47  1  0.49972304  0.75057738  0.24916075  1
  V  V48  1  0.37723736  0.25332793  0.62093566  1
  V  V49  1  0.37354190  0.74875106  0.12443611  1
  V  V50  1  0.87482406  0.87561098  0.49896566  1
  V  V51  1  0.25561324  0.37618789  0.62194951  1
  V  V52  1  0.00029852  0.87573080  0.37322694  1
  V  V53  1  0.00048228  0.37625343  0.37641815  1
  V  V54  1  0.49905514  0.37480093  0.87611422  1
  V  V55  1  0.62877865  0.50080825  0.62924177  1
  V  V56  1  0.75034423  0.12581601  0.37466419  1
  V  V57  1  0.75107228  0.87326429  0.62353631  1
  V  V58  1  0.12448691  0.24959877  0.87452784  1
  V  V59  1  0.25316541  0.37113808  0.12546711  1
  V  V60  1  0.37495895  0.62435285  0.25094276  1
  V  V61  1  0.25077413  0.24869322  0.00150018  1
  V  V62  1  0.25098667  0.12656194  0.37295572  1
  V  V63  1  0.62467251  0.87476604  0.24942115  1
  V  V64  1  0.87516415  0.12634074  0.24902275  1
  V  V65  1  0.37593976  0.49481647  0.37971016  1
  V  V66  1  0.49926165  0.62405641  0.12488849  1
  V  V67  1  0.62388086  0.37540545  0.25188770  1
  V  V68  1  0.87466694  0.63358959  0.74748341  1
  V  V69  1  0.00156391  0.00182923  0.49877471  1
  V  V70  1  0.25049997  0.00111858  0.24872121  1
  V  V71  1  0.50402748  0.00222824  -0.00132626  1
  V  V72  1  0.12218424  0.00081530  0.12136152  1
  V  V73  1  0.25337425  0.25313445  0.49967075  1
  V  V74  1  0.50041316  0.00060699  0.49860171  1
  V  V75  1  0.49967426  0.12626629  0.62438553  1
  V  V76  1  0.62755178  0.62480049  0.49961904  1
  V  V77  1  0.24937399  0.87401841  0.12455223  1
  V  V78  1  0.12590972  0.00108399  0.62366218  1
  V  V79  1  0.37513320  0.37254425  0.00227297  1
  V  V80  1  0.37736164  0.74882552  0.62703803  1
  V  V81  1  0.25109597  0.62195027  0.87351660  1
  V  V82  1  0.63013406  0.37806222  0.75285392  1
  V  V83  1  0.87516348  0.37608479  0.50127428  1
  V  V84  1  0.25082348  0.87646044  0.62294125  1
  V  V85  1  0.75027709  -0.00025446  0.24908613  1
  V  V86  1  0.87551357  0.74245677  0.12777742  1
  V  V87  1  0.12396411  0.50131641  0.12492543  1
  V  V88  1  -0.00107132  0.25061192  0.24908349  1
  V  V89  1  0.50332953  0.12594549  0.12201033  1
  V  V90  1  0.62495822  0.62350547  -0.00111936  1
  V  V91  1  0.87454822  0.12566921  0.75139590  1
  V  V92  1  0.87501865  0.87405640  -0.00157873  1
  Zn  Zn93  1  0.12257394  0.62668216  -0.00001544  1
  Zn  Zn94  1  0.88344399  0.75356262  0.62525207  1
  Zn  Zn95  1  0.49975268  0.24816165  0.75052102  1
  Zn  Zn96  1  0.12080418  0.12514398  -0.00010052  1
  Zn  Zn97  1  0.62102636  0.74946810  0.87052493  1
  Zn  Zn98  1  0.75451737  0.62935112  0.37235547  1
  Zn  Zn99  1  0.50160730  0.87250605  0.87145664  1
  Zn  Zn100  1  -0.00306611  0.62211444  0.12707442  1
  Zn  Zn101  1  0.50334874  0.74891930  0.75281882  1
  Zn  Zn102  1  0.37804407  0.62118840  0.74945386  1
  Zn  Zn103  1  0.01076673  0.64065058  0.63910266  1
  Zn  Zn104  1  0.75287178  0.74895856  0.49888267  1
  Zn  Zn105  1  0.25072422  0.75170324  0.49859947  1
  Zn  Zn106  1  0.25154987  0.49915078  0.25091539  1
  Zn  Zn107  1  -0.00209218  0.00201566  -0.00120188  1
  Zn  Zn108  1  0.49514618  0.37144979  0.37832874  1
  Zn  Zn109  1  0.62356056  0.87151697  0.75235634  1
  Zn  Zn110  1  0.12681658  0.37478807  0.75047700  1
  Zn  Zn111  1  0.74392219  0.61479716  0.86464775  1
  Zn  Zn112  1  0.74589957  0.12091601  0.87900012  1
  Zn  Zn113  1  0.49789216  0.49869747  0.00228859  1
  Zn  Zn114  1  0.37353669  0.49850310  0.87272784  1
  Zn  Zn115  1  0.00138835  0.12622837  0.62544960  1
  Zn  Zn116  1  0.50094461  0.62519122  0.62895138  1
  Zn  Zn117  1  -0.00085930  0.12549358  0.12264129  1
  Zn  Zn118  1  0.37610066  0.12540832  0.74939179  1
  Zn  Zn119  1  0.25313865  0.49780849  0.75070392  1
  Zn  Zn120  1  0.37566087  0.00077343  0.37355588  1
  Zn  Zn121  1  0.87200943  0.37397505  -0.00127045  1
  Zn  Zn122  1  0.18532470  0.18757932  0.18669013  1
  Zn  Zn123  1  0.18865646  0.18776498  0.68815128  1
  Zn  Zn124  1  0.18686641  0.68583302  0.18955216  1
  Zn  Zn125  1  0.19334506  0.68814720  0.68783068  1
  Zn  Zn126  1  0.68561520  0.18695058  0.18738207  1
  Zn  Zn127  1  0.68719771  0.18932726  0.69129637  1
  Zn  Zn128  1  0.68673864  0.68771475  0.18548015  1
  Zn  Zn129  1  0.69249603  0.68680640  0.68955787  1
  Zn  Zn130  1  0.31307664  0.31271102  0.31112773  1
  Zn  Zn131  1  0.31275458  0.31098601  0.80841963  1
  Zn  Zn132  1  0.31255980  0.81273769  0.31243027  1
  Zn  Zn133  1  0.31190771  0.81282181  0.81142920  1
  Zn  Zn134  1  0.81281644  0.31658216  0.31286989  1
  Zn  Zn135  1  0.81167734  0.31197306  0.81502883  1
  Zn  Zn136  1  0.81266069  0.81174725  0.31269688  1
  Zn  Zn137  1  0.80955283  0.81214559  0.81111400  1
  Zn  Zn138  1  0.18974264  0.43933795  0.44061199  1
  Zn  Zn139  1  0.18459329  0.43655159  0.93870980  1
  Zn  Zn140  1  0.18891977  0.93865770  0.43592039  1
  Zn  Zn141  1  0.18715062  0.93545124  0.93660205  1
  Zn  Zn142  1  0.68742357  0.43769204  0.43784361  1
  Zn  Zn143  1  0.68688627  0.43340236  0.94129655  1
  Zn  Zn144  1  0.68696861  0.93787967  0.43771483  1
  Zn  Zn145  1  0.68617631  0.93514815  0.93566928  1
  Zn  Zn146  1  0.31431152  0.06288503  0.06271762  1
  Zn  Zn147  1  0.31422687  0.06448079  0.56153598  1
  Zn  Zn148  1  0.31090792  0.55983791  0.05886640  1
  Zn  Zn149  1  0.31167565  0.56439520  0.56056043  1
  Zn  Zn150  1  0.81362007  0.06256181  0.06219511  1
  Zn  Zn151  1  0.81425538  0.06295027  0.56368685  1
  Zn  Zn152  1  0.81105902  0.56026885  0.06089708  1
  Zn  Zn153  1  0.81270355  0.56310207  0.56578411  1
  Zn  Zn154  1  0.43619323  0.43856481  0.18948805  1
  Zn  Zn155  1  0.43968851  0.43832238  0.69058691  1
  Zn  Zn156  1  0.43625708  0.93920893  0.18619663  1
  Zn  Zn157  1  0.43869545  0.93583271  0.68839611  1
  Zn  Zn158  1  0.93590457  0.43611261  0.18891317  1
  Zn  Zn159  1  0.93948783  0.43883431  0.68949807  1
  Zn  Zn160  1  0.93719511  0.93364731  0.18670915  1
  Zn  Zn161  1  0.93813626  0.93848140  0.68672643  1
  Zn  Zn162  1  0.06318499  0.06417308  0.31019989  1
  Zn  Zn163  1  0.06184274  0.06212061  0.81310539  1
  Zn  Zn164  1  0.06304281  0.56210901  0.31404630  1
  Zn  Zn165  1  0.05956365  0.56254457  0.81237434  1
  Zn  Zn166  1  0.56313396  0.06285980  0.31120020  1
  Zn  Zn167  1  0.56074922  0.06036876  0.80908592  1
  Zn  Zn168  1  0.56189721  0.56255605  0.31450948  1
  Zn  Zn169  1  0.55782167  0.56323548  0.81210091  1
  Zn  Zn170  1  0.43670848  0.18759196  0.43597711  1
  Zn  Zn171  1  0.43500912  0.18792134  0.93869736  1
  Zn  Zn172  1  0.43915324  0.68567880  0.44082673  1
  Zn  Zn173  1  0.43752173  0.68756676  0.93644072  1
  Zn  Zn174  1  0.93839264  0.18805453  0.43728539  1
  Zn  Zn175  1  0.93549044  0.18574634  0.93959456  1
  Zn  Zn176  1  0.94151119  0.68962337  0.44274404  1
  Zn  Zn177  1  0.93573570  0.68375073  0.93473724  1
  Zn  Zn178  1  0.06251032  0.31399532  0.06153936  1
  Zn  Zn179  1  0.06423358  0.31436151  0.56382681  1
  Zn  Zn180  1  0.06056274  0.81345818  0.05886465  1
  Zn  Zn181  1  0.06225586  0.81292052  0.56080236  1
  Zn  Zn182  1  0.56374434  0.31147888  0.06343985  1
  Zn  Zn183  1  0.56318775  0.31383882  0.56335516  1
  Zn  Zn184  1  0.56166168  0.81332480  0.06009181  1
  Zn  Zn185  1  0.56287776  0.81269334  0.56326416  1
  O  O186  1  0.12368307  0.11294308  0.12441809  1
  O  O187  1  0.12529257  0.11928724  0.61702847  1
  O  O188  1  0.12365458  0.61196140  0.12386003  1
  O  O189  1  0.12829437  0.61614468  0.62049425  1
  O  O190  1  0.61189260  0.11643538  0.13267685  1
  O  O191  1  0.62093091  0.12204563  0.61871998  1
  O  O192  1  0.61909371  0.61994363  0.11817865  1
  O  O193  1  0.62737291  0.61546694  0.61741857  1
  O  O194  1  0.37528846  0.39016097  0.36977771  1
  O  O195  1  0.38341642  0.37145149  0.88278760  1
  O  O196  1  0.38217255  0.87713869  0.37921661  1
  O  O197  1  0.37333434  0.88275617  0.88295574  1
  O  O198  1  0.88074312  0.38369169  0.38215801  1
  O  O199  1  0.88133954  0.38190944  0.87620605  1
  O  O200  1  0.88037564  0.88253792  0.37792330  1
  O  O201  1  0.88151988  0.87765510  0.87778339  1
  O  O202  1  0.25021339  0.00853729  0.36568463  1
  O  O203  1  0.25382909  0.00480398  0.87093756  1
  O  O204  1  0.25883489  0.50607413  0.37535676  1
  O  O205  1  0.24608667  0.51009910  0.87571885  1
  O  O206  1  0.75508572  0.00585019  0.36879657  1
  O  O207  1  0.75621296  0.00018475  0.86853962  1
  O  O208  1  0.75833204  0.49988941  0.36826211  1
  O  O209  1  0.76364071  0.49786176  0.88565211  1
  O  O210  1  0.23978581  0.48979883  0.12402703  1
  O  O211  1  0.24276390  0.49200702  0.62191472  1
  O  O212  1  0.24280286  0.99426309  0.12930532  1
  O  O213  1  0.24543913  0.99636363  0.62944529  1
  O  O214  1  0.74616059  0.49462649  0.13349366  1
  O  O215  1  0.73596163  0.49115916  0.61769416  1
  O  O216  1  0.74553982  0.99414100  0.12948869  1
  O  O217  1  0.74589384  0.99390492  0.62871744  1
  O  O218  1  0.00550199  0.36993532  0.25703926  1
  O  O219  1  0.00247268  0.36741355  0.75731450  1
  O  O220  1  0.00572583  0.86624062  0.25483618  1
  O  O221  1  0.00555737  0.87966730  0.76207645  1
  O  O222  1  0.50421536  0.36494181  0.24945419  1
  O  O223  1  0.50978685  0.37137602  0.76080420  1
  O  O224  1  0.50489611  0.87037356  0.25310663  1
  O  O225  1  0.50435254  0.87162130  0.75232578  1
  O  O226  1  0.49386028  0.13106763  0.24378284  1
  O  O227  1  0.49781157  0.12765261  0.73942192  1
  O  O228  1  0.49556513  0.63160467  0.24458427  1
  O  O229  1  0.49509106  0.62926236  0.74584313  1
  O  O230  1  0.99279706  0.13289907  0.24886271  1
  O  O231  1  0.99289051  0.13174722  0.74891895  1
  O  O232  1  1.00505648  0.63962226  0.24870586  1
  O  O233  1  0.98266244  0.61936985  0.75131455  1
  O  O234  1  0.36235093  0.26066940  -0.00248828  1
  O  O235  1  0.36891714  0.24547138  0.51068140  1
  O  O236  1  0.36833167  0.75495302  0.00696188  1
  O  O237  1  0.37410085  0.75768428  0.50681780  1
  O  O238  1  0.86484233  0.25235811  0.00675702  1
  O  O239  1  0.87037654  0.25597218  0.50496807  1
  O  O240  1  0.86755193  0.75335151  0.00668300  1
  O  O241  1  0.87212656  0.76077241  0.49928808  1
  O  O242  1  0.13113576  0.24562657  0.49408184  1
  O  O243  1  0.13546865  0.25088496  0.99397978  1
  O  O244  1  0.12641882  0.74465889  0.49022998  1
  O  O245  1  0.13048993  0.75012993  0.98928273  1
  O  O246  1  0.63115402  0.24560118  0.49517992  1
  O  O247  1  0.63368150  0.25568178  0.99113438  1
  O  O248  1  0.62545827  0.74034913  0.49491633  1
  O  O249  1  0.63389199  0.73926999  1.00500470  1
  O  O250  1  0.50751811  0.24001900  0.13632947  1
  O  O251  1  0.49237882  0.24605514  0.62301243  1
  O  O252  1  0.49342557  0.74474499  0.12955530  1
  O  O253  1  0.48787223  0.74948193  0.62331100  1
  O  O254  1  0.99396909  0.25168325  0.13215484  1
  O  O255  1  0.99371827  0.25044112  0.63130620  1
  O  O256  1  0.99269914  0.75022079  0.13117220  1
  O  O257  1  0.99689446  0.75159857  0.62475481  1
  O  O258  1  0.00561124  0.25695300  0.37015650  1
  O  O259  1  0.00393659  0.25478671  0.87134453  1
  O  O260  1  0.00439334  0.75575381  0.36681658  1
  O  O261  1  0.00968134  0.75900872  0.88166855  1
  O  O262  1  0.50582459  0.25020174  0.36482589  1
  O  O263  1  0.50720801  0.25869209  0.87825496  1
  O  O264  1  0.50534250  0.75551900  0.36856854  1
  O  O265  1  0.50223990  0.75389851  0.87467393  1
  O  O266  1  0.24515445  0.13162208  0.49256714  1
  O  O267  1  0.25059769  0.13548781  0.99683838  1
  O  O268  1  0.24221442  0.62787962  0.49169309  1
  O  O269  1  0.24571879  0.63049605  0.99184562  1
  O  O270  1  0.74575782  0.13078968  0.49433312  1
  O  O271  1  0.75137558  0.13808578  1.00014890  1
  O  O272  1  0.73832814  0.62499412  0.49819031  1
  O  O273  1  0.74014019  0.63180363  1.00289518  1
  O  O274  1  0.25537944  0.36800051  0.00572732  1
  O  O275  1  0.24548985  0.36784556  0.51252877  1
  O  O276  1  0.25511975  0.86875541  0.00568420  1
  O  O277  1  0.25715452  0.87611257  0.50461748  1
  O  O278  1  0.75055939  0.36370641  0.00963386  1
  O  O279  1  0.75503528  0.36888519  0.50606643  1
  O  O280  1  0.75416289  0.86475204  0.00599741  1
  O  O281  1  0.75651861  0.87790164  0.50763384  1
  O  O282  1  0.12519614  0.49370421  0.24120869  1
  O  O283  1  0.12699843  0.49934368  0.73793097  1
  O  O284  1  0.13013522  0.99489170  0.24146622  1
  O  O285  1  0.13023599  0.99402404  0.74386097  1
  O  O286  1  0.63208142  0.49492342  0.24691904  1
  O  O287  1  0.61871674  0.48959312  0.74064669  1
  O  O288  1  0.63094176  0.99395091  0.24404170  1
  O  O289  1  0.63324888  0.99988563  0.74154399  1
  O  O290  1  0.36907830  0.00995119  0.25059676  1
  O  O291  1  0.36722295  0.00093498  0.75667868  1
  O  O292  1  0.37473134  0.50765869  0.26008436  1
  O  O293  1  0.37108299  0.50184579  0.75528806  1
  O  O294  1  0.86976345  0.00450681  0.25399521  1
  O  O295  1  0.86993000  0.00567553  0.75471217  1
  O  O296  1  0.86568690  0.49320146  0.26146202  1
  O  O297  1  0.87750388  0.50389921  0.76170617  1
  O  O298  1  0.12098341  0.37158549  0.37099435  1
  O  O299  1  0.11804565  0.36797186  0.87343240  1
  O  O300  1  0.11991727  0.87061261  0.36845990  1
  O  O301  1  0.11823264  0.86787601  0.86934771  1
  O  O302  1  0.62321625  0.36831440  0.36892268  1
  O  O303  1  0.61859712  0.36810813  0.87050534  1
  O  O304  1  0.61968773  0.86980894  0.36904566  1
  O  O305  1  0.62183771  0.86964992  0.87240444  1
  O  O306  1  0.38582260  0.12047614  0.13700898  1
  O  O307  1  0.38131708  0.13461865  0.62487832  1
  O  O308  1  0.37868073  0.62851048  0.12908822  1
  O  O309  1  0.37445791  0.63731973  0.62333357  1
  O  O310  1  0.87516163  0.13193347  0.13301285  1
  O  O311  1  0.87728095  0.13292995  0.63150049  1
  O  O312  1  0.87547364  0.63880093  0.12039668  1
  O  O313  1  0.87661786  0.62430994  0.63824499  1
  O  O314  1  0.24100777  0.26205924  0.11569535  1
  O  O315  1  0.25715369  0.25642073  0.61988953  1
  O  O316  1  0.25353508  0.75413286  0.12068911  1
  O  O317  1  0.25765990  0.75889110  0.62099892  1
  O  O318  1  0.75246260  0.25368322  0.12044398  1
  O  O319  1  0.75567242  0.25629574  0.61969362  1
  O  O320  1  0.75698940  0.75396681  0.11880599  1
  O  O321  1  0.75595412  0.76403078  0.62171601  1
  O  O322  1  0.24531659  0.24678344  0.37910477  1
  O  O323  1  0.24510770  0.24593094  0.88254690  1
  O  O324  1  0.24301810  0.74399694  0.37393571  1
  O  O325  1  0.24182725  0.74317410  0.88024265  1
  O  O326  1  0.74578763  0.24546856  0.38005051  1
  O  O327  1  0.74179509  0.24964522  0.88479000  1
  O  O328  1  0.74213331  0.74757472  0.37582425  1
  O  O329  1  0.75023983  0.74658332  0.89013615  1
  O  O330  1  0.00272027  0.11990040  0.00498343  1
  O  O331  1  0.00784775  0.11955253  0.49937115  1
  O  O332  1  0.00174770  0.61222140  0.00184624  1
  O  O333  1  0.00902003  0.61749436  0.50249815  1
  O  O334  1  0.49016513  0.11568240  0.01238863  1
  O  O335  1  0.50675373  0.12091494  0.50353119  1
  O  O336  1  0.50903050  0.62252670  0.00662951  1
  O  O337  1  0.51285510  0.61515131  0.50265747  1
  O  O338  1  0.50695298  0.38888257  0.49700624  1
  O  O339  1  0.49097887  0.37227205  0.99585229  1
  O  O340  1  0.49634806  0.88165606  0.49350177  1
  O  O341  1  0.49209489  0.88717651  1.00293793  1
  O  O342  1  0.99519534  0.38132052  0.49513729  1
  O  O343  1  0.99740931  0.38451989  0.99427972  1
  O  O344  1  0.99565371  0.88337671  0.49107829  1
  O  O345  1  0.99321900  0.87735832  0.98814797  1
  O  O346  1  0.49274377  0.49894582  0.38236287  1
  O  O347  1  0.50105409  0.48404403  0.88053142  1
  O  O348  1  0.50085080  0.99404005  0.38019128  1
  O  O349  1  0.49379202  1.00277499  0.88578369  1
  O  O350  1  0.99334489  0.49524488  0.38027463  1
  O  O351  1  0.99320645  0.49390066  0.88343547  1
  O  O352  1  0.99559518  0.99576571  0.37750707  1
  O  O353  1  0.99392454  0.98890978  0.87623210  1
  O  O354  1  0.01104182  -0.00204463  0.12476435  1
  O  O355  1  0.00800376  0.00176372  0.61674789  1
  O  O356  1  0.00581108  0.49885028  0.11896568  1
  O  O357  1  0.01238096  0.49802852  0.61961961  1
  O  O358  1  0.50432244  0.00667182  0.11841342  1
  O  O359  1  0.50584280  0.00606976  0.61752464  1
  O  O360  1  0.50637464  0.50610006  0.12540645  1
  O  O361  1  0.51121594  0.49901583  0.61712518  1
  O  O362  1  0.24451041  0.37525832  0.24057782  1
  O  O363  1  0.24653602  0.37537649  0.73668256  1
  O  O364  1  0.24464610  0.88015041  0.24398438  1
  O  O365  1  0.24273883  0.88205158  0.74353155  1
  O  O366  1  0.74346077  0.38370140  0.24598802  1
  O  O367  1  0.73747407  0.36956780  0.74517477  1
  O  O368  1  0.74459979  0.88058175  0.24432564  1
  O  O369  1  0.75229554  0.88278516  0.73834510  1
  O  O370  1  0.25792741  0.12361553  0.25190186  1
  O  O371  1  0.25077189  0.11788953  0.75732644  1
  O  O372  1  0.25685318  0.62212889  0.25643336  1
  O  O373  1  0.25272970  0.62312897  0.76285291  1
  O  O374  1  0.75480987  0.11961791  0.25541954  1
  O  O375  1  0.75702898  0.11869935  0.75148797  1
  O  O376  1  0.74415011  0.61027118  0.25100617  1
  O  O377  1  0.76595885  0.62201974  0.75084684  1
  O  O378  1  0.36943631  0.12403538  0.36280047  1
  O  O379  1  0.36737908  0.11870048  0.87399841  1
  O  O380  1  0.37108817  0.61876855  0.37014716  1
  O  O381  1  0.36174650  0.62248143  0.87791272  1
  O  O382  1  0.86943940  0.12070115  0.36924738  1
  O  O383  1  0.87213212  0.11746244  0.86856042  1
  O  O384  1  0.87511856  0.61079629  0.38316500  1
  O  O385  1  0.87189171  0.61646894  0.86562737  1
  O  O386  1  0.13176874  0.38335550  0.12989007  1
  O  O387  1  0.13456725  0.38378977  0.62581244  1
  O  O388  1  0.13000567  0.88100638  0.12927793  1
  O  O389  1  0.13123677  0.88197111  0.62784189  1
  O  O390  1  0.62980249  0.38040300  0.13230246  1
  O  O391  1  0.62908423  0.38039247  0.63405177  1
  O  O392  1  0.63061060  0.87983587  0.13037602  1
  O  O393  1  0.63685052  0.88285620  0.62142698  1
  O  O394  1  0.11980272  0.25595846  0.25615954  1
  O  O395  1  0.11826090  0.24987970  0.75709743  1
  O  O396  1  0.11705655  0.75601542  0.25354355  1
  O  O397  1  0.13200709  0.75670421  0.76239836  1
  O  O398  1  0.61720086  0.25438821  0.25552630  1
  O  O399  1  0.62260068  0.26055143  0.75962280  1
  O  O400  1  0.61907133  0.75541762  0.25338820  1
  O  O401  1  0.62548850  0.75156513  0.75204231  1
  O  O402  1  0.38600823  0.24131688  0.25410940  1
  O  O403  1  0.37785162  0.24665087  0.73628479  1
  O  O404  1  0.38028220  0.74481836  0.24367056  1
  O  O405  1  0.37265846  0.75039689  0.73606298  1
  O  O406  1  0.87884360  0.24637708  0.24602624  1
  O  O407  1  0.87950083  0.24572982  0.74574235  1
  O  O408  1  0.88478210  0.75766875  0.23978687  1
  O  O409  1  0.87343506  0.73695768  0.75174624  1
  O  O410  1  0.38699822  0.50901231  0.49076826  1
  O  O411  1  0.37544521  0.48515187  0.99542457  1
  O  O412  1  0.38257387  0.99502744  0.49691348  1
  O  O413  1  0.38198051  0.99472179  0.99611572  1
  O  O414  1  0.87944872  0.49433125  0.49461365  1
  O  O415  1  0.88395736  0.49831615  0.99423095  1
  O  O416  1  0.88126409  0.99716444  0.49222334  1
  O  O417  1  0.87284838  0.99103625  0.99313690  1
  O  O418  1  0.12563891  -0.00101484  0.01168387  1
  O  O419  1  0.12110513  0.00625287  0.50316092  1
  O  O420  1  0.11423718  0.49840164  0.00989398  1
  O  O421  1  0.12049092  0.50558425  0.50803391  1
  O  O422  1  0.61246899  -0.00469958  0.00641990  1
  O  O423  1  0.62066328  0.00761571  0.50468897  1
  O  O424  1  0.62544949  0.50796564  0.00902580  1
  O  O425  1  0.61907868  0.50608734  0.50621756  1
  O  O426  1  0.36271439  0.38121754  0.11744129  1
  O  O427  1  0.36717328  0.36590225  0.62875511  1
  O  O428  1  0.36842264  0.86887846  0.12060304  1
  O  O429  1  0.36971179  0.86970494  0.61769873  1
  O  O430  1  0.86688301  0.36782916  0.12549323  1
  O  O431  1  0.86990990  0.37155374  0.62057300  1
  O  O432  1  0.86930669  0.86563004  0.11865343  1
  O  O433  1  0.86624346  0.87959112  0.61731059  1
  O  O434  1  0.13133487  0.13245015  0.37819539  1
  O  O435  1  0.13212668  0.13049017  0.87831976  1
  O  O436  1  0.13081453  0.62949135  0.37922027  1
  O  O437  1  0.13037115  0.63332070  0.87536930  1
  O  O438  1  0.63126221  0.13081288  0.37971297  1
  O  O439  1  0.62477627  0.13964628  0.86827643  1
  O  O440  1  0.62619034  0.63023664  0.38388369  1
  O  O441  1  0.62703009  0.62222206  0.88815469  1
