# generated using pymatgen
data_V93Zn93O256
_symmetry_space_group_name_H-M   'P 1'
_cell_length_a   17.05204339
_cell_length_b   17.05530202
_cell_length_c   17.05402805
_cell_angle_alpha   89.99858515
_cell_angle_beta   90.03773088
_cell_angle_gamma   90.02171509
_symmetry_Int_Tables_number   1
_chemical_formula_structural   V93Zn93O256
_chemical_formula_sum   'V93 Zn93 O256'
_cell_volume   4959.78317478
_cell_formula_units_Z   1
loop_
 _symmetry_equiv_pos_site_id
 _symmetry_equiv_pos_as_xyz
  1  'x, y, z'
loop_
 _atom_site_type_symbol
 _atom_site_label
 _atom_site_symmetry_multiplicity
 _atom_site_fract_x
 _atom_site_fract_y
 _atom_site_fract_z
 _atom_site_occupancy
  V  V0  1  0.00113001  0.87482161  0.87581108  1
  V  V1  1  0.87097503  0.24850520  0.12226914  1
  V  V2  1  0.23828810  0.88069189  0.13003987  1
  V  V3  1  0.49959203  0.87607837  0.37537099  1
  V  V4  1  0.75170443  0.75077188  0.49965813  1
  V  V5  1  0.25138922  0.75094468  0.50125620  1
  V  V6  1  0.24871110  0.50006434  0.24851620  1
  V  V7  1  0.87543800  0.25020478  0.62562817  1
  V  V8  1  0.00258173  -0.00370230  0.50095171  1
  V  V9  1  0.24821045  0.87805499  0.62554217  1
  V  V10  1  0.37406915  0.62480517  0.25010237  1
  V  V11  1  0.62521870  -0.00031253  0.62606504  1
  V  V12  1  0.12429795  0.37587241  0.24903721  1
  V  V13  1  0.62432553  0.37496407  0.74966286  1
  V  V14  1  0.74899926  0.87367771  0.12468868  1
  V  V15  1  0.49996870  0.12455319  0.62554761  1
  V  V16  1  0.12521361  0.12214750  0.50409664  1
  V  V17  1  0.00032680  0.50000136  0.49989992  1
  V  V18  1  0.74962889  0.62528093  0.87463114  1
  V  V19  1  0.49975609  0.25030944  0.24963243  1
  V  V20  1  0.24965537  0.24884515  0.50049982  1
  V  V21  1  0.87528881  0.37475177  0.49982649  1
  V  V22  1  0.62415923  0.62428868  -0.00050244  1
  V  V23  1  0.87408063  0.62336875  0.24860704  1
  V  V24  1  0.00529917  0.50256582  0.00008736  1
  V  V25  1  0.37162800  0.36764089  0.00004714  1
  V  V26  1  0.12391013  0.25200428  0.37629166  1
  V  V27  1  0.63247244  0.12952465  0.00019607  1
  V  V28  1  0.12529129  0.87668883  0.74964848  1
  V  V29  1  0.37408263  0.12539258  0.75114323  1
  V  V30  1  -0.00034239  0.37351060  0.87546409  1
  V  V31  1  0.49886175  0.62532481  0.12473583  1
  V  V32  1  0.00055974  0.62497324  0.62520597  1
  V  V33  1  0.49898060  0.75037784  0.24976952  1
  V  V34  1  0.62309949  0.62339067  0.50183715  1
  V  V35  1  0.00101354  0.24882992  0.75059749  1
  V  V36  1  0.62361641  0.75050552  0.87448649  1
  V  V37  1  0.37479829  0.25043932  0.62496590  1
  V  V38  1  0.87641684  0.00024941  0.87677420  1
  V  V39  1  0.87468131  0.12582030  0.25107847  1
  V  V40  1  0.87468193  0.49969566  0.87501694  1
  V  V41  1  0.24847566  0.36772437  0.12122359  1
  V  V42  1  0.37303148  0.75117312  0.12491917  1
  V  V43  1  0.12561242  0.37383909  0.75068366  1
  V  V44  1  0.62398198  0.37415575  0.24925861  1
  V  V45  1  0.74946272  0.37257061  0.12174448  1
  V  V46  1  0.13161393  0.24884969  0.88226364  1
  V  V47  1  0.87077748  0.36915242  -0.00095495  1
  V  V48  1  0.75039546  0.12506585  0.37601030  1
  V  V49  1  0.37483836  0.49938142  0.87643601  1
  V  V50  1  0.87824517  -0.00406410  0.37665453  1
  V  V51  1  0.74861617  0.49995496  0.74916198  1
  V  V52  1  0.75032870  0.00220778  0.75174291  1
  V  V53  1  0.50061614  0.25095816  0.75037578  1
  V  V54  1  0.62575018  0.12550223  0.49996618  1
  V  V55  1  0.24875667  0.49978533  0.74889162  1
  V  V56  1  0.00413007  0.75273037  0.25575624  1
  V  V57  1  0.37538023  0.62804120  0.74931368  1
  V  V58  1  0.37179303  0.00046319  0.37425551  1
  V  V59  1  0.62522857  0.24963697  0.37451362  1
  V  V60  1  0.87885391  0.87417056  0.49907973  1
  V  V61  1  0.87427387  0.74911250  0.12392674  1
  V  V62  1  0.24687535  0.00193004  0.74937712  1
  V  V63  1  0.37455172  0.49963637  0.37537815  1
  V  V64  1  0.37364477  0.12553346  0.25040909  1
  V  V65  1  0.74992103  0.74983385  0.00029498  1
  V  V66  1  0.24208447  0.62544644  0.88078410  1
  V  V67  1  0.62525329  0.75096025  0.37508705  1
  V  V68  1  0.74964908  0.49994845  0.24864380  1
  V  V69  1  0.49991010  -0.00020392  -0.00042965  1
  V  V70  1  0.49932877  0.87478195  0.87569789  1
  V  V71  1  0.62444165  0.49926870  0.12449636  1
  V  V72  1  0.00215575  0.12099167  0.62703595  1
  V  V73  1  0.62495105  0.87564846  0.24954668  1
  V  V74  1  0.49829552  0.49933622  0.00013114  1
  V  V75  1  0.50061207  0.12479527  0.12530987  1
  V  V76  1  0.37560386  0.00006923  0.87535851  1
  V  V77  1  0.74980540  0.62441291  0.37305308  1
  V  V78  1  0.74976641  0.37489252  0.62488574  1
  V  V79  1  0.37526752  0.37528591  0.49883885  1
  V  V80  1  0.12535711  0.62491743  0.50122091  1
  V  V81  1  0.00683372  0.62385040  0.12069691  1
  V  V82  1  0.62558174  -0.00017791  0.12551958  1
  V  V83  1  0.87538021  0.62609936  0.74945430  1
  V  V84  1  0.00095296  0.11787375  0.12552320  1
  V  V85  1  0.49997337  -0.00044417  0.50011007  1
  V  V86  1  0.24262185  0.74660252  0.00179266  1
  V  V87  1  0.87609024  0.75000729  0.62469733  1
  V  V88  1  0.13134943  0.12050042  0.00543573  1
  V  V89  1  0.63148896  0.25008770  0.87812575  1
  V  V90  1  0.24836327  0.62701788  0.37526123  1
  V  V91  1  0.62403120  0.87536329  0.75090224  1
  V  V92  1  -0.00029373  0.37570774  0.37468540  1
  Zn  Zn93  1  0.24856473  0.37444558  0.62522797  1
  Zn  Zn94  1  0.24612644  0.12412524  0.37356911  1
  Zn  Zn95  1  0.50008179  0.74980396  0.74838679  1
  Zn  Zn96  1  0.75077902  0.87544955  0.62475055  1
  Zn  Zn97  1  0.12744116  0.50063823  0.12049803  1
  Zn  Zn98  1  0.75078599  -0.00126685  0.25119969  1
  Zn  Zn99  1  0.00182148  0.74948748  0.75052040  1
  Zn  Zn100  1  0.50000127  0.37463197  0.87580997  1
  Zn  Zn101  1  0.75684131  0.12989038  0.88042062  1
  Zn  Zn102  1  0.00433754  -0.00399613  0.00589473  1
  Zn  Zn103  1  0.23891170  0.00464495  0.24598152  1
  Zn  Zn104  1  -0.00042284  0.25173755  0.24911697  1
  Zn  Zn105  1  0.37218405  0.87569779  0.00158759  1
  Zn  Zn106  1  0.49951593  0.62554136  0.62564139  1
  Zn  Zn107  1  0.10774049  0.89710742  0.26324320  1
  Zn  Zn108  1  0.49932000  0.50092308  0.50112671  1
  Zn  Zn109  1  0.12095421  0.74641455  0.87902259  1
  Zn  Zn110  1  0.62173533  0.49928976  0.62475752  1
  Zn  Zn111  1  0.12411991  0.49805326  0.62531153  1
  Zn  Zn112  1  0.87598684  0.12560874  0.75176903  1
  Zn  Zn113  1  0.37827728  0.75153923  0.62602986  1
  Zn  Zn114  1  0.74978193  0.25066083  0.50078239  1
  Zn  Zn115  1  0.87442518  0.49835847  0.37389942  1
  Zn  Zn116  1  0.37206029  0.24627033  0.11978692  1
  Zn  Zn117  1  0.12122447  0.75788369  0.37877344  1
  Zn  Zn118  1  0.25385117  0.12816732  0.88303155  1
  Zn  Zn119  1  0.37531543  0.87558262  0.50239959  1
  Zn  Zn120  1  0.50090151  0.37669489  0.37431099  1
  Zn  Zn121  1  0.87607321  0.87471375  0.00056130  1
  Zn  Zn122  1  0.18571596  0.18811579  0.18884504  1
  Zn  Zn123  1  0.18738904  0.18870640  0.68851442  1
  Zn  Zn124  1  0.18647039  0.68873513  0.18656659  1
  Zn  Zn125  1  0.18700789  0.69010900  0.68814494  1
  Zn  Zn126  1  0.68944840  0.18676956  0.18875180  1
  Zn  Zn127  1  0.68805285  0.18774345  0.68902161  1
  Zn  Zn128  1  0.68614670  0.68780670  0.18695859  1
  Zn  Zn129  1  0.68878900  0.68906838  0.68628258  1
  Zn  Zn130  1  0.30968178  0.31166780  0.31253995  1
  Zn  Zn131  1  0.31303875  0.31305760  0.81332162  1
  Zn  Zn132  1  0.30966836  0.81407695  0.31266288  1
  Zn  Zn133  1  0.31160245  0.81206444  0.81606231  1
  Zn  Zn134  1  0.81194298  0.31176236  0.31130315  1
  Zn  Zn135  1  0.81264391  0.31274483  0.80997666  1
  Zn  Zn136  1  0.81468687  0.81212614  0.31140458  1
  Zn  Zn137  1  0.81229175  0.81335827  0.81157493  1
  Zn  Zn138  1  0.18780425  0.43846122  0.43732303  1
  Zn  Zn139  1  0.18882198  0.43557444  0.93644813  1
  Zn  Zn140  1  0.18480044  0.93636384  0.43551038  1
  Zn  Zn141  1  0.18899227  0.93699886  0.93929632  1
  Zn  Zn142  1  0.68877704  0.43723116  0.43645073  1
  Zn  Zn143  1  0.68702826  0.43727135  0.93609496  1
  Zn  Zn144  1  0.69041090  0.93750317  0.43854094  1
  Zn  Zn145  1  0.68751018  0.93843869  0.93845003  1
  Zn  Zn146  1  0.31322435  0.06049726  0.06370934  1
  Zn  Zn147  1  0.31215278  0.06195151  0.56366934  1
  Zn  Zn148  1  0.31159677  0.55964040  0.06239544  1
  Zn  Zn149  1  0.31224174  0.56256516  0.56410105  1
  Zn  Zn150  1  0.81350330  0.05919002  0.06356915  1
  Zn  Zn151  1  0.81349223  0.06332013  0.56351343  1
  Zn  Zn152  1  0.81526723  0.56066098  0.06170350  1
  Zn  Zn153  1  0.81180079  0.56121456  0.56219714  1
  Zn  Zn154  1  0.43530367  0.43636040  0.18600315  1
  Zn  Zn155  1  0.43941528  0.43975370  0.68460599  1
  Zn  Zn156  1  0.43435296  0.93678522  0.18610185  1
  Zn  Zn157  1  0.43565187  0.93686002  0.68896808  1
  Zn  Zn158  1  0.93776663  0.43762770  0.18636153  1
  Zn  Zn159  1  0.93767389  0.43788248  0.68699629  1
  Zn  Zn160  1  0.93288505  0.93617921  0.18935203  1
  Zn  Zn161  1  0.93709062  0.93691430  0.68707991  1
  Zn  Zn162  1  0.06019993  0.06704285  0.31532097  1
  Zn  Zn163  1  0.06500391  0.06270213  0.81625461  1
  Zn  Zn164  1  0.06347857  0.56394722  0.31292944  1
  Zn  Zn165  1  0.06123864  0.56080990  0.81178463  1
  Zn  Zn166  1  0.56194762  0.06242892  0.31234828  1
  Zn  Zn167  1  0.56315567  0.06418628  0.81455198  1
  Zn  Zn168  1  0.56108464  0.56122438  0.31445786  1
  Zn  Zn169  1  0.56090179  0.56097786  0.81293732  1
  Zn  Zn170  1  0.43889664  0.18789337  0.43634721  1
  Zn  Zn171  1  0.44355203  0.18651894  0.93543403  1
  Zn  Zn172  1  0.43647803  0.68826799  0.43689236  1
  Zn  Zn173  1  0.43295343  0.68882627  0.93715437  1
  Zn  Zn174  1  0.93783426  0.18810491  0.43844866  1
  Zn  Zn175  1  0.94369252  0.18515053  0.93947648  1
  Zn  Zn176  1  0.93563234  0.68388503  0.43747864  1
  Zn  Zn177  1  0.93663524  0.68795637  0.93779689  1
  Zn  Zn178  1  0.05985917  0.30953866  0.06306888  1
  Zn  Zn179  1  0.06261817  0.31227653  0.56389505  1
  Zn  Zn180  1  0.06112097  0.81143151  0.06429514  1
  Zn  Zn181  1  0.06482755  0.81266387  0.56496425  1
  Zn  Zn182  1  0.55906247  0.31130155  0.06211559  1
  Zn  Zn183  1  0.56214166  0.31216653  0.56232217  1
  Zn  Zn184  1  0.56185694  0.81290639  0.06144336  1
  Zn  Zn185  1  0.56136575  0.81107050  0.56493612  1
  O  O186  1  0.11524713  0.13527941  0.11278798  1
  O  O187  1  0.11411851  0.13274207  0.61473229  1
  O  O188  1  0.11057730  0.62156891  0.12787976  1
  O  O189  1  0.11875186  0.62389851  0.61992095  1
  O  O190  1  0.62096279  0.12106413  0.11903042  1
  O  O191  1  0.61913709  0.11978011  0.62066359  1
  O  O192  1  0.61880599  0.61947391  0.11911950  1
  O  O193  1  0.62713218  0.62475017  0.61224048  1
  O  O194  1  0.37392563  0.37999792  0.38350666  1
  O  O195  1  0.37500217  0.38109977  0.88378432  1
  O  O196  1  0.38059077  0.88543530  0.37440814  1
  O  O197  1  0.38106124  0.88236634  0.87720894  1
  O  O198  1  0.88079992  0.37548564  0.38081756  1
  O  O199  1  0.87914416  0.37852325  0.88140060  1
  O  O200  1  0.87072514  0.88762217  0.38131302  1
  O  O201  1  0.88454498  0.88218266  0.87427647  1
  O  O202  1  0.26326756  0.00244458  0.37440736  1
  O  O203  1  0.25697354  0.00157551  0.86599199  1
  O  O204  1  0.25504918  0.50688804  0.36866257  1
  O  O205  1  0.25383263  0.50694929  0.86855005  1
  O  O206  1  0.76087766  0.00694596  0.37582736  1
  O  O207  1  0.75886940  0.00008510  0.86789062  1
  O  O208  1  0.75045316  0.50633401  0.36546746  1
  O  O209  1  0.75546490  0.50604309  0.86993995  1
  O  O210  1  0.24746385  0.49079248  0.13056078  1
  O  O211  1  0.24779847  0.49911832  0.63901774  1
  O  O212  1  0.25492055  0.98319132  0.12553367  1
  O  O213  1  0.25590935  0.99099069  0.63791489  1
  O  O214  1  0.74352072  0.49431270  0.12883399  1
  O  O215  1  0.74816547  0.49319407  0.63236692  1
  O  O216  1  0.74360773  0.99210089  0.12756861  1
  O  O217  1  0.74478196  0.99984100  0.63495436  1
  O  O218  1  0.00612592  0.37489509  0.25549290  1
  O  O219  1  0.00502219  0.37015690  0.75677056  1
  O  O220  1  -0.00148277  0.85608864  0.23931576  1
  O  O221  1  0.00921349  0.87611418  0.75673389  1
  O  O222  1  0.50631393  0.36887904  0.24914949  1
  O  O223  1  0.50569597  0.36875999  0.75109351  1
  O  O224  1  0.50506876  0.86957848  0.25484290  1
  O  O225  1  0.50652751  0.87512213  0.75793069  1
  O  O226  1  0.49253006  0.12936095  0.24493956  1
  O  O227  1  0.49440975  0.12981618  0.74461969  1
  O  O228  1  0.49477430  0.63057695  0.24452534  1
  O  O229  1  0.48652829  0.62553504  0.75309742  1
  O  O230  1  0.99213141  0.12959860  0.24166641  1
  O  O231  1  1.00303280  0.12848530  0.74127328  1
  O  O232  1  0.99360895  0.63131344  0.24052039  1
  O  O233  1  0.99303232  0.62580564  0.74476188  1
  O  O234  1  0.38229304  0.26312385  -0.00122325  1
  O  O235  1  0.37026543  0.25563334  0.50393681  1
  O  O236  1  0.36335631  0.75141843  0.00717608  1
  O  O237  1  0.36258101  0.75217621  0.50114304  1
  O  O238  1  0.88123912  0.26057036  0.00652565  1
  O  O239  1  0.87416506  0.25699476  0.50772954  1
  O  O240  1  0.86696151  0.75109132  0.00587871  1
  O  O241  1  0.87172095  0.75460338  0.50375321  1
  O  O242  1  0.12964012  0.24346523  0.49627847  1
  O  O243  1  0.11705522  0.23961872  0.98986120  1
  O  O244  1  0.13572397  0.74431444  0.50138243  1
  O  O245  1  0.13840804  0.75218092  0.99956878  1
  O  O246  1  0.62530180  0.24292958  0.49316614  1
  O  O247  1  0.61816322  0.24096167  0.99078748  1
  O  O248  1  0.63120289  0.74377479  0.49370863  1
  O  O249  1  0.62983523  0.74296204  0.99493393  1
  O  O250  1  0.49717186  0.24202871  0.13241724  1
  O  O251  1  0.49455316  0.24342753  0.63065102  1
  O  O252  1  0.49488306  0.74456301  0.13000064  1
  O  O253  1  0.49574176  0.74459216  0.63026900  1
  O  O254  1  0.98671241  0.24067391  0.12574108  1
  O  O255  1  0.99495024  0.24192690  0.63086674  1
  O  O256  1  0.99403753  0.74005235  0.12907165  1
  O  O257  1  0.99373459  0.74299300  0.62666154  1
  O  O258  1  0.00637898  0.25774990  0.37477830  1
  O  O259  1  0.00809059  0.25483291  0.86965848  1
  O  O260  1  -0.00351379  0.74333904  0.35816315  1
  O  O261  1  0.00051621  0.76095324  0.87358231  1
  O  O262  1  0.50748273  0.25129783  0.36721000  1
  O  O263  1  0.51183642  0.25171110  0.86723514  1
  O  O264  1  0.50462995  0.75625182  0.36897521  1
  O  O265  1  0.50637196  0.75610622  0.87506418  1
  O  O266  1  0.24010546  0.12900426  0.50148079  1
  O  O267  1  0.23588652  0.12395579  1.00426250  1
  O  O268  1  0.24597403  0.63262641  0.49666982  1
  O  O269  1  0.25527252  0.63169295  0.99119351  1
  O  O270  1  0.74305347  0.12657682  0.49497368  1
  O  O271  1  0.73604528  0.11983918  1.00006341  1
  O  O272  1  0.74339446  0.63050830  0.49322630  1
  O  O273  1  0.74437833  0.62859810  0.99469919  1
  O  O274  1  0.25989324  0.38202688  0.00926424  1
  O  O275  1  0.25955830  0.36888509  0.50108984  1
  O  O276  1  0.25075738  0.86714638  0.01126226  1
  O  O277  1  0.24932616  0.86919027  0.51001288  1
  O  O278  1  0.76328267  0.38294611  0.00530679  1
  O  O279  1  0.75642411  0.37360650  0.50670424  1
  O  O280  1  0.74919224  0.86700225  0.00668340  1
  O  O281  1  0.75833294  0.86799929  0.50167020  1
  O  O282  1  0.13174341  0.49354730  0.24855406  1
  O  O283  1  0.13422478  0.49308957  0.75199714  1
  O  O284  1  0.12634987  1.00648657  0.25139818  1
  O  O285  1  0.13655205  0.99008496  0.75783876  1
  O  O286  1  0.62903869  0.49495909  0.24322194  1
  O  O287  1  0.63161642  0.49348519  0.75082247  1
  O  O288  1  0.62563470  0.99355181  0.24365982  1
  O  O289  1  0.63200768  0.99633166  0.74692567  1
  O  O290  1  0.37609010  0.01019513  0.25825707  1
  O  O291  1  0.36743463  0.00619236  0.75603344  1
  O  O292  1  0.36889521  0.50565494  0.25454901  1
  O  O293  1  0.36615842  0.50594841  0.75596481  1
  O  O294  1  0.87480462  0.00564679  0.26181744  1
  O  O295  1  0.86701670  0.00001467  0.75872917  1
  O  O296  1  0.86697922  0.50526908  0.24888060  1
  O  O297  1  0.86932011  0.50498791  0.75639357  1
  O  O298  1  0.11997037  0.37083676  0.36992727  1
  O  O299  1  0.11954515  0.36691818  0.87160921  1
  O  O300  1  0.12740344  0.86894300  0.37029442  1
  O  O301  1  0.11620625  0.87525053  0.86856061  1
  O  O302  1  0.62435194  0.36849937  0.36722770  1
  O  O303  1  0.62384305  0.36672233  0.87001001  1
  O  O304  1  0.61993788  0.87065148  0.37017244  1
  O  O305  1  0.61966851  0.87032056  0.87065993  1
  O  O306  1  0.38040480  0.12529467  0.13385009  1
  O  O307  1  0.38098544  0.13023590  0.63078946  1
  O  O308  1  0.37957609  0.62975423  0.13084119  1
  O  O309  1  0.37272350  0.62663881  0.63860241  1
  O  O310  1  0.87923354  0.13146457  0.12814676  1
  O  O311  1  0.88565535  0.13134228  0.62680390  1
  O  O312  1  0.88200405  0.62938060  0.12971474  1
  O  O313  1  0.88022405  0.63011468  0.62976350  1
  O  O314  1  0.25259279  0.26407429  0.12967288  1
  O  O315  1  0.25772804  0.25090785  0.61939951  1
  O  O316  1  0.25308299  0.75635695  0.11969327  1
  O  O317  1  0.25216303  0.75854976  0.61716206  1
  O  O318  1  0.76297365  0.25520134  0.12793013  1
  O  O319  1  0.75714342  0.25622925  0.62564441  1
  O  O320  1  0.75384202  0.75339126  0.11967477  1
  O  O321  1  0.75831937  0.75161111  0.61727058  1
  O  O322  1  0.24232921  0.24698114  0.38274081  1
  O  O323  1  0.23624660  0.24702177  0.86931738  1
  O  O324  1  0.25096662  0.74433170  0.38558655  1
  O  O325  1  0.24911681  0.74228847  0.88519817  1
  O  O326  1  0.74312287  0.24277923  0.37604651  1
  O  O327  1  0.73642494  0.24755944  0.86812172  1
  O  O328  1  0.74496657  0.74466324  0.37917248  1
  O  O329  1  0.74446655  0.74455357  0.88036169  1
  O  O330  1  0.00880676  0.12076791  0.00944329  1
  O  O331  1  0.00609317  0.11920093  0.50876214  1
  O  O332  1  -0.00872069  0.61393243  0.00816379  1
  O  O333  1  0.00512860  0.61999508  0.50503407  1
  O  O334  1  0.50937865  0.11915872  0.00614674  1
  O  O335  1  0.50541897  0.11951927  0.50613718  1
  O  O336  1  0.50387818  0.62013326  0.00520767  1
  O  O337  1  0.51257917  0.62655434  0.49804977  1
  O  O338  1  0.48608708  0.37433231  0.49775139  1
  O  O339  1  0.49019330  0.38260292  1.00066360  1
  O  O340  1  0.49839760  0.88134020  0.49347823  1
  O  O341  1  0.49887714  0.88236802  0.99382617  1
  O  O342  1  0.99561236  0.38041331  0.49522292  1
  O  O343  1  0.98946435  0.38163481  0.99552663  1
  O  O344  1  0.99662317  0.88869543  0.50938208  1
  O  O345  1  0.99989341  0.87773601  0.99023399  1
  O  O346  1  0.49026506  0.49721259  0.37844843  1
  O  O347  1  0.49278654  0.49805629  0.88277751  1
  O  O348  1  0.49221356  0.99582024  0.38006433  1
  O  O349  1  0.49538550  0.99517105  0.87978066  1
  O  O350  1  0.99840076  0.49406851  0.38167060  1
  O  O351  1  0.99366674  0.49438539  0.88097431  1
  O  O352  1  0.98712581  1.00983560  0.38915018  1
  O  O353  1  0.99145578  0.99089590  0.87336592  1
  O  O354  1  -0.01025256  0.01374467  0.12479071  1
  O  O355  1  -0.00659371  0.01214201  0.61605683  1
  O  O356  1  -0.00046174  0.50692457  0.11624179  1
  O  O357  1  0.00122877  0.50699774  0.61864506  1
  O  O358  1  0.50573055  0.00507521  0.12015266  1
  O  O359  1  0.50463972  0.00515022  0.62065234  1
  O  O360  1  0.50488124  0.50637425  0.12057224  1
  O  O361  1  0.50410861  0.50719272  0.61923580  1
  O  O362  1  0.24511260  0.38066594  0.24199872  1
  O  O363  1  0.24571446  0.38584642  0.75186426  1
  O  O364  1  0.24810475  0.87342075  0.23584940  1
  O  O365  1  0.24460838  0.88180094  0.74632076  1
  O  O366  1  0.74368192  0.37983928  0.24180174  1
  O  O367  1  0.74481139  0.38113423  0.74470717  1
  O  O368  1  0.74261486  0.87444195  0.24329714  1
  O  O369  1  0.74364523  0.88665884  0.74991922  1
  O  O370  1  0.26162334  0.12449018  0.25064348  1
  O  O371  1  0.25446197  0.11555352  0.74997149  1
  O  O372  1  0.25490668  0.62129326  0.25402654  1
  O  O373  1  0.25566703  0.61789888  0.75803468  1
  O  O374  1  0.75711337  0.12145527  0.25695884  1
  O  O375  1  0.75125160  0.11226366  0.75379085  1
  O  O376  1  0.75336668  0.62004320  0.25294990  1
  O  O377  1  0.75524943  0.61983830  0.75567954  1
  O  O378  1  0.37570795  0.11691894  0.36675719  1
  O  O379  1  0.37375281  0.12012062  0.86936768  1
  O  O380  1  0.36851453  0.62007402  0.36917297  1
  O  O381  1  0.36447047  0.61915825  0.86834078  1
  O  O382  1  0.87007440  0.11870100  0.37180868  1
  O  O383  1  0.87616295  0.11532600  0.87377706  1
  O  O384  1  0.86663565  0.62212575  0.36712906  1
  O  O385  1  0.86898100  0.61966817  0.86980686  1
  O  O386  1  0.13137994  0.37512778  0.12904297  1
  O  O387  1  0.12805716  0.37623778  0.63472095  1
  O  O388  1  0.13660793  0.87193868  0.12785068  1
  O  O389  1  0.13706314  0.87195207  0.63688714  1
  O  O390  1  0.62965929  0.37940624  0.12815905  1
  O  O391  1  0.63149257  0.37465740  0.63155679  1
  O  O392  1  0.62883464  0.87951038  0.13028044  1
  O  O393  1  0.62691733  0.88266187  0.63193161  1
  O  O394  1  0.12291711  0.25733706  0.25803299  1
  O  O395  1  0.11945961  0.25404807  0.75896822  1
  O  O396  1  0.10793546  0.74518212  0.25007692  1
  O  O397  1  0.12502798  0.76362366  0.75562075  1
  O  O398  1  0.61996577  0.25461964  0.25412463  1
  O  O399  1  0.61959649  0.25442916  0.75715338  1
  O  O400  1  0.61841376  0.75490876  0.25524855  1
  O  O401  1  0.62621922  0.75654569  0.75774851  1
  O  O402  1  0.38021760  0.23896331  0.25156556  1
  O  O403  1  0.37988369  0.24521636  0.74556538  1
  O  O404  1  0.38007334  0.74382739  0.24581604  1
  O  O405  1  0.37330021  0.73844203  0.75204683  1
  O  O406  1  0.87647490  0.24458929  0.23990750  1
  O  O407  1  0.88312218  0.24780074  0.74491528  1
  O  O408  1  0.88312770  0.74346847  0.24336639  1
  O  O409  1  0.87563708  0.74346255  0.74364915  1
  O  O410  1  0.37193595  0.49094465  0.49447699  1
  O  O411  1  0.37997985  0.49208295  0.99567058  1
  O  O412  1  0.38127647  1.00104779  0.49066294  1
  O  O413  1  0.38243463  1.00067642  0.99307675  1
  O  O414  1  0.88172367  0.49302307  0.49811955  1
  O  O415  1  0.88337886  0.49051058  0.99441482  1
  O  O416  1  0.88204851  0.99526127  0.49523364  1
  O  O417  1  0.87623271  0.99658852  0.98745997  1
  O  O418  1  0.12235649  0.01658176  -0.00595927  1
  O  O419  1  0.11551202  0.01225787  0.49446351  1
  O  O420  1  0.10849203  0.49229638  -0.00135855  1
  O  O421  1  0.11970682  0.50678258  0.50240149  1
  O  O422  1  0.61930982  0.00846251  0.00535119  1
  O  O423  1  0.61985592  0.00518184  0.50544372  1
  O  O424  1  0.61941881  0.50494781  0.00500941  1
  O  O425  1  0.62520147  0.51213507  0.49870798  1
  O  O426  1  0.36637505  0.37312898  0.11709599  1
  O  O427  1  0.37290546  0.36890815  0.61565963  1
  O  O428  1  0.36599737  0.86684043  0.12413354  1
  O  O429  1  0.36239353  0.87302768  0.62493607  1
  O  O430  1  0.87116954  0.36738631  0.11759768  1
  O  O431  1  0.87036949  0.36946818  0.62037568  1
  O  O432  1  0.86698169  0.86763311  0.12272075  1
  O  O433  1  0.87370241  0.86798443  0.61841432  1
  O  O434  1  0.12390201  0.13407305  0.38870834  1
  O  O435  1  0.12534890  0.13234935  0.88779010  1
  O  O436  1  0.13154573  0.63011957  0.38276267  1
  O  O437  1  0.13820933  0.62644940  0.86854517  1
  O  O438  1  0.62988268  0.12882289  0.37997676  1
  O  O439  1  0.62615865  0.13260085  0.88411885  1
  O  O440  1  0.63004944  0.63157236  0.38070983  1
  O  O441  1  0.63027953  0.62948307  0.88045264  1
