# generated using pymatgen
data_V93Zn93O256
_symmetry_space_group_name_H-M   'P 1'
_cell_length_a   17.05716866
_cell_length_b   17.05671917
_cell_length_c   17.05613966
_cell_angle_alpha   90.04741415
_cell_angle_beta   89.94120869
_cell_angle_gamma   89.99065291
_symmetry_Int_Tables_number   1
_chemical_formula_structural   V93Zn93O256
_chemical_formula_sum   'V93 Zn93 O256'
_cell_volume   4962.29756672
_cell_formula_units_Z   1
loop_
 _symmetry_equiv_pos_site_id
 _symmetry_equiv_pos_as_xyz
  1  'x, y, z'
loop_
 _atom_site_type_symbol
 _atom_site_label
 _atom_site_symmetry_multiplicity
 _atom_site_fract_x
 _atom_site_fract_y
 _atom_site_fract_z
 _atom_site_occupancy
  V  V0  1  0.11977915  0.50142251  0.12106253  1
  V  V1  1  0.87476095  0.25116499  0.62585562  1
  V  V2  1  0.24878400  0.37602835  0.62572163  1
  V  V3  1  0.12513556  0.25023794  0.87477134  1
  V  V4  1  0.24981903  0.87457965  0.12414068  1
  V  V5  1  0.87460944  0.37632816  0.50205878  1
  V  V6  1  0.25039658  0.62345947  0.87328878  1
  V  V7  1  0.12378263  0.12396276  0.50014665  1
  V  V8  1  0.87532371  -0.00027314  0.37667895  1
  V  V9  1  0.37383316  0.62583610  0.74893793  1
  V  V10  1  0.12474391  0.87354318  0.24896292  1
  V  V11  1  0.37579492  0.00012484  0.37342535  1
  V  V12  1  0.24989276  0.50011113  0.24993124  1
  V  V13  1  0.74954819  0.75639482  0.00766003  1
  V  V14  1  0.37616443  0.24899816  0.12319512  1
  V  V15  1  0.25070654  0.12459566  0.37344021  1
  V  V16  1  0.74804944  0.62743100  0.87352242  1
  V  V17  1  0.62270958  0.75406519  0.87537785  1
  V  V18  1  0.12533181  0.37487053  0.24989429  1
  V  V19  1  0.50117850  0.24877747  0.24969324  1
  V  V20  1  0.12534555  0.25046995  0.37392594  1
  V  V21  1  -0.00019118  0.37796779  0.87959390  1
  V  V22  1  0.63016195  0.87467677  0.24340185  1
  V  V23  1  0.37603876  0.87405169  -0.00263210  1
  V  V24  1  0.24938561  0.24990070  0.49930049  1
  V  V25  1  0.75202503  0.75089516  0.50133142  1
  V  V26  1  0.62615346  0.00062277  0.62492365  1
  V  V27  1  0.24848591  0.87695791  0.62404541  1
  V  V28  1  0.87743591  0.50179420  0.87836825  1
  V  V29  1  0.12090950  0.74958260  0.87134774  1
  V  V30  1  0.50099423  0.87447487  0.37445116  1
  V  V31  1  0.87988786  0.75014916  0.62971421  1
  V  V32  1  0.87542915  -0.00133840  0.87523894  1
  V  V33  1  0.87622016  0.24952986  0.12589437  1
  V  V34  1  0.74989812  -0.00003865  0.74971963  1
  V  V35  1  0.25079498  0.24953102  -0.00183471  1
  V  V36  1  0.50385665  0.12070388  0.12355772  1
  V  V37  1  0.25109403  0.12404591  0.87290607  1
  V  V38  1  0.87350688  0.87308901  0.01097803  1
  V  V39  1  -0.00104649  0.87220307  0.87042692  1
  V  V40  1  0.75139422  -0.00456505  0.24289531  1
  V  V41  1  0.50163499  -0.00038048  0.49911838  1
  V  V42  1  0.37473978  0.74830869  0.12487419  1
  V  V43  1  0.12486884  0.62535089  0.50059567  1
  V  V44  1  0.37465543  0.24887793  0.62576919  1
  V  V45  1  0.12425321  0.87458129  0.74900353  1
  V  V46  1  0.00088782  -0.00098182  0.00037566  1
  V  V47  1  0.75207288  0.50096742  0.25099243  1
  V  V48  1  -0.00092240  0.50232195  0.50255705  1
  V  V49  1  0.37500495  0.87517870  0.49888750  1
  V  V50  1  0.62300591  0.87689612  0.75192522  1
  V  V51  1  0.25085889  0.37384893  0.12394005  1
  V  V52  1  0.62360617  0.49813978  0.63390714  1
  V  V53  1  0.37998771  0.37677633  -0.00599845  1
  V  V54  1  0.75496272  0.62562951  0.37138570  1
  V  V55  1  0.74954599  0.25068443  0.50022711  1
  V  V56  1  0.37505376  0.62547525  0.24861905  1
  V  V57  1  0.12569541  -0.00050398  0.12329427  1
  V  V58  1  0.62666300  0.75010978  0.37583893  1
  V  V59  1  0.24947730  0.74968241  0.00025429  1
  V  V60  1  0.50162966  0.50199484  0.50050772  1
  V  V61  1  0.49916291  0.75620594  0.75279293  1
  V  V62  1  0.24925311  0.75021550  0.49829089  1
  V  V63  1  0.75117290  0.12486874  0.87605086  1
  V  V64  1  0.87588078  0.12476472  0.24994417  1
  V  V65  1  0.00086360  0.37490048  0.37679637  1
  V  V66  1  0.88093794  0.62904400  0.75060166  1
  V  V67  1  0.37793999  -0.00460481  0.87333617  1
  V  V68  1  0.74510785  0.37668674  0.63240289  1
  V  V69  1  0.87570130  0.37704734  0.00131549  1
  V  V70  1  0.74988801  0.24809629  0.00051336  1
  V  V71  1  0.00147205  0.12504323  0.12469841  1
  V  V72  1  0.00117864  0.12476658  0.62455716  1
  V  V73  1  0.50102923  -0.00548496  -0.00401002  1
  V  V74  1  0.87411561  0.50151843  0.37579471  1
  V  V75  1  0.37569461  0.50002615  0.37451054  1
  V  V76  1  0.24932852  0.62506686  0.37564111  1
  V  V77  1  -0.00638729  0.73870348  0.24165414  1
  V  V78  1  0.37563195  0.75201896  0.62449462  1
  V  V79  1  0.62619313  0.12508058  0.49921096  1
  V  V80  1  0.12447795  0.50084416  0.62552981  1
  V  V81  1  0.62539244  0.37393230  0.24979487  1
  V  V82  1  0.62202203  0.25436467  0.86905646  1
  V  V83  1  0.74864014  0.37242106  0.12708891  1
  V  V84  1  0.87649644  0.12396158  0.75042180  1
  V  V85  1  0.11926668  0.62121232  0.00157174  1
  V  V86  1  0.62529386  0.24908291  0.37617242  1
  V  V87  1  0.49969235  0.37547053  0.37425713  1
  V  V88  1  0.37581506  0.12336384  0.24963500  1
  V  V89  1  -0.00072021  0.87371969  0.37514128  1
  V  V90  1  0.49915733  0.12657257  0.62408650  1
  V  V91  1  0.49986084  0.74899050  0.24963736  1
  V  V92  1  -0.00021124  0.25080043  0.75157171  1
  Zn  Zn93  1  0.51172701  0.38776918  0.86453089  1
  Zn  Zn94  1  0.00075407  -0.00117742  0.50245336  1
  Zn  Zn95  1  0.62066878  0.62390590  0.00264921  1
  Zn  Zn96  1  0.63163132  -0.00584226  0.11898339  1
  Zn  Zn97  1  0.25177061  0.00084520  0.74702586  1
  Zn  Zn98  1  -0.04552263  0.56187101  0.06247680  1
  Zn  Zn99  1  0.12359527  0.37831720  0.75135069  1
  Zn  Zn100  1  0.12553031  0.12462961  0.00019611  1
  Zn  Zn101  1  0.37460599  0.37597858  0.49938696  1
  Zn  Zn102  1  0.50171311  0.62179039  0.12324199  1
  Zn  Zn103  1  0.62101784  0.49973370  0.12243417  1
  Zn  Zn104  1  0.12222903  0.74762432  0.37387390  1
  Zn  Zn105  1  0.37814275  0.49893985  0.87383464  1
  Zn  Zn106  1  0.50536818  0.25545255  0.74477328  1
  Zn  Zn107  1  0.62667666  0.12207275  -0.00145497  1
  Zn  Zn108  1  0.74542884  0.49694137  0.75426074  1
  Zn  Zn109  1  0.00056658  0.24953614  0.25023658  1
  Zn  Zn110  1  0.75207600  0.87533218  0.62460219  1
  Zn  Zn111  1  0.50302926  0.62681953  0.62490152  1
  Zn  Zn112  1  0.87711313  0.87524712  0.50415990  1
  Zn  Zn113  1  0.75095049  0.12490917  0.37488964  1
  Zn  Zn114  1  0.00232001  0.62832812  0.62941011  1
  Zn  Zn115  1  0.87361990  0.72710874  0.12809260  1
  Zn  Zn116  1  0.25155412  -0.00080974  0.24835362  1
  Zn  Zn117  1  0.12465229  0.00071401  0.62443439  1
  Zn  Zn118  1  0.37819219  0.12282230  0.74927217  1
  Zn  Zn119  1  0.50270857  0.50383630  -0.00104103  1
  Zn  Zn120  1  0.62548433  0.62623617  0.50214039  1
  Zn  Zn121  1  0.24941811  0.50008538  0.74898811  1
  Zn  Zn122  1  0.18803978  0.18697776  0.18723883  1
  Zn  Zn123  1  0.18619153  0.18871661  0.68908519  1
  Zn  Zn124  1  0.18486288  0.68637474  0.18694415  1
  Zn  Zn125  1  0.18703390  0.69047744  0.68557435  1
  Zn  Zn126  1  0.68924200  0.18415248  0.18907894  1
  Zn  Zn127  1  0.68936737  0.18624024  0.68738957  1
  Zn  Zn128  1  0.68499014  0.68492547  0.18789362  1
  Zn  Zn129  1  0.68885330  0.68505839  0.68655093  1
  Zn  Zn130  1  0.31367864  0.31255099  0.31126965  1
  Zn  Zn131  1  0.31446181  0.31183631  0.80935365  1
  Zn  Zn132  1  0.31186096  0.81158563  0.31260341  1
  Zn  Zn133  1  0.30909329  0.81313100  0.81237915  1
  Zn  Zn134  1  0.81325917  0.31272493  0.31378814  1
  Zn  Zn135  1  0.81211253  0.31132539  0.81405147  1
  Zn  Zn136  1  0.81487565  0.81176796  0.31013651  1
  Zn  Zn137  1  0.81038083  0.81376791  0.81313318  1
  Zn  Zn138  1  0.18705707  0.43828819  0.43944340  1
  Zn  Zn139  1  0.18939403  0.43722160  0.93823737  1
  Zn  Zn140  1  0.18685316  0.93961430  0.43638654  1
  Zn  Zn141  1  0.18916990  0.93817108  0.93717958  1
  Zn  Zn142  1  0.68575000  0.43728234  0.44047025  1
  Zn  Zn143  1  0.68876859  0.43735277  0.94063067  1
  Zn  Zn144  1  0.68961371  0.93606906  0.43439042  1
  Zn  Zn145  1  0.68873192  0.93613078  0.93650485  1
  Zn  Zn146  1  0.31357062  0.06146507  0.06058694  1
  Zn  Zn147  1  0.31085430  0.06195446  0.56066559  1
  Zn  Zn148  1  0.31062571  0.56085010  0.06230069  1
  Zn  Zn149  1  0.31338994  0.56334193  0.56247060  1
  Zn  Zn150  1  0.81612788  0.06251496  0.06202919  1
  Zn  Zn151  1  0.81298668  0.06347501  0.56234777  1
  Zn  Zn152  1  0.79145882  0.56385558  0.06228280  1
  Zn  Zn153  1  0.81034418  0.56458644  0.56368418  1
  Zn  Zn154  1  0.43838669  0.43774091  0.18469082  1
  Zn  Zn155  1  0.43836950  0.43550904  0.68865159  1
  Zn  Zn156  1  0.43932538  0.93512173  0.18576496  1
  Zn  Zn157  1  0.43794759  0.93862038  0.68662987  1
  Zn  Zn158  1  0.93561856  0.43451955  0.19261350  1
  Zn  Zn159  1  0.93510379  0.44046764  0.69119291  1
  Zn  Zn160  1  0.94051729  0.93701659  0.18984026  1
  Zn  Zn161  1  0.93819277  0.93701041  0.68667002  1
  Zn  Zn162  1  0.06281069  0.06193896  0.31155818  1
  Zn  Zn163  1  0.06377201  0.06110542  0.81230249  1
  Zn  Zn164  1  0.06337529  0.56000673  0.31403852  1
  Zn  Zn165  1  0.06203037  0.56099404  0.81199697  1
  Zn  Zn166  1  0.56524757  0.06082461  0.31192601  1
  Zn  Zn167  1  0.56206879  0.06898656  0.81153594  1
  Zn  Zn168  1  0.56556742  0.56420676  0.31239183  1
  Zn  Zn169  1  0.55845132  0.56682680  0.81418645  1
  Zn  Zn170  1  0.43750651  0.18753528  0.43887395  1
  Zn  Zn171  1  0.43821683  0.18415892  0.93844104  1
  Zn  Zn172  1  0.43743401  0.68674935  0.43602143  1
  Zn  Zn173  1  0.43874678  0.68726580  0.93752238  1
  Zn  Zn174  1  0.93845350  0.18793201  0.43820818  1
  Zn  Zn175  1  0.93814095  0.18799513  0.93931442  1
  Zn  Zn176  1  0.93762269  0.68836867  0.43757908  1
  Zn  Zn177  1  0.93433029  0.69250556  0.93556048  1
  Zn  Zn178  1  0.06334359  0.31215038  0.06134237  1
  Zn  Zn179  1  0.06295131  0.31239058  0.56283266  1
  Zn  Zn180  1  0.06074918  0.81015419  0.06139095  1
  Zn  Zn181  1  0.06231386  0.81117080  0.56186015  1
  Zn  Zn182  1  0.56375720  0.31145374  0.05852245  1
  Zn  Zn183  1  0.56235396  0.31551101  0.56183881  1
  Zn  Zn184  1  0.56008172  0.81043550  0.06262404  1
  Zn  Zn185  1  0.56401769  0.81365506  0.56443892  1
  O  O186  1  0.12024673  0.11799809  0.12327033  1
  O  O187  1  0.11902131  0.12600730  0.61886575  1
  O  O188  1  0.13085335  0.61441120  0.11369800  1
  O  O189  1  0.12361534  0.62061811  0.61946464  1
  O  O190  1  0.61360040  0.12103505  0.12439783  1
  O  O191  1  0.62021358  0.12019294  0.61869425  1
  O  O192  1  0.62189822  0.62077874  0.12227903  1
  O  O193  1  0.62352731  0.61487539  0.62177094  1
  O  O194  1  0.38128946  0.38177637  0.37571519  1
  O  O195  1  0.36945841  0.37576112  0.88609872  1
  O  O196  1  0.38084805  0.87960310  0.37952220  1
  O  O197  1  0.36689627  0.88673527  0.88124698  1
  O  O198  1  0.88019674  0.38030495  0.38311272  1
  O  O199  1  0.87920192  0.38285840  0.88004674  1
  O  O200  1  0.88424876  0.88345880  0.37382801  1
  O  O201  1  0.88390974  0.87828729  0.87930412  1
  O  O202  1  0.25799049  0.00639651  0.37205071  1
  O  O203  1  0.25936033  0.00853693  0.87611481  1
  O  O204  1  0.25522858  0.50466541  0.37017582  1
  O  O205  1  0.25106372  0.51375910  0.87187538  1
  O  O206  1  0.76130227  0.00045843  0.36639394  1
  O  O207  1  0.75633787  0.00481838  0.86938157  1
  O  O208  1  0.75321817  0.50627258  0.37158926  1
  O  O209  1  0.75861302  0.50949731  0.87537940  1
  O  O210  1  0.24091904  0.49334951  0.13076425  1
  O  O211  1  0.24469258  0.49126720  0.62318517  1
  O  O212  1  0.24514308  0.99258259  0.12526490  1
  O  O213  1  0.24680035  0.99223799  0.62625019  1
  O  O214  1  0.74593635  0.48966686  0.13678830  1
  O  O215  1  0.74105199  0.49278663  0.62522316  1
  O  O216  1  0.75095596  1.00343623  0.13834811  1
  O  O217  1  0.74384278  0.99983767  0.63160374  1
  O  O218  1  0.00770977  0.37340217  0.25936819  1
  O  O219  1  -0.00245446  0.36926774  0.76277206  1
  O  O220  1  0.00821786  0.86789076  0.25658921  1
  O  O221  1  0.00862090  0.87979469  0.76284076  1
  O  O222  1  0.50495503  0.36775825  0.25483687  1
  O  O223  1  0.48931144  0.36567466  0.75677995  1
  O  O224  1  0.50782368  0.86965573  0.25608792  1
  O  O225  1  0.50977957  0.86666077  0.74552666  1
  O  O226  1  0.49608717  0.12801148  0.24235408  1
  O  O227  1  0.49816018  0.13233423  0.73919950  1
  O  O228  1  0.49248481  0.63241369  0.25204207  1
  O  O229  1  0.48895511  0.63798288  0.74825005  1
  O  O230  1  0.99411245  0.12583606  0.24272722  1
  O  O231  1  0.99516734  0.13038183  0.74605598  1
  O  O232  1  1.00702036  0.64087538  0.25612605  1
  O  O233  1  0.98524318  0.62385762  0.75187507  1
  O  O234  1  0.37060320  0.25593943  0.00396428  1
  O  O235  1  0.36813393  0.25121101  0.50898884  1
  O  O236  1  0.36858392  0.75510942  0.00350464  1
  O  O237  1  0.37053655  0.75603371  0.50405883  1
  O  O238  1  0.86926071  0.25565479  0.00590704  1
  O  O239  1  0.86983006  0.25582981  0.50654144  1
  O  O240  1  0.86691326  0.75771332  0.00129075  1
  O  O241  1  0.86614661  0.75036669  0.50821264  1
  O  O242  1  0.13031531  0.24470066  0.49336631  1
  O  O243  1  0.13310702  0.24822472  0.99272854  1
  O  O244  1  0.13165260  0.74376168  0.49747263  1
  O  O245  1  0.12987897  0.74217117  0.99187433  1
  O  O246  1  0.62951383  0.24506250  0.49556015  1
  O  O247  1  0.63313610  0.24459301  0.99100510  1
  O  O248  1  0.63437240  0.75101975  0.49482633  1
  O  O249  1  0.63204616  0.75702312  0.98881346  1
  O  O250  1  0.49600908  0.23978731  0.12893409  1
  O  O251  1  0.49016195  0.24568281  0.61973215  1
  O  O252  1  0.49104898  0.74971448  0.13303457  1
  O  O253  1  0.49453101  0.74990471  0.63456756  1
  O  O254  1  0.99423789  0.24419089  0.12592643  1
  O  O255  1  0.99368678  0.24632549  0.63112045  1
  O  O256  1  1.00007022  0.75024125  0.13793643  1
  O  O257  1  0.98439906  0.74731990  0.61875573  1
  O  O258  1  0.00721892  0.25736136  0.37461337  1
  O  O259  1  0.00391383  0.25736420  0.87091946  1
  O  O260  1  -0.00086571  0.75951238  0.36463219  1
  O  O261  1  0.01079907  0.76054753  0.88035561  1
  O  O262  1  0.50467345  0.25475642  0.36991123  1
  O  O263  1  0.51753850  0.24322258  0.87701505  1
  O  O264  1  0.50557279  0.75542968  0.37001257  1
  O  O265  1  0.51060410  0.74668511  0.86346594  1
  O  O266  1  0.24428944  0.13075117  0.49269713  1
  O  O267  1  0.25095165  0.13069160  0.98919760  1
  O  O268  1  0.24561647  0.63053703  0.49521097  1
  O  O269  1  0.24202749  0.63005502  0.99033410  1
  O  O270  1  0.74392086  0.13252604  0.49898686  1
  O  O271  1  0.75167059  0.12961124  0.99400041  1
  O  O272  1  0.74823234  0.63509344  0.49116006  1
  O  O273  1  0.74572469  0.63753313  0.98546104  1
  O  O274  1  0.25739196  0.36836099  0.00499996  1
  O  O275  1  0.25035203  0.36916257  0.50942606  1
  O  O276  1  0.25456613  0.86854875  0.00475633  1
  O  O277  1  0.25531165  0.87020983  0.50313796  1
  O  O278  1  0.75778601  0.36833352  0.00733118  1
  O  O279  1  0.75543634  0.37026560  0.50931629  1
  O  O280  1  0.76184189  0.86656570  -0.00818240  1
  O  O281  1  0.75277697  0.86257570  0.49956115  1
  O  O282  1  0.13072552  0.49500473  0.24191166  1
  O  O283  1  0.12852453  0.49855426  0.74189302  1
  O  O284  1  0.12573079  0.98808107  0.24339449  1
  O  O285  1  0.12844381  0.98618231  0.75042094  1
  O  O286  1  0.63700446  0.49113744  0.25420033  1
  O  O287  1  0.62457305  0.50600969  0.73808148  1
  O  O288  1  0.63454118  0.99139799  0.25028852  1
  O  O289  1  0.62805535  0.99429076  0.74658058  1
  O  O290  1  0.37585989  0.00479152  0.25572757  1
  O  O291  1  0.37434737  0.00086866  0.76009299  1
  O  O292  1  0.36875667  0.50470270  0.25491998  1
  O  O293  1  0.37222944  0.51623743  0.74936095  1
  O  O294  1  0.86947732  0.00247135  0.25672324  1
  O  O295  1  0.87032653  0.00449530  0.75602720  1
  O  O296  1  0.85976126  0.49034027  0.25985478  1
  O  O297  1  0.86952755  0.50986843  0.76113064  1
  O  O298  1  0.12128938  0.37075254  0.37026983  1
  O  O299  1  0.11622899  0.37124776  0.87511154  1
  O  O300  1  0.11696732  0.87486151  0.36537459  1
  O  O301  1  0.11978165  0.86802277  0.87020208  1
  O  O302  1  0.61927203  0.36842625  0.37055947  1
  O  O303  1  0.62892043  0.35769023  0.87972722  1
  O  O304  1  0.61960819  0.86988462  0.36645591  1
  O  O305  1  0.63025934  0.86554995  0.86263100  1
  O  O306  1  0.38421695  0.12841365  0.12881611  1
  O  O307  1  0.37990881  0.13274150  0.62212510  1
  O  O308  1  0.37106517  0.63208669  0.13220062  1
  O  O309  1  0.37380486  0.63402937  0.63453952  1
  O  O310  1  0.88185484  0.13007478  0.13048701  1
  O  O311  1  0.88010770  0.13156917  0.63085834  1
  O  O312  1  0.87431745  0.61523384  0.11644646  1
  O  O313  1  0.87388376  0.63117793  0.63524533  1
  O  O314  1  0.25645602  0.25358552  0.11905057  1
  O  O315  1  0.25479563  0.25662484  0.61925642  1
  O  O316  1  0.25403305  0.75501314  0.11955922  1
  O  O317  1  0.25583462  0.75748629  0.61787175  1
  O  O318  1  0.75631820  0.25280427  0.12119647  1
  O  O319  1  0.75448830  0.25735063  0.62054504  1
  O  O320  1  0.75096611  0.74412687  0.11032638  1
  O  O321  1  0.75737765  0.74962074  0.61588820  1
  O  O322  1  0.24573360  0.24498980  0.37929320  1
  O  O323  1  0.24612855  0.24203731  0.87768356  1
  O  O324  1  0.24817627  0.74344521  0.38109423  1
  O  O325  1  0.24011647  0.74277839  0.87996851  1
  O  O326  1  0.74386732  0.24939744  0.38260927  1
  O  O327  1  0.74409136  0.24440899  0.88038097  1
  O  O328  1  0.74873801  0.74338006  0.38043338  1
  O  O329  1  0.74233743  0.74491507  0.88081277  1
  O  O330  1  0.00087340  0.11700929  0.00621283  1
  O  O331  1  0.00620614  0.12520225  0.50696007  1
  O  O332  1  0.01474896  0.62742465  -0.00948114  1
  O  O333  1  0.00658750  0.61883180  0.50060078  1
  O  O334  1  0.49997575  0.11390385  0.00984565  1
  O  O335  1  0.50649085  0.11852875  0.50407186  1
  O  O336  1  0.50265647  0.62557943  0.00377928  1
  O  O337  1  0.50110935  0.61447947  0.50114181  1
  O  O338  1  0.49840352  0.38606988  0.49297430  1
  O  O339  1  0.48813790  0.37210010  0.99416990  1
  O  O340  1  0.49545191  0.87988232  0.49457975  1
  O  O341  1  0.49278034  0.88703844  1.00546992  1
  O  O342  1  0.99463178  0.38158488  0.49637104  1
  O  O343  1  0.99271305  0.36913286  0.98678369  1
  O  O344  1  0.99967203  0.87567883  0.48662304  1
  O  O345  1  0.99369775  0.87842181  0.99016012  1
  O  O346  1  0.49631841  0.49592377  0.38133087  1
  O  O347  1  0.49463997  0.50115314  0.87965018  1
  O  O348  1  0.49590112  0.99442538  0.38008432  1
  O  O349  1  0.48960555  1.00981272  0.88513625  1
  O  O350  1  0.99430527  0.49441168  0.38153923  1
  O  O351  1  0.98880559  0.49055265  0.87082697  1
  O  O352  1  0.99097853  0.99078075  0.37262573  1
  O  O353  1  0.99545663  0.99154785  0.88050795  1
  O  O354  1  0.00581921  0.00460882  0.11972074  1
  O  O355  1  0.00212348  0.00843647  0.62329832  1
  O  O356  1  0.01457187  0.49112173  0.12802189  1
  O  O357  1  0.00542203  0.50173656  0.61994172  1
  O  O358  1  0.50008274  0.00698166  0.11575948  1
  O  O359  1  0.50595539  0.00535128  0.61803736  1
  O  O360  1  0.50280444  0.50229187  0.12090394  1
  O  O361  1  0.50613060  0.50016143  0.61676641  1
  O  O362  1  0.24541610  0.38027262  0.24403891  1
  O  O363  1  0.24881053  0.37696663  0.73691092  1
  O  O364  1  0.23986948  0.87382177  0.24431846  1
  O  O365  1  0.24051070  0.87569080  0.74331939  1
  O  O366  1  0.74427563  0.38013382  0.24723189  1
  O  O367  1  0.75687003  0.37678714  0.73613218  1
  O  O368  1  0.74090943  0.88292057  0.25695547  1
  O  O369  1  0.73990100  0.88202044  0.74904343  1
  O  O370  1  0.25795879  0.12316184  0.25533368  1
  O  O371  1  0.25139430  0.12313834  0.76179337  1
  O  O372  1  0.25385782  0.61980930  0.25561039  1
  O  O373  1  0.25771437  0.63032314  0.75768060  1
  O  O374  1  0.75701447  0.11451668  0.25389748  1
  O  O375  1  0.75771915  0.11880016  0.75503746  1
  O  O376  1  0.74530603  0.61448593  0.26148867  1
  O  O377  1  0.75769387  0.62503915  0.76219895  1
  O  O378  1  0.37114308  0.12022653  0.36966018  1
  O  O379  1  0.36666957  0.11669796  0.87395595  1
  O  O380  1  0.36864352  0.61948216  0.36857952  1
  O  O381  1  0.36387945  0.63091629  0.86566859  1
  O  O382  1  0.87681668  0.11500285  0.36962407  1
  O  O383  1  0.87187073  0.11869846  0.87001402  1
  O  O384  1  0.86258223  0.61813535  0.38115443  1
  O  O385  1  0.86836518  0.62142563  0.87081713  1
  O  O386  1  0.13150036  0.38106605  0.12815604  1
  O  O387  1  0.13373634  0.38030494  0.62565326  1
  O  O388  1  0.12927776  0.87853857  0.13076423  1
  O  O389  1  0.12811922  0.87298028  0.63453758  1
  O  O390  1  0.63194499  0.37059632  0.13295008  1
  O  O391  1  0.63512318  0.38440832  0.61909671  1
  O  O392  1  0.62004029  0.87511103  0.13989771  1
  O  O393  1  0.62766097  0.88194142  0.63555428  1
  O  O394  1  0.12512813  0.25722859  0.25594983  1
  O  O395  1  0.11740503  0.25391943  0.75721701  1
  O  O396  1  0.11573677  0.75963022  0.24993297  1
  O  O397  1  0.12961936  0.76026962  0.76155514  1
  O  O398  1  0.62006739  0.25300541  0.25636683  1
  O  O399  1  0.62846493  0.24473901  0.76539658  1
  O  O400  1  0.62201167  0.75747012  0.25640336  1
  O  O401  1  0.61936758  0.75732884  0.75415833  1
  O  O402  1  0.38184886  0.24377455  0.24373682  1
  O  O403  1  0.37146339  0.24469673  0.73322071  1
  O  O404  1  0.37973174  0.74546626  0.24524125  1
  O  O405  1  0.38146185  0.74777470  0.74647341  1
  O  O406  1  0.87620368  0.24363471  0.24432689  1
  O  O407  1  0.87974271  0.24323713  0.74572793  1
  O  O408  1  0.88882550  0.75409353  0.24468447  1
  O  O409  1  0.86574854  0.74155263  0.74126444  1
  O  O410  1  0.38492346  0.50017785  0.49410636  1
  O  O411  1  0.37243596  0.48746464  0.99873430  1
  O  O412  1  0.38174500  0.99454545  0.49327511  1
  O  O413  1  0.38211562  0.99447996  0.99248369  1
  O  O414  1  0.87905137  0.49556053  0.49628371  1
  O  O415  1  0.87294283  0.49640632  0.99048108  1
  O  O416  1  0.87636093  0.99769871  0.48887077  1
  O  O417  1  0.88012018  0.99114146  0.99401826  1
  O  O418  1  0.11850453  -0.00042595  0.00554234  1
  O  O419  1  0.12165364  0.00855298  0.50125371  1
  O  O420  1  0.13123656  0.50868840  0.00900388  1
  O  O421  1  0.11918934  0.50584973  0.50615824  1
  O  O422  1  0.61635023  -0.00069337  0.00037221  1
  O  O423  1  0.62139700  0.00376838  0.50393104  1
  O  O424  1  0.62460494  0.50385013  0.00276327  1
  O  O425  1  0.61479927  0.50172406  0.50743656  1
  O  O426  1  0.36977437  0.36760246  0.11731213  1
  O  O427  1  0.36480480  0.36715126  0.62136944  1
  O  O428  1  0.36891996  0.86850487  0.11891545  1
  O  O429  1  0.36994807  0.87128898  0.61819702  1
  O  O430  1  0.86968375  0.36945720  0.12117662  1
  O  O431  1  0.86766090  0.37109352  0.62044830  1
  O  O432  1  0.88275407  0.87463011  0.11121861  1
  O  O433  1  0.87208519  0.86589155  0.62495628  1
  O  O434  1  0.13046759  0.13027798  0.37824158  1
  O  O435  1  0.13421480  0.12958773  0.87676924  1
  O  O436  1  0.13258441  0.62473159  0.38244488  1
  O  O437  1  0.13121838  0.63123458  0.87868037  1
  O  O438  1  0.62617608  0.13102174  0.38162735  1
  O  O439  1  0.63450997  0.13272506  0.87747450  1
  O  O440  1  0.63642905  0.63239495  0.37774459  1
  O  O441  1  0.63384142  0.63854191  0.87050055  1
