# generated using pymatgen
data_V93Zn93O256
_symmetry_space_group_name_H-M   'P 1'
_cell_length_a   17.05227414
_cell_length_b   17.05344265
_cell_length_c   17.05784663
_cell_angle_alpha   90.02808622
_cell_angle_beta   90.05517328
_cell_angle_gamma   89.98136278
_symmetry_Int_Tables_number   1
_chemical_formula_structural   V93Zn93O256
_chemical_formula_sum   'V93 Zn93 O256'
_cell_volume   4960.41828473
_cell_formula_units_Z   1
loop_
 _symmetry_equiv_pos_site_id
 _symmetry_equiv_pos_as_xyz
  1  'x, y, z'
loop_
 _atom_site_type_symbol
 _atom_site_label
 _atom_site_symmetry_multiplicity
 _atom_site_fract_x
 _atom_site_fract_y
 _atom_site_fract_z
 _atom_site_occupancy
  V  V0  1  0.62569562  -0.00010158  0.12519370  1
  V  V1  1  0.00099606  0.62459010  0.12651982  1
  V  V2  1  0.36276654  0.25316658  0.12029687  1
  V  V3  1  0.00043184  0.24945606  0.75037763  1
  V  V4  1  0.37476047  0.00066292  0.87457100  1
  V  V5  1  0.12505629  0.00065933  0.62591417  1
  V  V6  1  0.37023884  0.25328317  0.62513634  1
  V  V7  1  0.37460392  0.50005194  0.37197277  1
  V  V8  1  0.74964785  0.37390841  0.12551093  1
  V  V9  1  0.62400178  0.25011547  0.87488862  1
  V  V10  1  0.75057708  0.62446285  0.87455498  1
  V  V11  1  0.12519470  0.87472787  0.75076921  1
  V  V12  1  0.74974475  0.25060091  0.50039454  1
  V  V13  1  0.24999835  0.74935958  -0.00238155  1
  V  V14  1  0.62477869  0.24897322  0.37527623  1
  V  V15  1  0.37192171  0.37594742  0.50048541  1
  V  V16  1  0.12502376  0.24967470  0.37583571  1
  V  V17  1  0.25134577  0.49703847  0.24676956  1
  V  V18  1  0.13057201  0.12816746  0.00041377  1
  V  V19  1  0.74957701  0.24965024  0.00024318  1
  V  V20  1  0.12679075  -0.00044028  0.12959728  1
  V  V21  1  0.49898224  0.00092454  0.49963073  1
  V  V22  1  0.49956111  0.00055279  -0.00051563  1
  V  V23  1  0.12590428  0.62528329  0.00047188  1
  V  V24  1  0.62394074  0.37641647  0.74928017  1
  V  V25  1  0.75057019  0.12454835  0.37569114  1
  V  V26  1  0.50046241  0.75163252  0.75032546  1
  V  V27  1  0.25095252  0.87988914  0.12888677  1
  V  V28  1  0.12509129  0.12509762  0.50121538  1
  V  V29  1  0.75008167  0.87467599  0.62551460  1
  V  V30  1  0.87512518  0.74938755  0.12567740  1
  V  V31  1  0.49873696  0.37393303  0.37457417  1
  V  V32  1  0.87432270  0.24933309  0.62544291  1
  V  V33  1  0.13065554  0.38572836  0.74348113  1
  V  V34  1  0.49779590  0.24903277  0.24878486  1
  V  V35  1  0.00020642  0.12501001  0.62542849  1
  V  V36  1  0.25060840  0.00073205  0.75053404  1
  V  V37  1  0.37562137  0.87676942  -0.00128893  1
  V  V38  1  0.87379425  0.49907669  0.87596648  1
  V  V39  1  0.37379387  0.75119275  0.61969125  1
  V  V40  1  0.12756246  0.87211034  0.25360457  1
  V  V41  1  0.12682112  0.37363096  0.24729177  1
  V  V42  1  0.75096662  0.62479715  0.37779136  1
  V  V43  1  -0.00054623  0.37477419  0.87504466  1
  V  V44  1  0.62434173  0.37401192  0.24954281  1
  V  V45  1  -0.00131474  0.74884988  0.74939840  1
  V  V46  1  0.87565050  0.37476453  -0.00000055  1
  V  V47  1  0.50170565  0.50216251  0.50067167  1
  V  V48  1  0.50024565  0.87555287  0.37497067  1
  V  V49  1  0.00093489  0.87493317  0.87560762  1
  V  V50  1  0.62465766  0.62388106  0.00111265  1
  V  V51  1  0.49929014  0.12659485  0.12563995  1
  V  V52  1  0.87770185  0.24702615  0.12729508  1
  V  V53  1  0.62545598  0.87474660  0.25086236  1
  V  V54  1  0.75143178  0.00020899  0.25096398  1
  V  V55  1  0.25007132  0.87367401  0.62411598  1
  V  V56  1  0.36921366  0.50109027  0.87139578  1
  V  V57  1  0.49767711  0.25111665  0.74934827  1
  V  V58  1  0.87560866  0.87344764  0.50127578  1
  V  V59  1  0.62477930  0.12500657  0.00011230  1
  V  V60  1  0.00150266  -0.00142524  0.00074492  1
  V  V61  1  0.62425860  0.49902997  0.12421579  1
  V  V62  1  0.62497367  0.74944131  0.37623186  1
  V  V63  1  0.87531765  -0.00133351  0.37470339  1
  V  V64  1  0.00553511  0.86956386  0.37759452  1
  V  V65  1  0.24931770  0.25304152  0.50241903  1
  V  V66  1  0.87576273  0.62393023  0.25079700  1
  V  V67  1  0.49851143  0.37533012  0.87471275  1
  V  V68  1  0.13155368  0.25018316  0.87848557  1
  V  V69  1  0.75031708  0.00110464  0.75061282  1
  V  V70  1  0.00360763  0.74891507  0.25266706  1
  V  V71  1  0.74971111  0.37508388  0.62544354  1
  V  V72  1  0.37280643  0.00134314  0.36772546  1
  V  V73  1  0.12891399  0.49490076  0.12328396  1
  V  V74  1  0.75071177  0.74972858  0.00082485  1
  V  V75  1  0.74918924  0.49979790  0.75014538  1
  V  V76  1  0.49992051  0.49904901  0.00004705  1
  V  V77  1  0.00579164  0.50044486  0.50450773  1
  V  V78  1  -0.00129716  0.37588101  0.37621017  1
  V  V79  1  0.36928138  0.62339275  0.74929106  1
  V  V80  1  0.00426858  0.61944321  0.62696351  1
  V  V81  1  0.36188233  0.37139756  0.00121918  1
  V  V82  1  0.37852248  0.74748802  0.12478172  1
  V  V83  1  0.25022303  0.12121810  0.36980998  1
  V  V84  1  0.62515017  0.75037304  0.87497921  1
  V  V85  1  0.87586764  0.00062197  0.87678617  1
  V  V86  1  0.75041601  0.49940159  0.25058181  1
  V  V87  1  0.24263699  0.63286160  0.37296303  1
  V  V88  1  0.62421143  0.00126794  0.62506512  1
  V  V89  1  0.49850740  0.12549828  0.62429562  1
  V  V90  1  0.75103999  0.12460037  0.87516216  1
  V  V91  1  0.75146776  0.87415083  0.12567123  1
  V  V92  1  0.37297514  0.12550013  0.74964604  1
  Zn  Zn93  1  0.87326289  0.74681270  0.62606969  1
  Zn  Zn94  1  0.87587844  0.12518925  0.75085167  1
  Zn  Zn95  1  0.12841377  0.62540027  0.50620112  1
  Zn  Zn96  1  0.12482284  0.74878091  0.87430300  1
  Zn  Zn97  1  0.50046099  0.74679102  0.24947267  1
  Zn  Zn98  1  0.50018977  0.62331450  0.12679512  1
  Zn  Zn99  1  0.00122790  0.12307667  0.12860311  1
  Zn  Zn100  1  0.00144259  -0.00090906  0.50088814  1
  Zn  Zn101  1  0.62537613  0.87544785  0.75178591  1
  Zn  Zn102  1  0.62410635  0.12628397  0.50040156  1
  Zn  Zn103  1  0.37301815  0.87562762  0.49735596  1
  Zn  Zn104  1  0.87397257  0.62415681  0.74938753  1
  Zn  Zn105  1  0.87549665  0.49969608  0.37626429  1
  Zn  Zn106  1  0.87688597  0.87425553  0.00138747  1
  Zn  Zn107  1  0.37732911  0.62420133  0.24798436  1
  Zn  Zn108  1  0.25238349  0.12850719  0.87782322  1
  Zn  Zn109  1  0.37022062  0.12480250  0.24532640  1
  Zn  Zn110  1  0.23877266  0.75760349  0.48857348  1
  Zn  Zn111  1  -0.00052626  0.49995960  0.00020207  1
  Zn  Zn112  1  0.74959002  0.74722831  0.50346054  1
  Zn  Zn113  1  0.24535112  0.40644485  0.62444979  1
  Zn  Zn114  1  0.50238526  0.87654646  0.87524322  1
  Zn  Zn115  1  0.00010604  0.24637951  0.25143947  1
  Zn  Zn116  1  0.87503422  0.37659863  0.50098667  1
  Zn  Zn117  1  0.87923405  0.12339792  0.25174711  1
  Zn  Zn118  1  0.62604598  0.62436098  0.50184181  1
  Zn  Zn119  1  0.62602655  0.50334391  0.62471592  1
  Zn  Zn120  1  0.24629159  0.62128966  0.87007532  1
  Zn  Zn121  1  0.50274549  0.62668781  0.62363901  1
  Zn  Zn122  1  0.18504057  0.18685339  0.18834403  1
  Zn  Zn123  1  0.18653792  0.19085420  0.68985112  1
  Zn  Zn124  1  0.18970684  0.68733877  0.18712321  1
  Zn  Zn125  1  0.18729148  0.68578331  0.68376113  1
  Zn  Zn126  1  0.68857152  0.18610232  0.18927406  1
  Zn  Zn127  1  0.68672339  0.18725524  0.68795952  1
  Zn  Zn128  1  0.68763199  0.68627532  0.18897839  1
  Zn  Zn129  1  0.68568784  0.68576586  0.68698274  1
  Zn  Zn130  1  0.31218209  0.31016807  0.31152962  1
  Zn  Zn131  1  0.31005926  0.31637466  0.81142684  1
  Zn  Zn132  1  0.31630587  0.81520563  0.30875582  1
  Zn  Zn133  1  0.31414263  0.81295141  0.81160621  1
  Zn  Zn134  1  0.81263894  0.31076829  0.31249545  1
  Zn  Zn135  1  0.81247018  0.31224995  0.81138083  1
  Zn  Zn136  1  0.81424101  0.81119128  0.31311813  1
  Zn  Zn137  1  0.81416033  0.81395856  0.81384427  1
  Zn  Zn138  1  0.18751005  0.44153818  0.43655924  1
  Zn  Zn139  1  0.18562554  0.43740970  0.93299985  1
  Zn  Zn140  1  0.18909370  0.93975685  0.43939917  1
  Zn  Zn141  1  0.18754011  0.93891062  0.93770695  1
  Zn  Zn142  1  0.68701541  0.43612820  0.43766596  1
  Zn  Zn143  1  0.68760982  0.43651632  0.93700352  1
  Zn  Zn144  1  0.68701348  0.93855604  0.43973879  1
  Zn  Zn145  1  0.68832155  0.93578268  0.93785876  1
  Zn  Zn146  1  0.31285843  0.06464134  0.06285247  1
  Zn  Zn147  1  0.31244799  0.06300737  0.55955200  1
  Zn  Zn148  1  0.31369146  0.56012111  0.06008535  1
  Zn  Zn149  1  0.31606641  0.56639226  0.55908170  1
  Zn  Zn150  1  0.81341795  0.06216500  0.06216703  1
  Zn  Zn151  1  0.81317914  0.06276775  0.56123410  1
  Zn  Zn152  1  0.81180019  0.56206529  0.06260092  1
  Zn  Zn153  1  0.81997437  0.55916596  0.56361212  1
  Zn  Zn154  1  0.43656602  0.43335554  0.18375602  1
  Zn  Zn155  1  0.43430054  0.43882200  0.68492793  1
  Zn  Zn156  1  0.43952776  0.93655021  0.18823144  1
  Zn  Zn157  1  0.43690367  0.93654041  0.68710907  1
  Zn  Zn158  1  0.93916192  0.43750098  0.18719726  1
  Zn  Zn159  1  0.93746178  0.43596623  0.68908751  1
  Zn  Zn160  1  0.93964419  0.93594253  0.18911690  1
  Zn  Zn161  1  0.93739807  0.93899795  0.68946512  1
  Zn  Zn162  1  0.06107326  0.05977279  0.31299009  1
  Zn  Zn163  1  0.06289481  0.06367618  0.81351106  1
  Zn  Zn164  1  0.06271620  0.55926362  0.31307263  1
  Zn  Zn165  1  0.05938920  0.56308404  0.81451916  1
  Zn  Zn166  1  0.56187638  0.06348317  0.31230297  1
  Zn  Zn167  1  0.56203220  0.06256445  0.81138400  1
  Zn  Zn168  1  0.56141997  0.56347262  0.31071330  1
  Zn  Zn169  1  0.55973394  0.56367638  0.81294443  1
  Zn  Zn170  1  0.43529908  0.18698126  0.43827720  1
  Zn  Zn171  1  0.43569054  0.18832818  0.93835486  1
  Zn  Zn172  1  0.43440099  0.68496168  0.43353397  1
  Zn  Zn173  1  0.43922392  0.68586676  0.93633905  1
  Zn  Zn174  1  0.93701672  0.18787083  0.43952966  1
  Zn  Zn175  1  0.94197159  0.18597199  0.93975879  1
  Zn  Zn176  1  0.93912946  0.68717088  0.44074670  1
  Zn  Zn177  1  0.93746194  0.68727360  0.93713760  1
  Zn  Zn178  1  0.06151955  0.31156018  0.06088493  1
  Zn  Zn179  1  0.06242238  0.31260250  0.56362966  1
  Zn  Zn180  1  0.06247165  0.81222027  0.06470850  1
  Zn  Zn181  1  0.06506438  0.80662126  0.56340251  1
  Zn  Zn182  1  0.55670606  0.31253622  0.06169584  1
  Zn  Zn183  1  0.56186232  0.31393476  0.56260901  1
  Zn  Zn184  1  0.56320901  0.81349380  0.06107529  1
  Zn  Zn185  1  0.56167000  0.81427438  0.56120401  1
  O  O186  1  0.12624522  0.11541290  0.11952024  1
  O  O187  1  0.12004847  0.12078619  0.62085113  1
  O  O188  1  0.12148403  0.61685411  0.11852227  1
  O  O189  1  0.10744420  0.62561445  0.62899478  1
  O  O190  1  0.62082138  0.11952712  0.11933041  1
  O  O191  1  0.61634598  0.11956989  0.62464347  1
  O  O192  1  0.62644094  0.61698425  0.11859597  1
  O  O193  1  0.62046164  0.62180054  0.61891695  1
  O  O194  1  0.37938966  0.37969949  0.37986617  1
  O  O195  1  0.37966212  0.38161960  0.87920523  1
  O  O196  1  0.38045024  0.88384379  0.37466462  1
  O  O197  1  0.37662144  0.88216400  0.88196334  1
  O  O198  1  0.88836052  0.37419470  0.37422961  1
  O  O199  1  0.87893593  0.37844102  0.88115427  1
  O  O200  1  0.88216997  0.87848247  0.38266745  1
  O  O201  1  0.88267650  0.88259876  0.87843035  1
  O  O202  1  0.26059394  0.01043898  0.38191632  1
  O  O203  1  0.25698308  0.00089193  0.86792070  1
  O  O204  1  0.25435762  0.50797643  0.36387508  1
  O  O205  1  0.26537925  0.50233225  0.87849023  1
  O  O206  1  0.75483916  0.00378933  0.37042668  1
  O  O207  1  0.75496652  0.00507443  0.87146991  1
  O  O208  1  0.75006382  0.50853611  0.36915586  1
  O  O209  1  0.75415188  0.50454292  0.87054571  1
  O  O210  1  0.23921465  0.50547818  0.13425907  1
  O  O211  1  0.24337085  0.51568335  0.62073226  1
  O  O212  1  0.24149914  0.98830780  0.11871766  1
  O  O213  1  0.24567971  0.99472574  0.63075999  1
  O  O214  1  0.74448658  0.49319039  0.13045286  1
  O  O215  1  0.75024711  0.49294527  0.63188274  1
  O  O216  1  0.74490453  0.99465666  0.12996677  1
  O  O217  1  0.74537550  0.99359616  0.62975960  1
  O  O218  1  0.01085803  0.37605819  0.25897309  1
  O  O219  1  0.00832955  0.36828785  0.75601524  1
  O  O220  1  0.00810337  0.86891935  0.25828321  1
  O  O221  1  0.00525941  0.86778202  0.75471856  1
  O  O222  1  0.50541638  0.36953077  0.25533180  1
  O  O223  1  0.50299826  0.37004256  0.75511952  1
  O  O224  1  0.50858307  0.87261334  0.25670358  1
  O  O225  1  0.50126586  0.86334468  0.75202504  1
  O  O226  1  0.49889926  0.13185689  0.24268554  1
  O  O227  1  0.49301229  0.13152851  0.74436063  1
  O  O228  1  0.49582074  0.62843576  0.24448160  1
  O  O229  1  0.49102749  0.63720288  0.75006274  1
  O  O230  1  0.99765297  0.12820718  0.24703251  1
  O  O231  1  0.99957403  0.13177613  0.74374306  1
  O  O232  1  0.99643360  0.62886624  0.24644442  1
  O  O233  1  0.99787297  0.63235290  0.74599905  1
  O  O234  1  0.38086298  0.25945318  0.00752980  1
  O  O235  1  0.36951908  0.25714849  0.50501455  1
  O  O236  1  0.36821168  0.75497551  0.00580116  1
  O  O237  1  0.37402926  0.75048847  0.51099717  1
  O  O238  1  0.86975990  0.25447005  0.00778158  1
  O  O239  1  0.86764981  0.25298987  0.50720781  1
  O  O240  1  0.86877226  0.74965696  0.00795851  1
  O  O241  1  0.87248632  0.76336064  0.50201141  1
  O  O242  1  0.12976289  0.24500663  0.49478720  1
  O  O243  1  0.11799380  0.24023854  0.99118226  1
  O  O244  1  0.12894338  0.73951135  0.50383370  1
  O  O245  1  0.13355778  0.74116086  1.00340016  1
  O  O246  1  0.63052012  0.24994268  0.49289921  1
  O  O247  1  0.62921824  0.24508175  0.99487510  1
  O  O248  1  0.62747697  0.74924025  0.48693732  1
  O  O249  1  0.63108711  0.74412221  0.99558254  1
  O  O250  1  0.49381347  0.24400863  0.13038492  1
  O  O251  1  0.49159681  0.24681288  0.63031414  1
  O  O252  1  0.48911525  0.74987283  0.12294279  1
  O  O253  1  0.49193314  0.75229393  0.63272304  1
  O  O254  1  0.98826333  0.24957985  0.12643170  1
  O  O255  1  0.99440391  0.24445141  0.63003719  1
  O  O256  1  0.99503743  0.74388022  0.13173176  1
  O  O257  1  0.99694175  0.74271111  0.63655633  1
  O  O258  1  0.00667197  0.25938610  0.37560367  1
  O  O259  1  0.00772287  0.25533752  0.87053001  1
  O  O260  1  -0.00523630  0.76265377  0.36936384  1
  O  O261  1  0.00208113  0.75471913  0.86675794  1
  O  O262  1  0.50372329  0.25483163  0.36981367  1
  O  O263  1  0.50464741  0.25475919  0.86870401  1
  O  O264  1  0.50878109  0.75531512  0.37402784  1
  O  O265  1  0.50555604  0.75169444  0.86694059  1
  O  O266  1  0.24438649  0.13210417  0.49131356  1
  O  O267  1  0.23482537  0.11848726  0.99727152  1
  O  O268  1  0.25178685  0.62586615  0.47898639  1
  O  O269  1  0.24150449  0.63352721  1.00142133  1
  O  O270  1  0.74742622  0.13180277  0.49376289  1
  O  O271  1  0.74348566  0.13017626  0.99513169  1
  O  O272  1  0.75169258  0.62486506  0.48832795  1
  O  O273  1  0.74424020  0.63020718  0.99492000  1
  O  O274  1  0.26329266  0.37832753  -0.00568431  1
  O  O275  1  0.25397459  0.37060112  0.49981273  1
  O  O276  1  0.25370343  0.86747986  0.00899420  1
  O  O277  1  0.25336190  0.87320675  0.50754046  1
  O  O278  1  0.75471848  0.36829927  0.00574696  1
  O  O279  1  0.75127692  0.36876639  0.50626806  1
  O  O280  1  0.75200976  0.86752981  0.00814670  1
  O  O281  1  0.75851365  0.87544063  0.50892307  1
  O  O282  1  0.13162241  0.49302065  0.24195020  1
  O  O283  1  0.11895974  0.48347255  0.75835273  1
  O  O284  1  0.12037836  0.98734847  0.23809427  1
  O  O285  1  0.13069318  0.99492557  0.74554517  1
  O  O286  1  0.63056680  0.49308008  0.24447117  1
  O  O287  1  0.63001570  0.49343427  0.75082467  1
  O  O288  1  0.63102396  0.99457351  0.24450838  1
  O  O289  1  0.63134699  0.99811122  0.74352051  1
  O  O290  1  0.38024073  0.00317222  0.26315045  1
  O  O291  1  0.37066214  0.00571303  0.75449312  1
  O  O292  1  0.36433126  0.49539595  0.25131990  1
  O  O293  1  0.38501108  0.51175139  0.76000956  1
  O  O294  1  0.86872254  -0.00153470  0.25679667  1
  O  O295  1  0.86850774  0.00266190  0.75849497  1
  O  O296  1  0.86851422  0.50592848  0.25093812  1
  O  O297  1  0.86698185  0.49864143  0.75932242  1
  O  O298  1  0.11703695  0.37080742  0.36738652  1
  O  O299  1  0.11955205  0.36750950  0.86923470  1
  O  O300  1  0.11802263  0.88292429  0.36487354  1
  O  O301  1  0.11912926  0.87335081  0.86880938  1
  O  O302  1  0.61929385  0.36854124  0.36826827  1
  O  O303  1  0.61898983  0.36890331  0.86984824  1
  O  O304  1  0.62201077  0.86776451  0.37069853  1
  O  O305  1  0.62372708  0.86638870  0.87274870  1
  O  O306  1  0.38120972  0.13251601  0.12500055  1
  O  O307  1  0.37964446  0.13145038  0.63039732  1
  O  O308  1  0.37474172  0.63605039  0.12337779  1
  O  O309  1  0.38030240  0.63631383  0.63251835  1
  O  O310  1  0.87583107  0.13592756  0.12553098  1
  O  O311  1  0.88155893  0.13094553  0.62651800  1
  O  O312  1  0.88057654  0.62893678  0.13095334  1
  O  O313  1  0.88553024  0.62857909  0.62960904  1
  O  O314  1  0.26418842  0.24406340  0.12926472  1
  O  O315  1  0.25616974  0.24717404  0.61654877  1
  O  O316  1  0.25768573  0.75773324  0.11567684  1
  O  O317  1  0.26159991  0.75569699  0.62662420  1
  O  O318  1  0.75687836  0.25439141  0.12003930  1
  O  O319  1  0.75388249  0.25462761  0.62069120  1
  O  O320  1  0.75502111  0.75408113  0.12116873  1
  O  O321  1  0.75148402  0.76179239  0.62477690  1
  O  O322  1  0.24479431  0.24297610  0.38221360  1
  O  O323  1  0.23528327  0.24893160  0.87036616  1
  O  O324  1  0.25760630  0.73591640  0.36826968  1
  O  O325  1  0.24927231  0.75025484  0.88908925  1
  O  O326  1  0.74477835  0.24525289  0.37989837  1
  O  O327  1  0.74396514  0.24529313  0.88076183  1
  O  O328  1  0.74240412  0.74155803  0.37516158  1
  O  O329  1  0.74581473  0.74491768  0.88028876  1
  O  O330  1  0.01228017  0.11669481  0.00419689  1
  O  O331  1  0.00757522  0.12310133  0.50662115  1
  O  O332  1  0.01141506  0.62520946  0.00667991  1
  O  O333  1  -0.00154110  0.61708662  0.50913987  1
  O  O334  1  0.50606808  0.11992098  0.00532588  1
  O  O335  1  0.50050667  0.11975203  0.50724166  1
  O  O336  1  0.50739436  0.61730607  0.00177825  1
  O  O337  1  0.50000558  0.61236735  0.49671908  1
  O  O338  1  0.49297992  0.38166402  0.49376804  1
  O  O339  1  0.49409963  0.38098916  0.99145139  1
  O  O340  1  0.49754707  0.88298998  0.49222210  1
  O  O341  1  0.49350750  0.88324805  0.99957277  1
  O  O342  1  1.00212967  0.38184149  0.49143885  1
  O  O343  1  0.99344038  0.37711037  0.99317198  1
  O  O344  1  0.99330808  0.87442760  0.49398064  1
  O  O345  1  1.00096912  0.88012259  0.99415740  1
  O  O346  1  0.49542968  0.49294915  0.37966667  1
  O  O347  1  0.49122601  0.49481740  0.88083033  1
  O  O348  1  0.49367754  0.99618341  0.37974245  1
  O  O349  1  0.49361631  1.00002226  0.88141258  1
  O  O350  1  0.99877022  0.49099441  0.38104503  1
  O  O351  1  0.99167038  0.49314074  0.87876919  1
  O  O352  1  0.99449961  0.98604947  0.37711949  1
  O  O353  1  0.99613565  0.99476978  0.88056100  1
  O  O354  1  0.01124563  -0.00264904  0.11963604  1
  O  O355  1  0.00731406  0.00625715  0.62530620  1
  O  O356  1  0.01149799  0.50628871  0.12387480  1
  O  O357  1  -0.00769729  0.50681956  0.61635284  1
  O  O358  1  0.50590241  0.00564598  0.11976105  1
  O  O359  1  0.50361307  0.00511061  0.62045806  1
  O  O360  1  0.50732851  0.49852578  0.11779498  1
  O  O361  1  0.49967076  0.50063386  0.61171283  1
  O  O362  1  0.23678214  0.38513637  0.25852056  1
  O  O363  1  0.23420093  0.37378310  0.74770206  1
  O  O364  1  0.24164558  0.86882133  0.23746518  1
  O  O365  1  0.24506314  0.88014116  0.74456165  1
  O  O366  1  0.74406356  0.37922239  0.24534126  1
  O  O367  1  0.74294786  0.37952641  0.74596404  1
  O  O368  1  0.74524967  0.88001254  0.24538759  1
  O  O369  1  0.75089436  0.88129840  0.74007148  1
  O  O370  1  0.24915102  0.12954649  0.26628422  1
  O  O371  1  0.25605725  0.11820665  0.75119209  1
  O  O372  1  0.25186695  0.61477146  0.25554807  1
  O  O373  1  0.26550720  0.63690148  0.75415770  1
  O  O374  1  0.75265572  0.11738116  0.25738985  1
  O  O375  1  0.75106881  0.11932658  0.75788080  1
  O  O376  1  0.75519503  0.61942380  0.25839914  1
  O  O377  1  0.75096548  0.61872129  0.75749896  1
  O  O378  1  0.36699431  0.11905459  0.37300865  1
  O  O379  1  0.37317276  0.11984911  0.86858407  1
  O  O380  1  0.36550775  0.61676480  0.36823045  1
  O  O381  1  0.37434683  0.61728622  0.86845043  1
  O  O382  1  0.86903393  0.11705380  0.37595506  1
  O  O383  1  0.86875154  0.11918224  0.87641274  1
  O  O384  1  0.86593264  0.62657532  0.36871567  1
  O  O385  1  0.86790835  0.61753959  0.87547095  1
  O  O386  1  0.11767266  0.38453496  0.13374082  1
  O  O387  1  0.12449432  0.37177317  0.64031076  1
  O  O388  1  0.13253016  0.88138217  0.13073710  1
  O  O389  1  0.13004313  0.88074724  0.63189421  1
  O  O390  1  0.63019136  0.37838071  0.12950299  1
  O  O391  1  0.63104539  0.37658708  0.63262465  1
  O  O392  1  0.63115849  0.88027442  0.13035835  1
  O  O393  1  0.63571255  0.88131377  0.62497377  1
  O  O394  1  0.12454085  0.26015839  0.25508195  1
  O  O395  1  0.11811358  0.25672433  0.75963528  1
  O  O396  1  0.11900586  0.76324179  0.24059167  1
  O  O397  1  0.11510253  0.75530216  0.75163446  1
  O  O398  1  0.61941112  0.25542085  0.25474844  1
  O  O399  1  0.61789807  0.25563515  0.75578578  1
  O  O400  1  0.62608399  0.75596078  0.26058645  1
  O  O401  1  0.61533492  0.75017825  0.75574975  1
  O  O402  1  0.38121930  0.25061583  0.24027624  1
  O  O403  1  0.37863705  0.24636572  0.74559647  1
  O  O404  1  0.37662342  0.75043675  0.23456801  1
  O  O405  1  0.38331879  0.74507542  0.74365971  1
  O  O406  1  0.87562299  0.24876169  0.23832750  1
  O  O407  1  0.88217514  0.24825944  0.74447480  1
  O  O408  1  0.88188160  0.74344702  0.24460922  1
  O  O409  1  0.88774313  0.74977767  0.75048597  1
  O  O410  1  0.38401601  0.49500599  0.49118884  1
  O  O411  1  0.38059238  0.49248957  0.99301563  1
  O  O412  1  0.38217471  1.00005808  0.48882951  1
  O  O413  1  0.38004060  0.99638856  0.99524217  1
  O  O414  1  0.88781881  0.49496663  0.49434282  1
  O  O415  1  0.87484628  0.49232415  0.99511253  1
  O  O416  1  0.87693464  0.98808924  0.49446337  1
  O  O417  1  0.88317860  0.99820005  0.99544708  1
  O  O418  1  0.12047814  0.00528750  0.00923397  1
  O  O419  1  0.12427763  0.00726120  0.50851301  1
  O  O420  1  0.12729124  0.50763127  0.00773691  1
  O  O421  1  0.11025226  0.50631332  0.49257717  1
  O  O422  1  0.62058591  0.00545505  0.00567362  1
  O  O423  1  0.61732917  0.00274030  0.50681970  1
  O  O424  1  0.62079779  0.50368774  0.00461681  1
  O  O425  1  0.61255189  0.49926307  0.49903208  1
  O  O426  1  0.37971798  0.36519070  0.11262582  1
  O  O427  1  0.36839908  0.37039432  0.61895646  1
  O  O428  1  0.36789543  0.87020782  0.11991694  1
  O  O429  1  0.36886625  0.86651993  0.62416646  1
  O  O430  1  0.86956864  0.36751877  0.12086993  1
  O  O431  1  0.86753351  0.36643497  0.62537385  1
  O  O432  1  0.86936411  0.86709882  0.12556999  1
  O  O433  1  0.86705732  0.87696599  0.61724269  1
  O  O434  1  0.13120022  0.12806399  0.38057416  1
  O  O435  1  0.12542612  0.13287121  0.88310189  1
  O  O436  1  0.14116708  0.62186735  0.36860490  1
  O  O437  1  0.12749029  0.62558496  0.88746781  1
  O  O438  1  0.63176570  0.13191116  0.37605816  1
  O  O439  1  0.62992134  0.13077587  0.88062142  1
  O  O440  1  0.63476045  0.63285812  0.37417439  1
  O  O441  1  0.63078078  0.63021667  0.88154705  1
