# generated using pymatgen
data_V93Zn93O256
_symmetry_space_group_name_H-M   'P 1'
_cell_length_a   17.06272077
_cell_length_b   17.06063213
_cell_length_c   17.05626492
_cell_angle_alpha   90.09356905
_cell_angle_beta   90.02732747
_cell_angle_gamma   90.02195927
_symmetry_Int_Tables_number   1
_chemical_formula_structural   V93Zn93O256
_chemical_formula_sum   'V93 Zn93 O256'
_cell_volume   4965.08484871
_cell_formula_units_Z   1
loop_
 _symmetry_equiv_pos_site_id
 _symmetry_equiv_pos_as_xyz
  1  'x, y, z'
loop_
 _atom_site_type_symbol
 _atom_site_label
 _atom_site_symmetry_multiplicity
 _atom_site_fract_x
 _atom_site_fract_y
 _atom_site_fract_z
 _atom_site_occupancy
  V  V0  1  0.74921259  0.25049541  0.00074158  1
  V  V1  1  0.49877193  0.37404440  0.87514805  1
  V  V2  1  0.74513244  0.74919480  -0.00551286  1
  V  V3  1  0.24824726  0.49998615  0.74941384  1
  V  V4  1  0.37618582  0.62438468  0.74971313  1
  V  V5  1  0.24721903  0.62445030  0.37690189  1
  V  V6  1  0.37348637  0.87404082  0.49958587  1
  V  V7  1  0.12442739  0.74721776  0.37669712  1
  V  V8  1  0.75636850  0.61914460  0.37514982  1
  V  V9  1  0.25025015  0.12549001  0.87615235  1
  V  V10  1  0.24890620  0.87562268  0.62502745  1
  V  V11  1  0.87327887  0.25022935  0.12441085  1
  V  V12  1  0.24618872  0.74453913  0.50011230  1
  V  V13  1  0.62492262  0.37666009  0.24804178  1
  V  V14  1  0.12052224  0.36953300  0.74952320  1
  V  V15  1  0.24841557  0.12112969  0.36968382  1
  V  V16  1  0.24970837  0.75026932  0.00022578  1
  V  V17  1  0.87199960  0.50201036  0.87409452  1
  V  V18  1  0.87570111  0.75030447  0.62528635  1
  V  V19  1  -0.00086657  0.36813908  0.87023807  1
  V  V20  1  0.87498936  0.87421348  0.00116882  1
  V  V21  1  -0.00441338  0.38104970  0.37604107  1
  V  V22  1  0.37527880  0.74829320  0.12616758  1
  V  V23  1  0.00077097  0.87391565  0.87591688  1
  V  V24  1  0.87226117  0.12637457  0.25399216  1
  V  V25  1  -0.00119556  0.62628492  0.12486055  1
  V  V26  1  0.75116186  0.12393518  0.87312380  1
  V  V27  1  0.50070827  -0.00140697  0.00086319  1
  V  V28  1  0.62528838  0.74943402  0.37404693  1
  V  V29  1  0.11700125  0.50512220  0.61438200  1
  V  V30  1  0.12542216  0.12488287  -0.00040894  1
  V  V31  1  0.37395371  0.37431461  -0.00085870  1
  V  V32  1  0.49984776  0.50071310  0.49983166  1
  V  V33  1  0.25052150  0.49939478  0.24963732  1
  V  V34  1  0.37635784  0.62482945  0.24899134  1
  V  V35  1  0.50467508  0.74849749  0.75398432  1
  V  V36  1  0.50084047  0.87233398  0.37360817  1
  V  V37  1  0.74883988  0.37198854  0.62223094  1
  V  V38  1  0.00105559  0.87905284  0.37195399  1
  V  V39  1  0.37627411  -0.00105282  0.87464641  1
  V  V40  1  -0.00044395  0.12482591  0.12493198  1
  V  V41  1  0.24928852  0.37374564  0.12379089  1
  V  V42  1  -0.00121222  0.50049916  -0.00082054  1
  V  V43  1  0.37449069  0.37414556  0.49978417  1
  V  V44  1  -0.00185063  0.25048423  0.24913829  1
  V  V45  1  0.37379084  0.49928650  0.37460961  1
  V  V46  1  0.87361475  0.37509808  -0.00019412  1
  V  V47  1  0.24954159  0.62444500  0.87436983  1
  V  V48  1  0.87583582  0.37829022  0.49638343  1
  V  V49  1  0.12450224  0.62491813  -0.00064393  1
  V  V50  1  0.37006568  -0.00104291  0.37034308  1
  V  V51  1  0.50083327  0.62463795  0.62478462  1
  V  V52  1  0.62511098  0.37526792  0.74957262  1
  V  V53  1  0.49857740  0.24933791  0.24947322  1
  V  V54  1  0.87161202  0.00723676  0.37713886  1
  V  V55  1  0.50182930  0.00259487  0.50216336  1
  V  V56  1  0.88353743  0.24964376  0.63376647  1
  V  V57  1  0.12480440  0.50017826  0.12354684  1
  V  V58  1  0.00032868  0.74849316  0.74853458  1
  V  V59  1  0.24979130  0.37642188  0.62425355  1
  V  V60  1  0.12462924  0.74904800  0.87476328  1
  V  V61  1  0.37540842  0.87379214  -0.00025536  1
  V  V62  1  0.37396857  0.49777776  0.87535895  1
  V  V63  1  0.74959403  0.87599791  0.12564376  1
  V  V64  1  0.37748035  0.12317649  0.74824314  1
  V  V65  1  0.75649939  0.49941268  0.25196308  1
  V  V66  1  0.62673388  0.87344392  0.75347474  1
  V  V67  1  0.12362353  0.37480613  0.24900732  1
  V  V68  1  0.37279393  0.24930848  0.12380637  1
  V  V69  1  0.87476159  0.74819481  0.12924858  1
  V  V70  1  0.37197520  0.12275009  0.24957924  1
  V  V71  1  0.50303150  0.87175231  0.87510843  1
  V  V72  1  0.87460210  -0.00020044  0.87551253  1
  V  V73  1  0.62375706  0.62685911  -0.00563688  1
  V  V74  1  0.87709651  0.62413360  0.74844603  1
  V  V75  1  0.49880579  0.37445163  0.37438381  1
  V  V76  1  0.12809385  -0.00033577  0.13282199  1
  V  V77  1  -0.00041391  -0.00136101  0.00173771  1
  V  V78  1  0.74899485  0.00501689  0.25510796  1
  V  V79  1  0.74912288  0.75111255  0.49942466  1
  V  V80  1  0.87381008  0.87949049  0.50155165  1
  V  V81  1  0.74912181  0.87682242  0.62603599  1
  V  V82  1  0.00039531  0.00426067  0.50694481  1
  V  V83  1  0.62456490  0.62372833  0.49978170  1
  V  V84  1  0.12405667  0.12628877  0.50035733  1
  V  V85  1  0.25007876  0.87900983  0.13185565  1
  V  V86  1  0.12662704  0.87377237  0.74973426  1
  V  V87  1  0.49831215  0.12316951  0.12406053  1
  V  V88  1  0.62462720  -0.00024061  0.12590755  1
  V  V89  1  0.62493248  0.24984574  0.87532361  1
  V  V90  1  0.63064188  0.24139046  0.37765586  1
  V  V91  1  0.37655193  0.24883602  0.62383478  1
  V  V92  1  0.12437338  0.25025573  0.37424689  1
  Zn  Zn93  1  0.13119451  0.87921489  0.25413073  1
  Zn  Zn94  1  0.94713472  0.53958194  0.44684511  1
  Zn  Zn95  1  0.74854596  0.50205430  0.74840780  1
  Zn  Zn96  1  0.74419951  0.63033451  0.87027529  1
  Zn  Zn97  1  0.00318109  0.75068992  0.24871440  1
  Zn  Zn98  1  0.11857492  0.24384276  0.86966058  1
  Zn  Zn99  1  0.25045268  0.24950319  0.49843787  1
  Zn  Zn100  1  0.50173784  0.62415180  0.12499606  1
  Zn  Zn101  1  0.74870562  0.37736340  0.12380442  1
  Zn  Zn102  1  0.62799231  0.00409680  0.62614783  1
  Zn  Zn103  1  0.75922675  0.23968928  0.49370320  1
  Zn  Zn104  1  0.50141187  0.24821812  0.74965970  1
  Zn  Zn105  1  0.88501982  0.12522910  0.75344840  1
  Zn  Zn106  1  0.63508263  0.12093291  0.50277714  1
  Zn  Zn107  1  0.62366524  0.12481809  -0.00071558  1
  Zn  Zn108  1  0.62472901  0.49838145  0.62451544  1
  Zn  Zn109  1  0.00321276  0.62574074  0.60685599  1
  Zn  Zn110  1  0.50142399  0.50128270  0.00230154  1
  Zn  Zn111  1  0.12528008  0.00353323  0.62884101  1
  Zn  Zn112  1  0.62617955  0.87310272  0.24960940  1
  Zn  Zn113  1  0.87922659  0.62044164  0.25571189  1
  Zn  Zn114  1  0.50315736  0.74686202  0.24772127  1
  Zn  Zn115  1  0.50458228  0.12521951  0.62369235  1
  Zn  Zn116  1  0.24618937  0.25121025  -0.00186540  1
  Zn  Zn117  1  0.37538947  0.74873604  0.62428503  1
  Zn  Zn118  1  0.25029581  -0.00260535  0.74969458  1
  Zn  Zn119  1  0.62366888  0.50374770  0.12401307  1
  Zn  Zn120  1  0.75121271  0.00152773  0.74870267  1
  Zn  Zn121  1  0.01945981  0.14743023  0.64755923  1
  Zn  Zn122  1  0.18646934  0.18764945  0.18738389  1
  Zn  Zn123  1  0.19486190  0.18880116  0.68838071  1
  Zn  Zn124  1  0.18780043  0.68984342  0.19020415  1
  Zn  Zn125  1  0.18709298  0.68621582  0.68625848  1
  Zn  Zn126  1  0.68573016  0.18721632  0.18721587  1
  Zn  Zn127  1  0.69038703  0.18810208  0.68600961  1
  Zn  Zn128  1  0.68678227  0.68555393  0.18622222  1
  Zn  Zn129  1  0.68777817  0.68854313  0.68648400  1
  Zn  Zn130  1  0.31057901  0.31007956  0.31190990  1
  Zn  Zn131  1  0.31035902  0.31088818  0.81001711  1
  Zn  Zn132  1  0.31371079  0.81000065  0.31231952  1
  Zn  Zn133  1  0.31550630  0.80962271  0.81148615  1
  Zn  Zn134  1  0.81165490  0.31387792  0.31160291  1
  Zn  Zn135  1  0.80980094  0.31355907  0.81258610  1
  Zn  Zn136  1  0.81144169  0.81598291  0.31347827  1
  Zn  Zn137  1  0.81388594  0.81331987  0.81211145  1
  Zn  Zn138  1  0.18716437  0.43596450  0.43695322  1
  Zn  Zn139  1  0.18620985  0.43598174  0.93581966  1
  Zn  Zn140  1  0.18604881  0.93705213  0.44069818  1
  Zn  Zn141  1  0.18812128  0.93899528  0.94044521  1
  Zn  Zn142  1  0.68780183  0.43472042  0.43682497  1
  Zn  Zn143  1  0.68610881  0.43941083  0.93832236  1
  Zn  Zn144  1  0.68623606  0.93836589  0.43745629  1
  Zn  Zn145  1  0.68678445  0.93710868  0.93794481  1
  Zn  Zn146  1  0.31191154  0.06104925  0.06094742  1
  Zn  Zn147  1  0.31256197  0.06118279  0.55891316  1
  Zn  Zn148  1  0.31309641  0.56143657  0.06199330  1
  Zn  Zn149  1  0.31175246  0.56149988  0.56412588  1
  Zn  Zn150  1  0.81092118  0.06367434  0.06335765  1
  Zn  Zn151  1  0.81090949  0.06723854  0.56469268  1
  Zn  Zn152  1  0.80715492  0.56316295  0.06451182  1
  Zn  Zn153  1  0.80803459  0.56239936  0.56684382  1
  Zn  Zn154  1  0.43905919  0.43888191  0.18428913  1
  Zn  Zn155  1  0.43859533  0.43765842  0.68774827  1
  Zn  Zn156  1  0.43688456  0.93574415  0.18802922  1
  Zn  Zn157  1  0.43730873  0.93526673  0.68678660  1
  Zn  Zn158  1  0.93725184  0.43685633  0.18613313  1
  Zn  Zn159  1  0.93765458  0.43686395  0.68565341  1
  Zn  Zn160  1  0.93516113  0.93963898  0.18822210  1
  Zn  Zn161  1  0.93682489  0.93844397  0.69071204  1
  Zn  Zn162  1  0.05820128  0.06417123  0.31379487  1
  Zn  Zn163  1  0.06363033  0.05800428  0.81243010  1
  Zn  Zn164  1  0.06573072  0.56595879  0.30757282  1
  Zn  Zn165  1  0.06123465  0.55866620  0.80816481  1
  Zn  Zn166  1  0.55930738  0.06034596  0.31094841  1
  Zn  Zn167  1  0.56435975  0.05938824  0.81231666  1
  Zn  Zn168  1  0.56360307  0.56227014  0.31259790  1
  Zn  Zn169  1  0.56153988  0.55994029  0.81518703  1
  Zn  Zn170  1  0.43991122  0.18655228  0.43672108  1
  Zn  Zn171  1  0.43765924  0.18866085  0.93788756  1
  Zn  Zn172  1  0.43491676  0.68702318  0.43728583  1
  Zn  Zn173  1  0.43820288  0.68660647  0.93743207  1
  Zn  Zn174  1  0.93788086  0.19180427  0.44006899  1
  Zn  Zn175  1  0.93633968  0.18626941  0.93896971  1
  Zn  Zn176  1  0.93652333  0.70155442  0.43730256  1
  Zn  Zn177  1  0.93515269  0.68811475  0.93832340  1
  Zn  Zn178  1  0.06129233  0.31130006  0.05849216  1
  Zn  Zn179  1  0.06268459  0.31934961  0.55832507  1
  Zn  Zn180  1  0.06367802  0.81322381  0.06344458  1
  Zn  Zn181  1  0.06220483  0.81326984  0.56184923  1
  Zn  Zn182  1  0.56008563  0.31122380  0.06108494  1
  Zn  Zn183  1  0.56068182  0.31160818  0.56118628  1
  Zn  Zn184  1  0.56311887  0.81049887  0.06397301  1
  Zn  Zn185  1  0.56338108  0.81238391  0.56484385  1
  O  O186  1  0.12028064  0.11768995  0.12074955  1
  O  O187  1  0.12928327  0.12547651  0.61507482  1
  O  O188  1  0.12042767  0.62054466  0.11942326  1
  O  O189  1  0.12309535  0.60912538  0.63100483  1
  O  O190  1  0.61575510  0.11853227  0.12370610  1
  O  O191  1  0.62093810  0.12296204  0.62362644  1
  O  O192  1  0.62336832  0.62541962  0.11227636  1
  O  O193  1  0.62006124  0.62239056  0.61771058  1
  O  O194  1  0.37844735  0.37919288  0.37893445  1
  O  O195  1  0.37757222  0.37785898  0.87824246  1
  O  O196  1  0.38012233  0.88119913  0.37891907  1
  O  O197  1  0.38065816  0.87924809  0.88009841  1
  O  O198  1  0.88376069  0.36798900  0.38327353  1
  O  O199  1  0.88076495  0.38288914  0.87815756  1
  O  O200  1  0.88277874  0.88296901  0.38201497  1
  O  O201  1  0.88156201  0.87920402  0.88187547  1
  O  O202  1  0.25984746  0.00737115  0.38201070  1
  O  O203  1  0.25733226  0.00908036  0.87552105  1
  O  O204  1  0.25362285  0.50393319  0.36950544  1
  O  O205  1  0.25349126  0.50531898  0.86904985  1
  O  O206  1  0.75633898  -0.00684706  0.36348286  1
  O  O207  1  0.75550145  0.00888421  0.87646595  1
  O  O208  1  0.74408843  0.51035972  0.36755348  1
  O  O209  1  0.76446591  0.50024201  0.87257566  1
  O  O210  1  0.24404237  0.49375104  0.13001822  1
  O  O211  1  0.24161747  0.49522404  0.63056258  1
  O  O212  1  0.23979328  0.99040265  0.11750468  1
  O  O213  1  0.24900480  0.98611979  0.62293848  1
  O  O214  1  0.74431327  0.49709103  0.13650492  1
  O  O215  1  0.74638149  0.48505946  0.62751214  1
  O  O216  1  0.74538717  0.99516438  0.13228626  1
  O  O217  1  0.75111818  0.99072116  0.62880761  1
  O  O218  1  0.00392166  0.36940853  0.25522502  1
  O  O219  1  0.00855751  0.38243482  0.76013038  1
  O  O220  1  -0.00081563  0.87777704  0.26399593  1
  O  O221  1  0.00590622  0.86811006  0.75602835  1
  O  O222  1  0.50599594  0.36973649  0.25468244  1
  O  O223  1  0.50919435  0.37289692  0.75481986  1
  O  O224  1  0.50026261  0.87367200  0.26421725  1
  O  O225  1  0.50650554  0.86725224  0.75348829  1
  O  O226  1  0.49144267  0.12931902  0.24378905  1
  O  O227  1  0.48709854  0.12482411  0.74950845  1
  O  O228  1  0.49103987  0.62630222  0.25021065  1
  O  O229  1  0.49741443  0.63081823  0.74621725  1
  O  O230  1  0.99404319  0.13168794  0.24377864  1
  O  O231  1  0.99846400  0.12510471  0.75346215  1
  O  O232  1  0.99616223  0.62920634  0.24178611  1
  O  O233  1  0.98925361  0.63035053  0.74913447  1
  O  O234  1  0.37146970  0.25589568  0.00666745  1
  O  O235  1  0.37528556  0.25442993  0.50779945  1
  O  O236  1  0.36841469  0.75477583  0.00473221  1
  O  O237  1  0.36335928  0.75625318  0.49959857  1
  O  O238  1  0.86931877  0.25549453  0.00525991  1
  O  O239  1  0.87556623  0.26176612  0.50957820  1
  O  O240  1  0.86884799  0.75443898  0.01081865  1
  O  O241  1  0.86721797  0.76125502  0.50605047  1
  O  O242  1  0.12468427  0.24140308  0.49384375  1
  O  O243  1  0.12612434  0.24029510  0.99525572  1
  O  O244  1  0.13499901  0.75747804  0.48818525  1
  O  O245  1  0.12960219  0.74440066  0.99432150  1
  O  O246  1  0.62094900  0.25128962  0.48281749  1
  O  O247  1  0.63079102  0.24832059  0.99318473  1
  O  O248  1  0.63064832  0.74426821  0.49473435  1
  O  O249  1  0.63679087  0.74342743  1.00492457  1
  O  O250  1  0.49246450  0.24334201  0.13015125  1
  O  O251  1  0.48705322  0.24837081  0.62672759  1
  O  O252  1  0.48934647  0.74944536  0.12785389  1
  O  O253  1  0.49776880  0.74356291  0.63427602  1
  O  O254  1  0.99403287  0.24469056  0.12935823  1
  O  O255  1  0.98768562  0.25729288  0.62119999  1
  O  O256  1  0.99139981  0.74629464  0.12504762  1
  O  O257  1  0.99410526  0.74850566  0.63002706  1
  O  O258  1  0.00568329  0.25923159  0.36791659  1
  O  O259  1  -0.00164312  0.26457295  0.88010577  1
  O  O260  1  0.00797450  0.76355666  0.37364055  1
  O  O261  1  0.00497954  0.75476260  0.87038652  1
  O  O262  1  0.50557794  0.25569347  0.36792062  1
  O  O263  1  0.50636443  0.25573107  0.87238359  1
  O  O264  1  0.50431332  0.75912233  0.37688206  1
  O  O265  1  0.49395350  0.75593696  0.86186077  1
  O  O266  1  0.24004771  0.12527510  0.48937453  1
  O  O267  1  0.24555473  0.12516433  0.99066158  1
  O  O268  1  0.25617197  0.63719203  0.49427305  1
  O  O269  1  0.24377381  0.63000239  0.99409881  1
  O  O270  1  0.74770217  0.12822348  0.49744165  1
  O  O271  1  0.74845230  0.13095386  0.98995695  1
  O  O272  1  0.74553196  0.62970988  0.49355106  1
  O  O273  1  0.74317722  0.63363663  0.99794931  1
  O  O274  1  0.25432468  0.37325074  0.00578208  1
  O  O275  1  0.25729971  0.37215927  0.50533991  1
  O  O276  1  0.25562619  0.86931485  0.00782653  1
  O  O277  1  0.25331762  0.86649481  0.50656792  1
  O  O278  1  0.75605933  0.36856938  0.00042361  1
  O  O279  1  0.75617786  0.36905557  0.50605508  1
  O  O280  1  0.75495561  0.86868187  0.00566099  1
  O  O281  1  0.75471056  0.87120904  0.50493956  1
  O  O282  1  0.13142377  0.49427842  0.24247269  1
  O  O283  1  0.13026585  0.48955693  0.74289424  1
  O  O284  1  0.11896545  1.00049665  0.23646696  1
  O  O285  1  0.13032296  0.98921613  0.74711817  1
  O  O286  1  0.63251771  0.48954604  0.25152660  1
  O  O287  1  0.62667361  0.48726239  0.74877561  1
  O  O288  1  0.63308644  0.99871303  0.24564975  1
  O  O289  1  0.62737253  0.98714590  0.74688108  1
  O  O290  1  0.38133922  0.00576153  0.26365126  1
  O  O291  1  0.37380914  0.00700117  0.75533991  1
  O  O292  1  0.36851797  0.50323741  0.25573856  1
  O  O293  1  0.36861899  0.50434149  0.75512116  1
  O  O294  1  0.86763138  0.00657187  0.25567357  1
  O  O295  1  0.87156719  0.00061868  0.76080045  1
  O  O296  1  0.86134220  0.49950482  0.24628635  1
  O  O297  1  0.87541200  0.50799932  0.75655017  1
  O  O298  1  0.11758746  0.37008109  0.36887742  1
  O  O299  1  0.11598595  0.37463589  0.86675924  1
  O  O300  1  0.11761621  0.87119787  0.37412286  1
  O  O301  1  0.12098829  0.86876443  0.87152012  1
  O  O302  1  0.61800225  0.36684209  0.36544813  1
  O  O303  1  0.62094319  0.37015838  0.86737407  1
  O  O304  1  0.61537337  0.86866538  0.37516320  1
  O  O305  1  0.61848933  0.87921747  0.86342364  1
  O  O306  1  0.37782626  0.12811263  0.13005744  1
  O  O307  1  0.37277729  0.13147882  0.63164569  1
  O  O308  1  0.37237511  0.63142745  0.13134446  1
  O  O309  1  0.38190262  0.62523879  0.63221031  1
  O  O310  1  0.88113091  0.13014545  0.13115321  1
  O  O311  1  0.87694856  0.14417643  0.62657427  1
  O  O312  1  0.87995575  0.63448840  0.12457749  1
  O  O313  1  0.87552434  0.63041284  0.63388536  1
  O  O314  1  0.25516473  0.25609869  0.12455017  1
  O  O315  1  0.26196365  0.25663758  0.62184797  1
  O  O316  1  0.25353543  0.75850047  0.11883935  1
  O  O317  1  0.24892029  0.75716497  0.61608837  1
  O  O318  1  0.75586435  0.25087867  0.11912873  1
  O  O319  1  0.76069108  0.26137277  0.62333920  1
  O  O320  1  0.75856351  0.75547477  0.11796946  1
  O  O321  1  0.75621607  0.75605201  0.61840019  1
  O  O322  1  0.24332433  0.23974027  0.37679836  1
  O  O323  1  0.24830412  0.23532755  0.87450613  1
  O  O324  1  0.24308294  0.74683563  0.38192343  1
  O  O325  1  0.24463132  0.74441923  0.88009296  1
  O  O326  1  0.73311615  0.25470897  0.37277010  1
  O  O327  1  0.74615530  0.24291837  0.88069885  1
  O  O328  1  0.74636699  0.74268040  0.38020463  1
  O  O329  1  0.76032178  0.74930042  0.89086548  1
  O  O330  1  0.00458751  0.11850360  0.00590870  1
  O  O331  1  0.01122055  0.11888525  0.49935486  1
  O  O332  1  0.00534258  0.62024696  0.00437834  1
  O  O333  1  -0.00577975  0.62625699  0.49476748  1
  O  O334  1  0.49921611  0.11676949  0.00615678  1
  O  O335  1  0.50143028  0.11252898  0.49948614  1
  O  O336  1  0.51008830  0.62546406  0.00026696  1
  O  O337  1  0.50428233  0.62055506  0.50401475  1
  O  O338  1  0.49333337  0.38092797  0.49445550  1
  O  O339  1  0.49184493  0.37514413  0.99245145  1
  O  O340  1  0.49448182  0.88022509  0.49148345  1
  O  O341  1  0.49464249  0.87827634  0.99504268  1
  O  O342  1  0.99152850  0.37453983  0.48639349  1
  O  O343  1  0.99430998  0.38204381  0.99122868  1
  O  O344  1  0.99585581  0.88418407  0.49167793  1
  O  O345  1  0.99504313  0.87879974  0.99545174  1
  O  O346  1  0.49299622  0.49440793  0.38007410  1
  O  O347  1  0.49043521  0.49127174  0.87644310  1
  O  O348  1  0.49203809  0.99161149  0.38234343  1
  O  O349  1  0.49486613  0.99289393  0.88093182  1
  O  O350  1  1.00307996  0.48653658  0.36416538  1
  O  O351  1  0.98997534  0.49312761  0.87958605  1
  O  O352  1  0.99523246  0.99513552  0.38532420  1
  O  O353  1  0.99539588  0.99203095  0.88350812  1
  O  O354  1  0.00655386  0.00458334  0.12044952  1
  O  O355  1  0.00116833  -0.00164777  0.61226129  1
  O  O356  1  0.00518099  0.50531027  0.11896530  1
  O  O357  1  0.01371449  0.50004382  0.62620498  1
  O  O358  1  0.50378187  0.00323771  0.12081319  1
  O  O359  1  0.49782613  -0.00124331  0.61173463  1
  O  O360  1  0.50417698  0.50443042  0.12059240  1
  O  O361  1  0.50131503  0.50599145  0.61770231  1
  O  O362  1  0.24337926  0.37968844  0.24469258  1
  O  O363  1  0.24207943  0.38073668  0.74459454  1
  O  O364  1  0.25202816  0.87266560  0.23547546  1
  O  O365  1  0.24653280  0.87171676  0.74056901  1
  O  O366  1  0.74125174  0.38283950  0.25080056  1
  O  O367  1  0.74049313  0.37570938  0.74192319  1
  O  O368  1  0.75057693  0.88696564  0.24364447  1
  O  O369  1  0.74109355  0.87169278  0.74561908  1
  O  O370  1  0.25382666  0.12829112  0.26261179  1
  O  O371  1  0.26037921  0.12115644  0.75763798  1
  O  O372  1  0.25503130  0.61820352  0.25594328  1
  O  O373  1  0.25569652  0.62089570  0.75566560  1
  O  O374  1  0.75617898  0.11252863  0.24297495  1
  O  O375  1  0.75578918  0.12625654  0.76383269  1
  O  O376  1  0.75132404  0.61695510  0.25911054  1
  O  O377  1  0.76174881  0.62492832  0.75139571  1
  O  O378  1  0.36699962  0.11821695  0.37123141  1
  O  O379  1  0.36925570  0.12016543  0.86766783  1
  O  O380  1  0.36754846  0.61823648  0.36977623  1
  O  O381  1  0.36847028  0.61872475  0.86968298  1
  O  O382  1  0.88466865  0.11961018  0.36673100  1
  O  O383  1  0.86634092  0.11902867  0.87738267  1
  O  O384  1  0.86354670  0.62686859  0.37670972  1
  O  O385  1  0.87561205  0.61694774  0.86656884  1
  O  O386  1  0.12785184  0.38023444  0.12906945  1
  O  O387  1  0.12883422  0.38358145  0.63109321  1
  O  O388  1  0.13263268  0.88265880  0.12618428  1
  O  O389  1  0.13425112  0.87455973  0.63008841  1
  O  O390  1  0.62473854  0.37069335  0.13965061  1
  O  O391  1  0.63172661  0.37159030  0.63170728  1
  O  O392  1  0.63119673  0.88179787  0.12742170  1
  O  O393  1  0.63150860  0.87601137  0.63465179  1
  O  O394  1  0.11788646  0.25541187  0.25396954  1
  O  O395  1  0.13044421  0.26487180  0.74902399  1
  O  O396  1  0.12440988  0.75727804  0.26209772  1
  O  O397  1  0.12000564  0.75347701  0.75595471  1
  O  O398  1  0.61932958  0.25640266  0.25843633  1
  O  O399  1  0.62465747  0.26037649  0.75572598  1
  O  O400  1  0.62399132  0.75262160  0.25822115  1
  O  O401  1  0.61452080  0.75878361  0.74530412  1
  O  O402  1  0.37923632  0.24362158  0.24423701  1
  O  O403  1  0.37500543  0.24082212  0.74071845  1
  O  O404  1  0.37527074  0.74184896  0.24431053  1
  O  O405  1  0.38545441  0.74260953  0.74710882  1
  O  O406  1  0.87877748  0.24616429  0.24439925  1
  O  O407  1  0.87356777  0.25545443  0.73587651  1
  O  O408  1  0.87484526  0.75039217  0.23786502  1
  O  O409  1  0.88061830  0.74302737  0.74558674  1
  O  O410  1  0.37919587  0.49426905  0.49392401  1
  O  O411  1  0.37368639  0.49217241  0.99205279  1
  O  O412  1  0.38186854  0.99482807  0.48918770  1
  O  O413  1  0.38137344  0.99287824  0.99496281  1
  O  O414  1  0.86865941  0.48405483  0.50591796  1
  O  O415  1  0.87864604  0.49662228  0.99272402  1
  O  O416  1  0.88337654  0.99831219  0.49695748  1
  O  O417  1  0.88010456  0.99357723  0.99711410  1
  O  O418  1  0.11844070  0.00474467  0.00982988  1
  O  O419  1  0.11699270  0.00987295  0.50099032  1
  O  O420  1  0.11940769  0.50558200  0.00429487  1
  O  O421  1  0.12895336  0.49463486  0.51568546  1
  O  O422  1  0.61782167  0.00072657  0.00742185  1
  O  O423  1  0.61321785  -0.00053260  0.50067745  1
  O  O424  1  0.62440841  0.50998056  0.00231356  1
  O  O425  1  0.61728210  0.50513260  0.49931843  1
  O  O426  1  0.36842586  0.36913072  0.12020809  1
  O  O427  1  0.37060442  0.36787418  0.62102118  1
  O  O428  1  0.36769346  0.87110199  0.11947189  1
  O  O429  1  0.36481960  0.87171820  0.61909405  1
  O  O430  1  0.87443802  0.36775871  0.11718836  1
  O  O431  1  0.86917611  0.36811569  0.61878803  1
  O  O432  1  0.87087925  0.86817036  0.12015159  1
  O  O433  1  0.86994378  0.86981296  0.62099068  1
  O  O434  1  0.13029776  0.12852141  0.38032409  1
  O  O435  1  0.13495339  0.12253478  0.88008089  1
  O  O436  1  0.13171447  0.63825684  0.36879702  1
  O  O437  1  0.12903589  0.62890012  0.87889624  1
  O  O438  1  0.61736667  0.14025201  0.37192714  1
  O  O439  1  0.63403395  0.13013688  0.87495912  1
  O  O440  1  0.63377285  0.63039872  0.38092066  1
  O  O441  1  0.62816222  0.62028938  0.88686326  1
