# generated using pymatgen
data_V93Zn93O256
_symmetry_space_group_name_H-M   'P 1'
_cell_length_a   17.04971709
_cell_length_b   17.05060025
_cell_length_c   17.05327066
_cell_angle_alpha   89.96787072
_cell_angle_beta   90.04073063
_cell_angle_gamma   89.94802831
_symmetry_Int_Tables_number   1
_chemical_formula_structural   V93Zn93O256
_chemical_formula_sum   'V93 Zn93 O256'
_cell_volume   4957.51660839
_cell_formula_units_Z   1
loop_
 _symmetry_equiv_pos_site_id
 _symmetry_equiv_pos_as_xyz
  1  'x, y, z'
loop_
 _atom_site_type_symbol
 _atom_site_label
 _atom_site_symmetry_multiplicity
 _atom_site_fract_x
 _atom_site_fract_y
 _atom_site_fract_z
 _atom_site_occupancy
  V  V0  1  0.49790426  0.75046385  0.75017655  1
  V  V1  1  0.75091592  0.24892602  0.50036297  1
  V  V2  1  0.50493049  0.12379811  0.12701167  1
  V  V3  1  0.75084658  0.37491198  0.12345130  1
  V  V4  1  0.37670980  0.37455559  0.00228459  1
  V  V5  1  0.25029851  0.00404314  0.25540246  1
  V  V6  1  0.37564958  0.50093101  0.37538430  1
  V  V7  1  0.49657713  0.62716517  0.62624683  1
  V  V8  1  0.24241024  -0.00050558  0.74467090  1
  V  V9  1  0.62528729  0.50006427  0.62524099  1
  V  V10  1  0.00003963  0.74956614  0.74962671  1
  V  V11  1  0.87210580  0.74884416  0.62076818  1
  V  V12  1  0.87491902  0.12448557  0.25040578  1
  V  V13  1  0.00250119  -0.00329255  0.50155376  1
  V  V14  1  0.50058825  0.50072027  0.00029861  1
  V  V15  1  0.50071368  0.24987327  0.25160694  1
  V  V16  1  0.12657133  0.37444130  0.24907922  1
  V  V17  1  0.62581285  0.50141638  0.12604949  1
  V  V18  1  0.50020495  0.87755303  0.87516640  1
  V  V19  1  -0.00010998  0.87200281  0.37314784  1
  V  V20  1  0.24976557  0.87545112  0.12448667  1
  V  V21  1  0.37238008  0.00861945  0.87492306  1
  V  V22  1  -0.00061884  0.62342658  0.62380147  1
  V  V23  1  0.75100080  0.37296750  0.62556326  1
  V  V24  1  0.75073653  0.62568596  0.87388123  1
  V  V25  1  0.00050409  0.74957458  0.24884491  1
  V  V26  1  0.49935285  0.62690152  0.12548305  1
  V  V27  1  0.87453598  0.62363427  0.24914318  1
  V  V28  1  0.74837035  0.86893966  0.61870691  1
  V  V29  1  0.37464445  0.37384442  0.50064148  1
  V  V30  1  0.00053847  0.62491448  0.12346204  1
  V  V31  1  0.74992732  0.12999834  0.87750701  1
  V  V32  1  0.62775985  0.25084768  0.87849615  1
  V  V33  1  0.12705460  0.24613295  0.37379495  1
  V  V34  1  0.75040847  0.12409808  0.37570003  1
  V  V35  1  0.37560831  0.62687203  0.24929950  1
  V  V36  1  0.12571825  0.75289536  0.87264014  1
  V  V37  1  0.37681433  0.25148161  0.12619267  1
  V  V38  1  0.25039955  0.62415174  0.37458493  1
  V  V39  1  0.12634604  0.49931801  0.12562332  1
  V  V40  1  0.25009728  0.24546834  0.49584808  1
  V  V41  1  0.12666813  0.12019486  0.49696720  1
  V  V42  1  0.50010727  0.50009894  0.50091547  1
  V  V43  1  0.12612368  0.62580031  -0.00182485  1
  V  V44  1  0.62807485  0.12819344  0.00414824  1
  V  V45  1  0.87326678  -0.00130313  0.37382202  1
  V  V46  1  0.25000166  0.50078112  0.75135578  1
  V  V47  1  0.37447583  0.87656130  0.00109719  1
  V  V48  1  0.87428020  0.12331753  0.74906473  1
  V  V49  1  0.00393306  0.36936171  0.87492220  1
  V  V50  1  0.00063420  0.24845057  0.25002036  1
  V  V51  1  0.49992274  0.25061098  0.75109747  1
  V  V52  1  0.87246286  0.86947056  0.49913114  1
  V  V53  1  0.62709046  0.24940075  0.37576022  1
  V  V54  1  0.62468185  0.75184457  0.87529295  1
  V  V55  1  0.62407421  0.87508535  0.74874096  1
  V  V56  1  0.62616529  0.37551745  0.75163834  1
  V  V57  1  0.62359467  -0.00048371  0.62330529  1
  V  V58  1  0.00111795  0.49822941  -0.00115451  1
  V  V59  1  0.49633814  0.87742761  0.37682026  1
  V  V60  1  0.50134997  0.37535839  0.37638471  1
  V  V61  1  0.00128933  0.49843881  0.49973805  1
  V  V62  1  0.63108100  0.75121744  0.37740175  1
  V  V63  1  0.75107004  0.50043505  0.75026883  1
  V  V64  1  0.00381732  0.11783854  0.62381995  1
  V  V65  1  0.87589030  0.49884682  0.37451887  1
  V  V66  1  0.50237694  0.37618581  0.87613781  1
  V  V67  1  0.75036202  0.50191280  0.25184490  1
  V  V68  1  0.12316918  0.00294322  0.12076861  1
  V  V69  1  0.25279618  0.74979110  0.50159846  1
  V  V70  1  0.37222147  0.12525536  0.25734978  1
  V  V71  1  0.74541903  0.88189037  0.12533478  1
  V  V72  1  0.87436415  -0.00185307  0.87489145  1
  V  V73  1  0.00217780  0.24773902  0.75069339  1
  V  V74  1  0.37518333  0.50097916  0.87521790  1
  V  V75  1  0.62409986  0.88092018  0.24693315  1
  V  V76  1  0.87478142  0.62429202  0.74922984  1
  V  V77  1  0.87376013  0.87518808  -0.00157088  1
  V  V78  1  0.50058486  0.12584397  0.62762177  1
  V  V79  1  0.62538133  0.62593807  0.00071003  1
  V  V80  1  0.50618740  0.00161380  0.00584434  1
  V  V81  1  0.62571564  0.37612660  0.25049006  1
  V  V82  1  0.12519409  0.62312517  0.49882668  1
  V  V83  1  0.12626573  0.36736380  0.75315200  1
  V  V84  1  0.24400058  0.24574752  -0.00317724  1
  V  V85  1  0.87447673  0.74949920  0.12358151  1
  V  V86  1  0.87140341  0.24953990  0.12357622  1
  V  V87  1  0.87478212  0.24795800  0.62416386  1
  V  V88  1  0.74958344  0.74997302  0.00011041  1
  V  V89  1  0.00114792  0.37374841  0.37613388  1
  V  V90  1  0.63097471  0.62974356  0.49938055  1
  V  V91  1  0.87100838  0.37110346  -0.00126902  1
  V  V92  1  0.25018939  0.37339452  0.62511541  1
  Zn  Zn93  1  0.23483009  0.13254814  0.86737582  1
  Zn  Zn94  1  0.12394097  0.49848014  0.62581718  1
  Zn  Zn95  1  0.11878128  0.88033059  0.74103168  1
  Zn  Zn96  1  0.24416526  0.87974121  0.62012119  1
  Zn  Zn97  1  0.37307148  0.87907139  0.50324591  1
  Zn  Zn98  1  0.25143141  0.62731223  0.87535851  1
  Zn  Zn99  1  0.75389382  0.62902267  0.37938724  1
  Zn  Zn100  1  0.37208035  0.12849137  0.75140273  1
  Zn  Zn101  1  0.25014232  0.74938365  -0.00189839  1
  Zn  Zn102  1  0.74926534  -0.00074803  0.74822376  1
  Zn  Zn103  1  0.62462134  0.12381927  0.49932779  1
  Zn  Zn104  1  0.00011076  0.87527219  0.87443680  1
  Zn  Zn105  1  0.37447075  0.74981847  0.12388711  1
  Zn  Zn106  1  -0.00140357  0.12324480  0.12392173  1
  Zn  Zn107  1  0.12592637  0.74820937  0.37259261  1
  Zn  Zn108  1  0.74680203  0.00259726  0.24738040  1
  Zn  Zn109  1  0.87592546  0.49953309  0.87459698  1
  Zn  Zn110  1  0.37242410  0.75655083  0.62824822  1
  Zn  Zn111  1  0.50019616  0.75242813  0.24848987  1
  Zn  Zn112  1  0.37253736  0.62777084  0.75181126  1
  Zn  Zn113  1  0.12532389  0.87459819  0.24855902  1
  Zn  Zn114  1  0.49337544  0.00233437  0.50079260  1
  Zn  Zn115  1  0.25081334  0.37525249  0.12591640  1
  Zn  Zn116  1  0.37052423  0.00257872  0.37855168  1
  Zn  Zn117  1  0.87673513  0.37411497  0.50063344  1
  Zn  Zn118  1  0.37545643  0.24937032  0.62682366  1
  Zn  Zn119  1  0.25043971  0.49837775  0.24887213  1
  Zn  Zn120  1  0.11491748  0.12985187  -0.00505765  1
  Zn  Zn121  1  -0.00035971  0.00053436  0.00008082  1
  Zn  Zn122  1  0.18929803  0.18695154  0.18261661  1
  Zn  Zn123  1  0.18861527  0.18454146  0.68344584  1
  Zn  Zn124  1  0.18785200  0.68876569  0.18700453  1
  Zn  Zn125  1  0.18432422  0.68745309  0.68512483  1
  Zn  Zn126  1  0.68941264  0.18788121  0.18835842  1
  Zn  Zn127  1  0.68711099  0.18698293  0.69064898  1
  Zn  Zn128  1  0.68726115  0.69170665  0.19020249  1
  Zn  Zn129  1  0.68576127  0.68830092  0.68728225  1
  Zn  Zn130  1  0.31214290  0.31310073  0.31344651  1
  Zn  Zn131  1  0.31530688  0.31350813  0.81494678  1
  Zn  Zn132  1  0.31131444  0.81216533  0.31294868  1
  Zn  Zn133  1  0.31246606  0.81634259  0.81234038  1
  Zn  Zn134  1  0.81355851  0.31290160  0.31208211  1
  Zn  Zn135  1  0.81551287  0.31092829  0.81214862  1
  Zn  Zn136  1  0.81140033  0.81184914  0.30961889  1
  Zn  Zn137  1  0.81084071  0.81235484  0.80759857  1
  Zn  Zn138  1  0.18797303  0.43635716  0.43613071  1
  Zn  Zn139  1  0.18913656  0.43431911  0.93857191  1
  Zn  Zn140  1  0.18479957  0.93498622  0.43840450  1
  Zn  Zn141  1  0.18773060  0.94022404  0.93337005  1
  Zn  Zn142  1  0.68937643  0.43838789  0.43914188  1
  Zn  Zn143  1  0.68939639  0.43981317  0.93795269  1
  Zn  Zn144  1  0.68512727  0.93769130  0.43711287  1
  Zn  Zn145  1  0.68903997  0.94040785  0.93731507  1
  Zn  Zn146  1  0.31516025  0.06477928  0.06788326  1
  Zn  Zn147  1  0.31501223  0.06409176  0.56314090  1
  Zn  Zn148  1  0.31039552  0.56196327  0.06260636  1
  Zn  Zn149  1  0.31118975  0.56198752  0.56325554  1
  Zn  Zn150  1  0.81259006  0.06360984  0.06072199  1
  Zn  Zn151  1  0.81273373  0.05843315  0.56024196  1
  Zn  Zn152  1  0.81370260  0.55981471  0.06141887  1
  Zn  Zn153  1  0.81429058  0.55959727  0.56236203  1
  Zn  Zn154  1  0.43852081  0.43941527  0.18828442  1
  Zn  Zn155  1  0.43627462  0.43721453  0.68742443  1
  Zn  Zn156  1  0.43710936  0.93952894  0.18970759  1
  Zn  Zn157  1  0.43094958  0.93781640  0.68717661  1
  Zn  Zn158  1  0.93991538  0.43657980  0.18775711  1
  Zn  Zn159  1  0.93748135  0.43684962  0.68706115  1
  Zn  Zn160  1  0.93511906  0.93703884  0.18698451  1
  Zn  Zn161  1  0.93610675  0.93527098  0.68829676  1
  Zn  Zn162  1  0.06272521  0.06080396  0.31140263  1
  Zn  Zn163  1  0.06176055  0.06518076  0.81630063  1
  Zn  Zn164  1  0.06305123  0.56143375  0.31210629  1
  Zn  Zn165  1  0.06358821  0.56079860  0.81336064  1
  Zn  Zn166  1  0.56166202  0.06148696  0.31404723  1
  Zn  Zn167  1  0.56260386  0.06224168  0.81311892  1
  Zn  Zn168  1  0.56189376  0.56468955  0.31360109  1
  Zn  Zn169  1  0.56325361  0.56376687  0.81249860  1
  Zn  Zn170  1  0.43987543  0.18794697  0.44085557  1
  Zn  Zn171  1  0.43893421  0.19002850  0.93973108  1
  Zn  Zn172  1  0.43983422  0.69131463  0.43654584  1
  Zn  Zn173  1  0.43684060  0.68779145  0.93614786  1
  Zn  Zn174  1  0.93800092  0.18663024  0.43748091  1
  Zn  Zn175  1  0.93864267  0.18608825  0.93843122  1
  Zn  Zn176  1  0.93725146  0.68639699  0.43755518  1
  Zn  Zn177  1  0.93851740  0.68769352  0.93581331  1
  Zn  Zn178  1  0.06001435  0.31357353  0.06502662  1
  Zn  Zn179  1  0.06432421  0.31005668  0.56442729  1
  Zn  Zn180  1  0.06186892  0.81517967  0.05900321  1
  Zn  Zn181  1  0.06638734  0.81041277  0.56382090  1
  Zn  Zn182  1  0.56373053  0.31113719  0.06364530  1
  Zn  Zn183  1  0.56479901  0.31099524  0.56298439  1
  Zn  Zn184  1  0.56128355  0.81193834  0.06402619  1
  Zn  Zn185  1  0.55990400  0.81193245  0.55984739  1
  O  O186  1  0.12344694  0.11452349  0.12011125  1
  O  O187  1  0.11107619  0.13092432  0.61288239  1
  O  O188  1  0.11907622  0.62057251  0.11881024  1
  O  O189  1  0.11649995  0.62075493  0.61740632  1
  O  O190  1  0.62117886  0.13185705  0.11431296  1
  O  O191  1  0.61847647  0.11593671  0.62706523  1
  O  O192  1  0.62084320  0.62116415  0.12035836  1
  O  O193  1  0.61674632  0.62099591  0.61885132  1
  O  O194  1  0.38227683  0.38028500  0.38055104  1
  O  O195  1  0.38410932  0.38173570  0.88215520  1
  O  O196  1  0.38727710  0.87547081  0.37257462  1
  O  O197  1  0.38015733  0.88625188  0.88431214  1
  O  O198  1  0.88321774  0.38053391  0.37571490  1
  O  O199  1  0.88201816  0.37600827  0.88277651  1
  O  O200  1  0.88124305  0.87730657  0.37856414  1
  O  O201  1  0.86856576  0.88361452  0.87929558  1
  O  O202  1  0.24873185  -0.00875241  0.35812353  1
  O  O203  1  0.25973605  0.00535718  0.86866663  1
  O  O204  1  0.25877613  0.50596422  0.37392268  1
  O  O205  1  0.25589545  0.49778824  0.86579138  1
  O  O206  1  0.75655453  0.00554212  0.37511742  1
  O  O207  1  0.75723715  0.01006907  0.87177020  1
  O  O208  1  0.75692668  0.50126189  0.36857657  1
  O  O209  1  0.75131920  0.50799507  0.86793985  1
  O  O210  1  0.24150498  0.49604951  0.12715000  1
  O  O211  1  0.24983477  0.49230853  0.63516321  1
  O  O212  1  0.24435945  0.99319181  0.13176020  1
  O  O213  1  0.25583435  1.00423722  0.64286716  1
  O  O214  1  0.74443732  0.49532809  0.13127673  1
  O  O215  1  0.74449147  0.49367548  0.63083047  1
  O  O216  1  0.75466655  0.98516017  0.12490559  1
  O  O217  1  0.74055489  0.99094245  0.62615232  1
  O  O218  1  0.00637690  0.36821322  0.25627060  1
  O  O219  1  0.00706279  0.36990643  0.75567075  1
  O  O220  1  -0.00243421  0.86836165  0.25837225  1
  O  O221  1  -0.00099115  0.86510390  0.75313827  1
  O  O222  1  0.50609942  0.37039631  0.25655507  1
  O  O223  1  0.50736309  0.37229773  0.75629153  1
  O  O224  1  0.50737470  0.87502736  0.25601876  1
  O  O225  1  0.50431939  0.87052807  0.75586789  1
  O  O226  1  0.49553377  0.13043743  0.24571281  1
  O  O227  1  0.50132689  0.13215247  0.74310477  1
  O  O228  1  0.49127364  0.62547384  0.24436963  1
  O  O229  1  0.50166371  0.63062155  0.74099409  1
  O  O230  1  0.99241090  0.13098517  0.24793160  1
  O  O231  1  0.99503752  0.12772676  0.74115249  1
  O  O232  1  0.99413164  0.62919238  0.24296766  1
  O  O233  1  0.99429361  0.62811272  0.74422432  1
  O  O234  1  0.37247434  0.25620067  0.00790172  1
  O  O235  1  0.36604277  0.25497210  0.50057757  1
  O  O236  1  0.37469719  0.76580745  -0.00172444  1
  O  O237  1  0.36364400  0.74961063  0.50059462  1
  O  O238  1  0.88055208  0.26189291  0.01014317  1
  O  O239  1  0.86896542  0.25067975  0.50627115  1
  O  O240  1  0.86844761  0.75436244  0.00375414  1
  O  O241  1  0.88015006  0.75679014  0.50822550  1
  O  O242  1  0.13143762  0.24249812  0.49440968  1
  O  O243  1  0.14151800  0.25229701  1.00898387  1
  O  O244  1  0.13395782  0.73996523  0.49583469  1
  O  O245  1  0.12458789  0.74515200  0.98952445  1
  O  O246  1  0.63301338  0.24902504  0.49293945  1
  O  O247  1  0.61849179  0.23794750  0.99268953  1
  O  O248  1  0.61925028  0.73947993  0.49110999  1
  O  O249  1  0.62972693  0.74527546  0.99449258  1
  O  O250  1  0.49664371  0.24504923  0.13320741  1
  O  O251  1  0.50336349  0.24205993  0.63266465  1
  O  O252  1  0.49522206  0.74228387  0.12686004  1
  O  O253  1  0.49995870  0.74128607  0.63090796  1
  O  O254  1  0.98753419  0.25052507  0.13222006  1
  O  O255  1  0.99404270  0.23971932  0.62990342  1
  O  O256  1  0.99407643  0.74496483  0.12818901  1
  O  O257  1  0.99276762  0.74196500  0.63024184  1
  O  O258  1  0.00593527  0.25429338  0.36953348  1
  O  O259  1  -0.00791065  0.26198810  0.86731423  1
  O  O260  1  -0.00149791  0.75799332  0.36798453  1
  O  O261  1  0.00816075  0.74990065  0.86795701  1
  O  O262  1  0.50683498  0.25633254  0.37095239  1
  O  O263  1  0.50679235  0.25747728  0.87097648  1
  O  O264  1  0.51036465  0.75968837  0.37211845  1
  O  O265  1  0.50600669  0.75741696  0.87128442  1
  O  O266  1  0.23864376  0.13486057  0.50938858  1
  O  O267  1  0.25411360  0.14063822  1.00420723  1
  O  O268  1  0.24583931  0.62921724  0.49406541  1
  O  O269  1  0.24214888  0.62862822  0.99752613  1
  O  O270  1  0.74865077  0.13075015  0.49378525  1
  O  O271  1  0.73910649  0.11856993  0.98968900  1
  O  O272  1  0.73468414  0.61760412  0.50008582  1
  O  O273  1  0.74515748  0.62979685  0.99515648  1
  O  O274  1  0.25835674  0.36429641  0.00185115  1
  O  O275  1  0.25436104  0.36699488  0.50497426  1
  O  O276  1  0.26000371  0.87922072  0.00772309  1
  O  O277  1  0.24971388  0.86182195  0.49658825  1
  O  O278  1  0.76246886  0.38250150  0.00659260  1
  O  O279  1  0.75190133  0.36826211  0.50822033  1
  O  O280  1  0.75170206  0.86921168  0.00672607  1
  O  O281  1  0.75536808  0.87974499  0.51130484  1
  O  O282  1  0.12540543  0.49309536  0.24331458  1
  O  O283  1  0.13448213  0.48859318  0.74990143  1
  O  O284  1  0.13331201  0.99935905  0.24021036  1
  O  O285  1  0.13969958  1.00130805  0.75718356  1
  O  O286  1  0.62921376  0.49559887  0.24537263  1
  O  O287  1  0.63097374  0.49519286  0.74502670  1
  O  O288  1  0.62763084  0.98526548  0.25475306  1
  O  O289  1  0.62458029  0.99315546  0.74014226  1
  O  O290  1  0.36740180  0.00969228  0.25029437  1
  O  O291  1  0.36801121  0.00322142  0.76214766  1
  O  O292  1  0.37583464  0.51073635  0.25624788  1
  O  O293  1  0.36538969  0.49832306  0.75642917  1
  O  O294  1  0.87208547  0.00613028  0.25637916  1
  O  O295  1  0.87194987  0.00527248  0.75823928  1
  O  O296  1  0.87106265  0.50443956  0.25406866  1
  O  O297  1  0.86821422  0.50625433  0.75040065  1
  O  O298  1  0.12007078  0.36722476  0.36895479  1
  O  O299  1  0.11464472  0.37759954  0.86583378  1
  O  O300  1  0.10939082  0.87286644  0.37192479  1
  O  O301  1  0.12241102  0.86428309  0.87170272  1
  O  O302  1  0.62081830  0.37054173  0.36988125  1
  O  O303  1  0.62209919  0.37133993  0.87178977  1
  O  O304  1  0.61858295  0.86886019  0.36896884  1
  O  O305  1  0.62039061  0.87158752  0.87025038  1
  O  O306  1  0.38519636  0.13158212  0.13565934  1
  O  O307  1  0.38963385  0.12779228  0.62859091  1
  O  O308  1  0.38000750  0.62494696  0.13294061  1
  O  O309  1  0.38910754  0.62410596  0.62644511  1
  O  O310  1  0.87159294  0.13456213  0.13055017  1
  O  O311  1  0.88204089  0.12824586  0.62876615  1
  O  O312  1  0.88069174  0.62944623  0.12841289  1
  O  O313  1  0.87885782  0.62922087  0.62940648  1
  O  O314  1  0.26000414  0.25344171  0.11610680  1
  O  O315  1  0.25135538  0.25591709  0.61371109  1
  O  O316  1  0.25210439  0.76354035  0.12150390  1
  O  O317  1  0.25236617  0.74439316  0.61209700  1
  O  O318  1  0.76371114  0.25893338  0.13264670  1
  O  O319  1  0.75424753  0.25328001  0.62134834  1
  O  O320  1  0.75552304  0.75718560  0.11880425  1
  O  O321  1  0.75463699  0.76087010  0.62947668  1
  O  O322  1  0.24439436  0.25445916  0.38848524  1
  O  O323  1  0.25870809  0.24943194  0.89279280  1
  O  O324  1  0.24821439  0.74236826  0.38245950  1
  O  O325  1  0.23946419  0.74952329  0.87515446  1
  O  O326  1  0.74638984  0.24491423  0.37956347  1
  O  O327  1  0.74566716  0.23744025  0.87049187  1
  O  O328  1  0.73612072  0.74886469  0.37144476  1
  O  O329  1  0.74393566  0.74550233  0.87971296  1
  O  O330  1  -0.00234688  0.11894411  0.00696767  1
  O  O331  1  0.00552150  0.11854763  0.50621733  1
  O  O332  1  0.00478566  0.61862564  0.00449570  1
  O  O333  1  0.00518284  0.61816063  0.50401076  1
  O  O334  1  0.50791150  0.11913704  0.00587496  1
  O  O335  1  0.50474964  0.12534448  0.51325453  1
  O  O336  1  0.50598819  0.62018309  0.00456093  1
  O  O337  1  0.50802543  0.62007351  0.50800929  1
  O  O338  1  0.49591067  0.37963095  0.49597035  1
  O  O339  1  0.49802105  0.38165043  0.99566125  1
  O  O340  1  0.49751633  0.87698012  0.48898064  1
  O  O341  1  0.49483840  0.88379941  0.99684116  1
  O  O342  1  1.00097906  0.37937877  0.49418646  1
  O  O343  1  0.99373399  0.37769692  0.99203937  1
  O  O344  1  0.99413933  0.87716087  0.49125833  1
  O  O345  1  0.98821841  0.87849450  0.99562161  1
  O  O346  1  0.49592527  0.49456999  0.38142851  1
  O  O347  1  0.49734704  0.49552163  0.88102262  1
  O  O348  1  0.49905677  0.98908520  0.37753079  1
  O  O349  1  0.49282013  0.99661308  0.88397839  1
  O  O350  1  0.99528767  0.49345369  0.37974997  1
  O  O351  1  0.99780188  0.48762984  0.87943207  1
  O  O352  1  0.99335123  0.98984022  0.37883433  1
  O  O353  1  0.98343062  0.99818324  0.87428107  1
  O  O354  1  0.01109714  -0.00159714  0.12580257  1
  O  O355  1  -0.00827496  0.01081496  0.61851020  1
  O  O356  1  0.00588878  0.50539251  0.11887303  1
  O  O357  1  -0.00004427  0.50566866  0.61825386  1
  O  O358  1  0.49451701  0.00657696  0.11243745  1
  O  O359  1  0.50779768  0.00802440  0.62753027  1
  O  O360  1  0.50708783  0.50622599  0.11949839  1
  O  O361  1  0.50599337  0.50732885  0.62163421  1
  O  O362  1  0.24244124  0.37669062  0.24811704  1
  O  O363  1  0.24366401  0.37907294  0.74736807  1
  O  O364  1  0.25139253  0.88294390  0.23888638  1
  O  O365  1  0.24969302  0.89239027  0.75250064  1
  O  O366  1  0.74456110  0.38192432  0.24459049  1
  O  O367  1  0.74530103  0.37937782  0.74597128  1
  O  O368  1  0.74250538  0.87546871  0.24095663  1
  O  O369  1  0.74220940  0.87671218  0.73796838  1
  O  O370  1  0.26150244  0.11637885  0.24186710  1
  O  O371  1  0.25294019  0.11715161  0.75143568  1
  O  O372  1  0.25964718  0.62358066  0.25476641  1
  O  O373  1  0.24995501  0.61116729  0.74972824  1
  O  O374  1  0.75614640  0.12318460  0.25716390  1
  O  O375  1  0.75544450  0.12223142  0.75960489  1
  O  O376  1  0.75678690  0.61891529  0.25047443  1
  O  O377  1  0.75407540  0.62059414  0.75402084  1
  O  O378  1  0.38265865  0.12590003  0.36057040  1
  O  O379  1  0.37676563  0.11561524  0.87634964  1
  O  O380  1  0.37280479  0.62027164  0.36791782  1
  O  O381  1  0.37297491  0.61662077  0.87273264  1
  O  O382  1  0.87036577  0.11929655  0.37004431  1
  O  O383  1  0.86723956  0.11889652  0.87100472  1
  O  O384  1  0.87401918  0.61811390  0.36785560  1
  O  O385  1  0.86826500  0.62378980  0.86803943  1
  O  O386  1  0.12392392  0.38189135  0.13239041  1
  O  O387  1  0.13050682  0.37658565  0.63561491  1
  O  O388  1  0.13453286  0.88268500  0.12454595  1
  O  O389  1  0.13086201  0.87279001  0.62868374  1
  O  O390  1  0.62990260  0.38083112  0.13036330  1
  O  O391  1  0.63053308  0.38059165  0.63181965  1
  O  O392  1  0.63423146  0.86694364  0.13439082  1
  O  O393  1  0.62949818  0.87982682  0.62780834  1
  O  O394  1  0.12101359  0.25255421  0.25366902  1
  O  O395  1  0.12012304  0.26085811  0.74412080  1
  O  O396  1  0.11635126  0.75303691  0.25148129  1
  O  O397  1  0.11816609  0.74731625  0.75926946  1
  O  O398  1  0.62051325  0.25673605  0.25568932  1
  O  O399  1  0.62042723  0.25723523  0.75812537  1
  O  O400  1  0.62215950  0.76015088  0.25901429  1
  O  O401  1  0.61847489  0.75545034  0.75652140  1
  O  O402  1  0.38076656  0.24422574  0.24704131  1
  O  O403  1  0.38423432  0.24935982  0.74858190  1
  O  O404  1  0.37663589  0.73703663  0.24877415  1
  O  O405  1  0.38237682  0.74758874  0.75027431  1
  O  O406  1  0.88083205  0.24529578  0.24343126  1
  O  O407  1  0.88152093  0.24232865  0.74378647  1
  O  O408  1  0.87987451  0.74331698  0.24294777  1
  O  O409  1  0.87953237  0.74308770  0.74264996  1
  O  O410  1  0.38090806  0.49442664  0.49527066  1
  O  O411  1  0.38172455  0.49488907  0.99570287  1
  O  O412  1  0.37494963  0.99850868  0.49377509  1
  O  O413  1  0.38277015  0.99476204  0.99478124  1
  O  O414  1  0.88256480  0.49726071  0.49288426  1
  O  O415  1  0.88292813  0.48858381  0.99980694  1
  O  O416  1  0.88214893  0.99076287  0.49317518  1
  O  O417  1  0.87147497  0.99348548  0.98949490  1
  O  O418  1  0.12486519  -0.00133176  0.01142414  1
  O  O419  1  0.11813533  0.01101401  0.49287025  1
  O  O420  1  0.11983792  0.50407699  0.00440913  1
  O  O421  1  0.11935448  0.50488594  0.50127069  1
  O  O422  1  0.61363354  0.01129424  -0.00747922  1
  O  O423  1  0.62087707  0.00078689  0.51366304  1
  O  O424  1  0.62078221  0.50658226  0.00616849  1
  O  O425  1  0.61855897  0.50686579  0.50545073  1
  O  O426  1  0.37760055  0.36975217  0.12009148  1
  O  O427  1  0.36975761  0.37263104  0.61764670  1
  O  O428  1  0.36768170  0.87768352  0.11639726  1
  O  O429  1  0.36516604  0.87294338  0.62131278  1
  O  O430  1  0.87190511  0.36920475  0.11863540  1
  O  O431  1  0.86871368  0.36621770  0.62530368  1
  O  O432  1  0.86590075  0.86826883  0.11936448  1
  O  O433  1  0.86624830  0.86964792  0.61964414  1
  O  O434  1  0.11729672  0.13162168  0.38729506  1
  O  O435  1  0.12418728  0.12574663  0.88347649  1
  O  O436  1  0.13195230  0.62420786  0.38062050  1
  O  O437  1  0.12570890  0.63362726  0.88047567  1
  O  O438  1  0.63134055  0.13176670  0.37556318  1
  O  O439  1  0.63174633  0.13004136  0.88134271  1
  O  O440  1  0.62463605  0.63319347  0.38280883  1
  O  O441  1  0.63018480  0.63175260  0.88101135  1
