# generated using pymatgen
data_V93Zn93O256
_symmetry_space_group_name_H-M   'P 1'
_cell_length_a   17.06190069
_cell_length_b   17.05748493
_cell_length_c   17.05597611
_cell_angle_alpha   90.01500902
_cell_angle_beta   89.92623491
_cell_angle_gamma   90.01481126
_symmetry_Int_Tables_number   1
_chemical_formula_structural   V93Zn93O256
_chemical_formula_sum   'V93 Zn93 O256'
_cell_volume   4963.84938664
_cell_formula_units_Z   1
loop_
 _symmetry_equiv_pos_site_id
 _symmetry_equiv_pos_as_xyz
  1  'x, y, z'
loop_
 _atom_site_type_symbol
 _atom_site_label
 _atom_site_symmetry_multiplicity
 _atom_site_fract_x
 _atom_site_fract_y
 _atom_site_fract_z
 _atom_site_occupancy
  V  V0  1  0.37426925  0.75476910  0.61823778  1
  V  V1  1  0.75035609  0.12515062  0.87742863  1
  V  V2  1  0.87821099  0.24977070  0.12582085  1
  V  V3  1  0.24977808  0.00077361  0.74996321  1
  V  V4  1  -0.00080406  0.75010389  0.75060277  1
  V  V5  1  0.12381558  -0.00024418  0.12493219  1
  V  V6  1  0.24869739  0.87421089  0.12517911  1
  V  V7  1  0.50148938  0.49979141  0.49982611  1
  V  V8  1  0.87554339  0.74956802  0.62451035  1
  V  V9  1  0.50093536  0.37404409  0.87461087  1
  V  V10  1  0.62523759  0.49913632  0.12515726  1
  V  V11  1  0.74987444  0.87584116  0.62509972  1
  V  V12  1  0.37377623  0.37494472  0.00145882  1
  V  V13  1  0.12370237  0.87588382  0.25039918  1
  V  V14  1  0.50269406  0.25228297  0.75116593  1
  V  V15  1  0.37477814  0.12269818  0.25564689  1
  V  V16  1  0.24923706  0.24790855  0.50238754  1
  V  V17  1  0.25234597  0.37590313  0.62600709  1
  V  V18  1  0.74991396  0.75027224  0.50007890  1
  V  V19  1  -0.00021486  0.87508390  0.87460204  1
  V  V20  1  0.74913878  0.24843169  -0.00091940  1
  V  V21  1  0.62974578  0.50027825  0.63234782  1
  V  V22  1  0.87407263  0.62823184  0.24755852  1
  V  V23  1  0.62756281  0.12439382  0.49253252  1
  V  V24  1  0.87543869  0.12614681  0.75073329  1
  V  V25  1  0.24835246  0.74905314  -0.00131321  1
  V  V26  1  0.00066550  0.12503750  0.62502506  1
  V  V27  1  0.87388639  0.87580543  -0.00010518  1
  V  V28  1  0.24913231  0.00120384  0.25119744  1
  V  V29  1  0.74907846  0.62675623  0.37507186  1
  V  V30  1  0.12468152  0.00127180  0.62629113  1
  V  V31  1  0.00093239  0.62605014  0.62399746  1
  V  V32  1  0.49899631  0.49924540  0.00058867  1
  V  V33  1  0.49882104  0.62269919  0.12452939  1
  V  V34  1  0.87492639  0.00073494  0.87771929  1
  V  V35  1  0.49804849  0.87461088  0.87428839  1
  V  V36  1  0.12552855  0.62385639  0.00030362  1
  V  V37  1  0.49756035  -0.00018889  -0.00051293  1
  V  V38  1  0.37470593  0.25035976  0.12640807  1
  V  V39  1  0.00836922  0.25664177  0.25223476  1
  V  V40  1  0.37605925  0.12545023  0.75127486  1
  V  V41  1  0.61991222  -0.00328964  0.12248117  1
  V  V42  1  0.49225682  0.87525556  0.38158691  1
  V  V43  1  0.87052787  0.50118473  0.87000357  1
  V  V44  1  0.12625603  0.62664938  0.50058912  1
  V  V45  1  -0.00133901  -0.00000050  0.00058267  1
  V  V46  1  0.74757806  0.87192307  0.12392787  1
  V  V47  1  0.75082921  0.37919392  0.63080271  1
  V  V48  1  0.87585958  0.87601936  0.49924638  1
  V  V49  1  0.37459159  0.49969374  0.87519393  1
  V  V50  1  -0.00040801  0.87851970  0.37593911  1
  V  V51  1  0.62627892  0.62472774  0.49951091  1
  V  V52  1  0.12571070  0.75015626  0.37543506  1
  V  V53  1  0.88271885  0.37569102  -0.00536780  1
  V  V54  1  0.49854462  0.75048589  0.75007660  1
  V  V55  1  0.24878414  0.62561492  0.87511105  1
  V  V56  1  0.37305296  0.00069599  0.87456961  1
  V  V57  1  0.12279067  0.37590671  0.75290504  1
  V  V58  1  0.12578077  0.50232512  0.62553730  1
  V  V59  1  0.12768200  0.49688623  0.13794890  1
  V  V60  1  0.24937152  0.50084235  0.75008335  1
  V  V61  1  0.87939865  0.37541981  0.49783102  1
  V  V62  1  0.24892170  0.25168167  0.00063947  1
  V  V63  1  0.49836592  0.74861403  0.24840333  1
  V  V64  1  0.00126598  0.25340254  0.75226137  1
  V  V65  1  0.00329657  0.49855092  -0.00521247  1
  V  V66  1  0.37332745  0.49884673  0.37220366  1
  V  V67  1  0.62336969  0.87235589  0.24965145  1
  V  V68  1  0.37693314  0.25165584  0.62722844  1
  V  V69  1  0.37286499  0.87486409  -0.00009312  1
  V  V70  1  0.87477482  0.49972193  0.37459916  1
  V  V71  1  0.49970868  0.62499217  0.62408440  1
  V  V72  1  0.12592716  0.12595919  -0.00079314  1
  V  V73  1  0.12021946  0.25623007  0.87628270  1
  V  V74  1  0.75078069  0.37645696  0.12557896  1
  V  V75  1  0.50537297  0.37248594  0.37483888  1
  V  V76  1  0.24973691  0.62070943  0.37161272  1
  V  V77  1  0.75033422  0.00041163  0.75029160  1
  V  V78  1  0.24776147  0.37897443  0.14044493  1
  V  V79  1  0.37215085  0.62136717  0.24964535  1
  V  V80  1  0.62393368  0.74945882  0.87368558  1
  V  V81  1  0.62534135  0.00116976  0.62588447  1
  V  V82  1  -0.00092624  0.00113188  0.50021163  1
  V  V83  1  0.87583398  0.25095506  0.62512791  1
  V  V84  1  0.37351810  0.62521947  0.74869088  1
  V  V85  1  0.00196379  0.12622406  0.12581884  1
  V  V86  1  0.49750962  0.12386535  0.12413486  1
  V  V87  1  0.37357259  0.74775502  0.12392721  1
  V  V88  1  0.25312696  0.87700395  0.61824892  1
  V  V89  1  0.74999312  0.74611926  -0.00552461  1
  V  V90  1  -0.00167167  0.75141989  0.24938098  1
  V  V91  1  0.75113363  0.24598599  0.49255466  1
  V  V92  1  0.50277194  0.12603951  0.62593638  1
  Zn  Zn93  1  0.62490826  0.62351628  -0.00140493  1
  Zn  Zn94  1  0.36583187  -0.00745561  0.38741898  1
  Zn  Zn95  1  0.62694122  0.37092261  0.25101281  1
  Zn  Zn96  1  0.62593890  0.25041269  0.87323459  1
  Zn  Zn97  1  0.25386822  0.75502487  0.49650319  1
  Zn  Zn98  1  0.74989413  0.50103868  0.24926734  1
  Zn  Zn99  1  0.12588104  0.87584606  0.75163538  1
  Zn  Zn100  1  0.00278059  0.50004607  0.49943969  1
  Zn  Zn101  1  0.86966038  0.12406193  0.25886260  1
  Zn  Zn102  1  0.74830879  0.00945103  0.25869703  1
  Zn  Zn103  1  0.24952475  0.12629941  0.87446115  1
  Zn  Zn104  1  0.63023672  0.37707977  0.75410583  1
  Zn  Zn105  1  0.37715497  0.37442285  0.50089389  1
  Zn  Zn106  1  0.62296212  0.74816207  0.37510869  1
  Zn  Zn107  1  0.86442210  0.00782976  0.37684393  1
  Zn  Zn108  1  0.01295319  0.38531443  0.36129940  1
  Zn  Zn109  1  0.62879122  0.24466956  0.37090126  1
  Zn  Zn110  1  0.62425302  0.87620639  0.74911791  1
  Zn  Zn111  1  0.13240827  0.25680563  0.37240758  1
  Zn  Zn112  1  0.87649181  0.74849333  0.12152516  1
  Zn  Zn113  1  0.74273151  0.61558973  0.86385524  1
  Zn  Zn114  1  0.86918946  0.61763388  0.74448576  1
  Zn  Zn115  1  0.00163043  0.62484588  0.12445194  1
  Zn  Zn116  1  0.50366534  0.24814247  0.25028266  1
  Zn  Zn117  1  0.12386081  0.75065511  0.87514813  1
  Zn  Zn118  1  0.49468804  -0.00236654  0.50519416  1
  Zn  Zn119  1  0.12292290  0.12721564  0.49622253  1
  Zn  Zn120  1  0.62214784  0.12489564  -0.00096383  1
  Zn  Zn121  1  0.24640282  0.12462654  0.37763901  1
  Zn  Zn122  1  0.19006804  0.18806305  0.18650917  1
  Zn  Zn123  1  0.18792366  0.18693039  0.68759130  1
  Zn  Zn124  1  0.18556990  0.68503444  0.18734498  1
  Zn  Zn125  1  0.18747954  0.69072209  0.68754226  1
  Zn  Zn126  1  0.68352429  0.18432531  0.18927866  1
  Zn  Zn127  1  0.68829116  0.18985518  0.68508513  1
  Zn  Zn128  1  0.68676118  0.68712976  0.18641622  1
  Zn  Zn129  1  0.68933334  0.68641198  0.68841424  1
  Zn  Zn130  1  0.31824789  0.30950419  0.31701109  1
  Zn  Zn131  1  0.31093085  0.31222715  0.81369563  1
  Zn  Zn132  1  0.31058955  0.80919777  0.31033116  1
  Zn  Zn133  1  0.31114275  0.81347067  0.80897798  1
  Zn  Zn134  1  0.81772531  0.31255409  0.31091811  1
  Zn  Zn135  1  0.81580643  0.31368881  0.81384754  1
  Zn  Zn136  1  0.81033136  0.81779021  0.31566511  1
  Zn  Zn137  1  0.81307561  0.81233121  0.81051991  1
  Zn  Zn138  1  0.18832999  0.43512297  0.43881684  1
  Zn  Zn139  1  0.18882575  0.43686903  0.94139735  1
  Zn  Zn140  1  0.18410467  0.94091860  0.43860433  1
  Zn  Zn141  1  0.18576845  0.93705715  0.93593015  1
  Zn  Zn142  1  0.68989685  0.43725288  0.44175315  1
  Zn  Zn143  1  0.68788853  0.43442266  0.93953551  1
  Zn  Zn144  1  0.68251106  0.93782252  0.43835598  1
  Zn  Zn145  1  0.68637193  0.93622633  0.93751826  1
  Zn  Zn146  1  0.31124800  0.06372626  0.06395153  1
  Zn  Zn147  1  0.31525182  0.06344159  0.56324739  1
  Zn  Zn148  1  0.30892942  0.55940743  0.06387624  1
  Zn  Zn149  1  0.31267657  0.56430302  0.55871261  1
  Zn  Zn150  1  0.79892811  0.07304588  0.08843077  1
  Zn  Zn151  1  0.81259670  0.06310497  0.56112818  1
  Zn  Zn152  1  0.81334341  0.56292200  0.05807794  1
  Zn  Zn153  1  0.81298914  0.56279257  0.56162900  1
  Zn  Zn154  1  0.43762406  0.43449559  0.19059242  1
  Zn  Zn155  1  0.43979118  0.43749475  0.68832260  1
  Zn  Zn156  1  0.43517151  0.93720553  0.18978714  1
  Zn  Zn157  1  0.43711600  0.93802113  0.68742412  1
  Zn  Zn158  1  0.93960380  0.44138081  0.18292625  1
  Zn  Zn159  1  0.94143576  0.43575659  0.68613419  1
  Zn  Zn160  1  0.93373312  0.93834209  0.18883633  1
  Zn  Zn161  1  0.93699171  0.93729422  0.68787503  1
  Zn  Zn162  1  0.06029645  0.06978863  0.31502850  1
  Zn  Zn163  1  0.06368489  0.06537922  0.81301098  1
  Zn  Zn164  1  0.05913214  0.56687848  0.31487544  1
  Zn  Zn165  1  0.05954729  0.56388266  0.81289329  1
  Zn  Zn166  1  0.55993720  0.05684453  0.31091492  1
  Zn  Zn167  1  0.56417109  0.06425093  0.81382928  1
  Zn  Zn168  1  0.56211680  0.56016505  0.31096281  1
  Zn  Zn169  1  0.55997286  0.56360160  0.81220145  1
  Zn  Zn170  1  0.43861657  0.18688184  0.44106298  1
  Zn  Zn171  1  0.43642995  0.18832496  0.93737202  1
  Zn  Zn172  1  0.43882567  0.68675094  0.43626057  1
  Zn  Zn173  1  0.43653516  0.68575586  0.93810373  1
  Zn  Zn174  1  0.93583690  0.18401414  0.43414090  1
  Zn  Zn175  1  0.93908273  0.18647286  0.93866528  1
  Zn  Zn176  1  0.93877348  0.68913916  0.43727072  1
  Zn  Zn177  1  0.93772715  0.68420537  0.93614767  1
  Zn  Zn178  1  0.06594762  0.31624950  0.06580792  1
  Zn  Zn179  1  0.06502096  0.31402117  0.56486729  1
  Zn  Zn180  1  0.06090131  0.81091556  0.06287599  1
  Zn  Zn181  1  0.06561347  0.81467980  0.56311647  1
  Zn  Zn182  1  0.56192448  0.31142100  0.06266741  1
  Zn  Zn183  1  0.56572821  0.31242743  0.56138965  1
  Zn  Zn184  1  0.56041585  0.81030808  0.05986145  1
  Zn  Zn185  1  0.56471740  0.81106829  0.56375400  1
  O  O186  1  0.12060680  0.11934415  0.11909569  1
  O  O187  1  0.11709630  0.11855388  0.62613841  1
  O  O188  1  0.12650340  0.61472780  0.11751700  1
  O  O189  1  0.12149215  0.62167333  0.62056848  1
  O  O190  1  0.61400555  0.11516388  0.12049032  1
  O  O191  1  0.62149489  0.11996278  0.61813561  1
  O  O192  1  0.61888727  0.61507961  0.12293592  1
  O  O193  1  0.61985998  0.61856732  0.61986938  1
  O  O194  1  0.38510205  0.38441037  0.37727154  1
  O  O195  1  0.37951730  0.38113411  0.88097436  1
  O  O196  1  0.38882550  0.87185057  0.36719449  1
  O  O197  1  0.37857990  0.87986591  0.88030257  1
  O  O198  1  0.87634320  0.38510138  0.38165704  1
  O  O199  1  0.87145063  0.38487990  0.88708668  1
  O  O200  1  0.88598869  0.87143565  0.38414209  1
  O  O201  1  0.87956347  0.88168830  0.88040907  1
  O  O202  1  0.24960514  0.00235803  0.36685186  1
  O  O203  1  0.25600269  0.00129482  0.86907255  1
  O  O204  1  0.26203259  0.50943949  0.38277490  1
  O  O205  1  0.25564997  0.50535081  0.87000818  1
  O  O206  1  0.75459769  -0.02568701  0.36486503  1
  O  O207  1  0.75544578  0.00474992  0.87134975  1
  O  O208  1  0.76025891  0.50564837  0.37366703  1
  O  O209  1  0.76579724  0.49934959  0.88468412  1
  O  O210  1  0.24055453  0.49071294  0.12234065  1
  O  O211  1  0.24632803  0.49735549  0.63110250  1
  O  O212  1  0.24336509  0.99339924  0.12992750  1
  O  O213  1  0.24610319  0.99408244  0.63068055  1
  O  O214  1  0.74309968  0.49190439  0.12054879  1
  O  O215  1  0.74111505  0.49115607  0.61723312  1
  O  O216  1  0.73839852  0.97845444  0.11447369  1
  O  O217  1  0.74565089  0.99567359  0.63092873  1
  O  O218  1  -0.00794580  0.36039780  0.24516233  1
  O  O219  1  0.01061745  0.36540502  0.74323941  1
  O  O220  1  0.00570158  0.87046531  0.25467352  1
  O  O221  1  -0.00006395  0.86693933  0.75587071  1
  O  O222  1  0.50339944  0.37234892  0.26135242  1
  O  O223  1  0.50149346  0.36949570  0.75760774  1
  O  O224  1  0.50658595  0.86826586  0.25358134  1
  O  O225  1  0.50012505  0.86783068  0.75718512  1
  O  O226  1  0.49074369  0.12242447  0.24289361  1
  O  O227  1  0.49575947  0.13197476  0.74623243  1
  O  O228  1  0.49340020  0.62892939  0.24375016  1
  O  O229  1  0.49279575  0.63063775  0.74357264  1
  O  O230  1  0.99652996  0.13859620  0.24070947  1
  O  O231  1  0.99366103  0.13208174  0.74525636  1
  O  O232  1  0.98834341  0.63284185  0.24992752  1
  O  O233  1  0.99525056  0.63394075  0.74374633  1
  O  O234  1  0.36908756  0.25550076  0.00648285  1
  O  O235  1  0.36774318  0.25076507  0.50994205  1
  O  O236  1  0.36862961  0.75484699  0.00486606  1
  O  O237  1  0.37456399  0.74315567  0.51473608  1
  O  O238  1  0.87120726  0.25853691  0.00478647  1
  O  O239  1  0.86970921  0.25739852  0.50510521  1
  O  O240  1  0.86551874  0.75528927  -0.00248736  1
  O  O241  1  0.87013692  0.75551731  0.50577662  1
  O  O242  1  0.13974680  0.24883843  0.50761709  1
  O  O243  1  0.12782111  0.24713127  0.99369367  1
  O  O244  1  0.12714686  0.74427553  0.49274552  1
  O  O245  1  0.13122610  0.74254337  0.99972398  1
  O  O246  1  0.63476123  0.24207609  0.49835775  1
  O  O247  1  0.63927608  0.25016678  1.00005939  1
  O  O248  1  0.63186809  0.74150116  0.49970883  1
  O  O249  1  0.63100097  0.74895351  0.98975640  1
  O  O250  1  0.49223979  0.24333111  0.12484521  1
  O  O251  1  0.49659584  0.24683605  0.63116743  1
  O  O252  1  0.49258017  0.74275667  0.12748694  1
  O  O253  1  0.49332797  0.74555581  0.62993771  1
  O  O254  1  0.99492530  0.24855884  0.13056023  1
  O  O255  1  0.99440693  0.24506806  0.63119081  1
  O  O256  1  0.99629277  0.74663380  0.13288749  1
  O  O257  1  0.99574714  0.74662363  0.63174930  1
  O  O258  1  -0.00516193  0.25266499  0.35613297  1
  O  O259  1  0.01203851  0.24526595  0.86956814  1
  O  O260  1  0.00699676  0.75628067  0.36903787  1
  O  O261  1  -0.00176949  0.75521507  0.86619787  1
  O  O262  1  0.50170979  0.26231782  0.37633598  1
  O  O263  1  0.50082755  0.25684795  0.87032567  1
  O  O264  1  0.50001029  0.75782443  0.36735564  1
  O  O265  1  0.50520406  0.75395202  0.87133940  1
  O  O266  1  0.24875778  0.13677373  0.50251308  1
  O  O267  1  0.24289031  0.13319058  1.00107141  1
  O  O268  1  0.24473483  0.62906432  0.48861072  1
  O  O269  1  0.24618222  0.62977419  0.99396520  1
  O  O270  1  0.74032845  0.13578165  0.50797116  1
  O  O271  1  0.75141314  0.13579661  0.99835903  1
  O  O272  1  0.74584316  0.63078766  0.49462270  1
  O  O273  1  0.74848749  0.63694932  0.99518301  1
  O  O274  1  0.25758835  0.36947073  0.00694559  1
  O  O275  1  0.25532360  0.36673368  0.50981662  1
  O  O276  1  0.25396922  0.86968183  0.00561303  1
  O  O277  1  0.24583315  0.87517228  0.51395402  1
  O  O278  1  0.75989410  0.36747202  0.00797270  1
  O  O279  1  0.76071288  0.36830460  0.50857867  1
  O  O280  1  0.75319093  0.86424760  0.00387074  1
  O  O281  1  0.75464622  0.86891325  0.50719352  1
  O  O282  1  0.11366576  0.50467154  0.23599430  1
  O  O283  1  0.13024009  0.49675839  0.74630628  1
  O  O284  1  0.12844851  0.99564180  0.24381653  1
  O  O285  1  0.13122543  1.00054578  0.74432236  1
  O  O286  1  0.62833061  0.49705579  0.23601720  1
  O  O287  1  0.61939405  0.49928896  0.73574745  1
  O  O288  1  0.62462205  0.98676963  0.24064226  1
  O  O289  1  0.63301320  0.99973895  0.74477068  1
  O  O290  1  0.36703713  0.00812947  0.25052451  1
  O  O291  1  0.37011975  0.00593569  0.75558980  1
  O  O292  1  0.38209271  0.50630837  0.26411149  1
  O  O293  1  0.36957294  0.50591360  0.75522253  1
  O  O294  1  0.87102231  0.00280024  0.25327667  1
  O  O295  1  0.87005026  0.00645793  0.75677864  1
  O  O296  1  0.87468671  0.50916087  0.25707010  1
  O  O297  1  0.88390730  0.49453275  0.76800678  1
  O  O298  1  0.12015077  0.36840792  0.38370634  1
  O  O299  1  0.13119480  0.36410291  0.86999489  1
  O  O300  1  0.12009953  0.86961284  0.36920659  1
  O  O301  1  0.11564081  0.87168839  0.87283089  1
  O  O302  1  0.61639817  0.37795282  0.37421541  1
  O  O303  1  0.61825689  0.37314270  0.87318563  1
  O  O304  1  0.61241264  0.87026452  0.36273174  1
  O  O305  1  0.61700619  0.86498431  0.87363679  1
  O  O306  1  0.37839068  0.12970525  0.13335099  1
  O  O307  1  0.38344090  0.13229309  0.63351129  1
  O  O308  1  0.37821534  0.62753347  0.12969364  1
  O  O309  1  0.37957417  0.63193212  0.63017503  1
  O  O310  1  0.88833172  0.14154589  0.11212429  1
  O  O311  1  0.87986849  0.13144592  0.63167937  1
  O  O312  1  0.87389086  0.62559664  0.13650571  1
  O  O313  1  0.88274169  0.63130281  0.62317700  1
  O  O314  1  0.25470120  0.25892822  0.11950960  1
  O  O315  1  0.25728138  0.25608930  0.62267208  1
  O  O316  1  0.25445410  0.75448160  0.11945086  1
  O  O317  1  0.25787139  0.75889308  0.62497586  1
  O  O318  1  0.75930949  0.25863001  0.11573521  1
  O  O319  1  0.75674353  0.25890631  0.61527206  1
  O  O320  1  0.74700360  0.75690618  0.11180685  1
  O  O321  1  0.75557228  0.75605153  0.61923911  1
  O  O322  1  0.25434884  0.24910364  0.38990421  1
  O  O323  1  0.24028636  0.24863971  0.88202767  1
  O  O324  1  0.24485655  0.74147618  0.37701877  1
  O  O325  1  0.24925718  0.74388051  0.88033960  1
  O  O326  1  0.75007783  0.25980609  0.38916602  1
  O  O327  1  0.75351207  0.24539563  0.88555934  1
  O  O328  1  0.74701576  0.74451261  0.38255048  1
  O  O329  1  0.73979925  0.75401529  0.88158308  1
  O  O330  1  0.00763390  0.11954543  0.00515415  1
  O  O331  1  -0.00049046  0.12029003  0.50913756  1
  O  O332  1  0.00622668  0.61647552  0.00214486  1
  O  O333  1  0.00806782  0.62521837  0.50593284  1
  O  O334  1  0.49744894  0.11720977  0.00614510  1
  O  O335  1  0.51218351  0.12776621  0.50946557  1
  O  O336  1  0.49963505  0.61709703  0.00716911  1
  O  O337  1  0.50636322  0.62011942  0.50514265  1
  O  O338  1  0.50000141  0.38123945  0.49216882  1
  O  O339  1  0.49329027  0.37993495  0.99559683  1
  O  O340  1  0.50621147  0.87121032  0.48346106  1
  O  O341  1  0.49117310  0.87887440  0.99440021  1
  O  O342  1  0.98519168  0.37520418  0.50334039  1
  O  O343  1  0.99039005  0.38321047  1.00650033  1
  O  O344  1  0.99570285  0.88061366  0.49643823  1
  O  O345  1  0.99389191  0.87991774  0.99545930  1
  O  O346  1  0.49390956  0.49390049  0.38031498  1
  O  O347  1  0.49387519  0.49517255  0.88045875  1
  O  O348  1  0.49790505  0.98151206  0.37387220  1
  O  O349  1  0.49330207  0.99449197  0.87941955  1
  O  O350  1  0.98748711  0.50095128  0.37782348  1
  O  O351  1  0.99086077  0.50263935  0.88801539  1
  O  O352  1  1.00338845  0.99313607  0.38373999  1
  O  O353  1  0.99436355  0.99653445  0.88064395  1
  O  O354  1  0.00537288  0.00454310  0.11938819  1
  O  O355  1  0.00414624  0.00519402  0.62105413  1
  O  O356  1  0.00814512  0.50220401  0.11252941  1
  O  O357  1  0.00775272  0.50799550  0.62380630  1
  O  O358  1  0.50082000  0.00258840  0.11843857  1
  O  O359  1  0.50793997  0.00711677  0.62778606  1
  O  O360  1  0.50681278  0.50214104  0.12067982  1
  O  O361  1  0.50744726  0.50552401  0.61952817  1
  O  O362  1  0.25749490  0.36923089  0.23865903  1
  O  O363  1  0.24437739  0.38206350  0.74570708  1
  O  O364  1  0.24326709  0.87936042  0.24407917  1
  O  O365  1  0.24824779  0.88255075  0.74019847  1
  O  O366  1  0.75291257  0.37675315  0.23507022  1
  O  O367  1  0.75145121  0.36867386  0.73455981  1
  O  O368  1  0.73692588  0.86385647  0.23635614  1
  O  O369  1  0.74946803  0.88241705  0.74306349  1
  O  O370  1  0.25920381  0.11985584  0.24948477  1
  O  O371  1  0.25853386  0.11855161  0.75028416  1
  O  O372  1  0.25533200  0.62980863  0.26394085  1
  O  O373  1  0.25407962  0.62024656  0.75490201  1
  O  O374  1  0.76362545  0.10970987  0.20409820  1
  O  O375  1  0.75679633  0.12140362  0.75588547  1
  O  O376  1  0.75846293  0.62498182  0.25517819  1
  O  O377  1  0.75811435  0.63063816  0.75364271  1
  O  O378  1  0.37620131  0.12415149  0.36248328  1
  O  O379  1  0.37287505  0.11841671  0.86922239  1
  O  O380  1  0.36902172  0.61873499  0.37063644  1
  O  O381  1  0.36956550  0.61928401  0.86887545  1
  O  O382  1  0.86910399  0.12229838  0.37253540  1
  O  O383  1  0.87028383  0.12015519  0.87080789  1
  O  O384  1  0.86990730  0.61864067  0.36841359  1
  O  O385  1  0.87391243  0.60853413  0.87540377  1
  O  O386  1  0.13683749  0.38503905  0.12040017  1
  O  O387  1  0.13267577  0.38295385  0.63228183  1
  O  O388  1  0.12938082  0.88017221  0.13010255  1
  O  O389  1  0.13435901  0.88235679  0.62908713  1
  O  O390  1  0.63456226  0.38237600  0.12308963  1
  O  O391  1  0.63450128  0.38413955  0.62379610  1
  O  O392  1  0.62648727  0.87520197  0.13081876  1
  O  O393  1  0.63141322  0.88196519  0.62660961  1
  O  O394  1  0.11024158  0.24894063  0.24530070  1
  O  O395  1  0.12195856  0.25502753  0.75818155  1
  O  O396  1  0.11948760  0.75568083  0.25501599  1
  O  O397  1  0.11067029  0.75131217  0.75115533  1
  O  O398  1  0.62294564  0.25197964  0.25425378  1
  O  O399  1  0.61796666  0.25362125  0.75147030  1
  O  O400  1  0.61641746  0.75641522  0.24890921  1
  O  O401  1  0.61728701  0.75124308  0.75896825  1
  O  O402  1  0.37784490  0.23872807  0.24397563  1
  O  O403  1  0.38142203  0.24566061  0.74677511  1
  O  O404  1  0.37872597  0.74195182  0.24175412  1
  O  O405  1  0.37936757  0.74366974  0.74134393  1
  O  O406  1  0.88013837  0.24852262  0.23578080  1
  O  O407  1  0.88101174  0.24587660  0.74556655  1
  O  O408  1  0.87844470  0.74149743  0.25109746  1
  O  O409  1  0.88688205  0.75186331  0.74309593  1
  O  O410  1  0.38325175  0.50074059  0.48958698  1
  O  O411  1  0.37966453  0.49486845  0.99467109  1
  O  O412  1  0.38280800  1.00529006  0.49761914  1
  O  O413  1  0.37751128  0.99380261  0.99522905  1
  O  O414  1  0.87541237  0.49263954  0.49067092  1
  O  O415  1  0.88378010  0.49354476  0.99471172  1
  O  O416  1  0.88199063  0.99242778  0.50133834  1
  O  O417  1  0.88084127  0.99420194  0.99588395  1
  O  O418  1  0.11902630  0.00479394  0.00537438  1
  O  O419  1  0.11702922  0.00344105  0.50935473  1
  O  O420  1  0.11780719  0.50419701  0.00331589  1
  O  O421  1  0.12492695  0.50840961  0.50827065  1
  O  O422  1  0.61449935  -0.00208860  0.00470366  1
  O  O423  1  0.62116082  0.00805631  0.50784141  1
  O  O424  1  0.61895621  0.50025877  0.00988898  1
  O  O425  1  0.62079522  0.50625915  0.50953613  1
  O  O426  1  0.36859429  0.37157671  0.12053847  1
  O  O427  1  0.37004816  0.36997873  0.62571789  1
  O  O428  1  0.36826495  0.86820367  0.12002963  1
  O  O429  1  0.36651025  0.86493110  0.63127672  1
  O  O430  1  0.86881080  0.36960171  0.11532292  1
  O  O431  1  0.86912677  0.37262774  0.61743048  1
  O  O432  1  0.86335990  0.87106779  0.11869453  1
  O  O433  1  0.86979020  0.86951604  0.61888593  1
  O  O434  1  0.12788104  0.13783302  0.37819967  1
  O  O435  1  0.12781955  0.13590063  0.88132824  1
  O  O436  1  0.13259098  0.62892185  0.37896920  1
  O  O437  1  0.13160880  0.62587067  0.88183236  1
  O  O438  1  0.61846577  0.12227943  0.38832950  1
  O  O439  1  0.63443791  0.12859687  0.88030908  1
  O  O440  1  0.63082466  0.62399108  0.38042674  1
  O  O441  1  0.62363138  0.63566770  0.87736798  1
