# generated using pymatgen
data_V93Zn93O256
_symmetry_space_group_name_H-M   'P 1'
_cell_length_a   17.05512300
_cell_length_b   17.05611705
_cell_length_c   17.05595332
_cell_angle_alpha   90.07628755
_cell_angle_beta   89.98923782
_cell_angle_gamma   90.02104156
_symmetry_Int_Tables_number   1
_chemical_formula_structural   V93Zn93O256
_chemical_formula_sum   'V93 Zn93 O256'
_cell_volume   4961.47263734
_cell_formula_units_Z   1
loop_
 _symmetry_equiv_pos_site_id
 _symmetry_equiv_pos_as_xyz
  1  'x, y, z'
loop_
 _atom_site_type_symbol
 _atom_site_label
 _atom_site_symmetry_multiplicity
 _atom_site_fract_x
 _atom_site_fract_y
 _atom_site_fract_z
 _atom_site_occupancy
  V  V0  1  0.49991954  0.25035114  0.24999146  1
  V  V1  1  0.87578644  0.37475922  0.49966014  1
  V  V2  1  0.62608877  0.24918521  0.87507364  1
  V  V3  1  0.50177186  0.87445496  0.87477933  1
  V  V4  1  0.87475520  0.49926109  0.87593673  1
  V  V5  1  0.87720676  0.74478476  0.62324594  1
  V  V6  1  -0.00026187  0.37504675  0.37553868  1
  V  V7  1  0.75009506  -0.00087318  0.24882420  1
  V  V8  1  0.62312595  0.50183461  0.12270805  1
  V  V9  1  0.87679810  0.12603212  0.24834283  1
  V  V10  1  0.74959035  0.24966006  0.50008108  1
  V  V11  1  0.00720282  0.62460826  0.12209186  1
  V  V12  1  0.49913808  0.37668490  0.87631707  1
  V  V13  1  0.62489459  0.87396164  0.74958454  1
  V  V14  1  0.12845432  -0.00746090  0.62520353  1
  V  V15  1  0.11886299  0.12054908  0.00118226  1
  V  V16  1  0.62585961  0.12460986  -0.00087383  1
  V  V17  1  0.12729252  0.38645796  0.25202709  1
  V  V18  1  0.37848772  0.38254974  0.50251050  1
  V  V19  1  0.12739959  0.75312728  0.37417017  1
  V  V20  1  0.75111838  -0.00121506  0.74890929  1
  V  V21  1  0.49923629  0.87566934  0.37505837  1
  V  V22  1  0.75045021  0.87421501  0.12433670  1
  V  V23  1  0.87614994  0.62299476  0.74631143  1
  V  V24  1  0.12532714  0.12620358  0.50024140  1
  V  V25  1  0.24967471  -0.00739575  0.74649820  1
  V  V26  1  0.12440223  0.74270278  0.87847314  1
  V  V27  1  0.37535642  0.37513371  0.00088621  1
  V  V28  1  0.00124408  0.74472498  0.74642946  1
  V  V29  1  0.74873508  0.62450419  0.87466810  1
  V  V30  1  0.75050108  0.49910808  0.74970950  1
  V  V31  1  0.74683406  0.62663640  0.37631351  1
  V  V32  1  0.75027452  0.74840164  -0.00087520  1
  V  V33  1  0.87353711  0.49801261  0.37483299  1
  V  V34  1  0.37101064  0.62080235  0.24976833  1
  V  V35  1  0.00215186  0.87510521  0.87643659  1
  V  V36  1  0.00765625  0.50325533  0.00063330  1
  V  V37  1  0.87592047  0.00009317  0.37489990  1
  V  V38  1  0.37465367  -0.00011443  0.87528893  1
  V  V39  1  0.24922479  0.24960993  0.00197502  1
  V  V40  1  0.12533697  0.25249662  0.37497099  1
  V  V41  1  0.87562311  0.62469758  0.24909830  1
  V  V42  1  0.24909074  0.38195324  0.13099409  1
  V  V43  1  0.50033262  0.75100942  0.24991337  1
  V  V44  1  0.25082527  0.25254468  0.50161247  1
  V  V45  1  -0.00003279  -0.00018722  0.49918263  1
  V  V46  1  0.49893240  0.00030024  0.49886799  1
  V  V47  1  0.49959619  0.37897723  0.37801302  1
  V  V48  1  0.62452532  0.25118800  0.37522236  1
  V  V49  1  0.87410673  0.24892701  0.62570853  1
  V  V50  1  0.37450535  0.25114555  0.62539349  1
  V  V51  1  0.12456830  0.24793560  0.87563843  1
  V  V52  1  0.62541616  -0.00090166  0.12470773  1
  V  V53  1  0.37479708  0.87489054  0.00006774  1
  V  V54  1  0.00064675  0.75171836  0.24960175  1
  V  V55  1  0.61972284  0.50116541  0.61829903  1
  V  V56  1  0.12689872  0.37382507  0.74740289  1
  V  V57  1  0.62517053  0.37520940  0.25057275  1
  V  V58  1  0.37459158  0.12518423  0.74969882  1
  V  V59  1  0.62587456  0.74939120  0.87384241  1
  V  V60  1  0.25126285  0.62411639  0.37659066  1
  V  V61  1  0.37636241  0.50151478  0.37704716  1
  V  V62  1  0.24542527  0.74328880  -0.00047297  1
  V  V63  1  0.87700030  0.24843214  0.12470725  1
  V  V64  1  0.87758830  0.87653902  -0.00074373  1
  V  V65  1  0.49906732  0.12579859  0.12548042  1
  V  V66  1  0.74901944  0.37481462  0.62491774  1
  V  V67  1  0.49664117  0.62280521  0.61864747  1
  V  V68  1  0.00024600  0.12431810  0.62455464  1
  V  V69  1  0.75066885  0.24872655  -0.00052732  1
  V  V70  1  0.62437624  0.37394064  0.74993716  1
  V  V71  1  0.74989962  0.12479982  0.37430167  1
  V  V72  1  0.74992092  0.87354171  0.62364522  1
  V  V73  1  0.87536090  0.12297144  0.74966104  1
  V  V74  1  0.62512260  -0.00081914  0.62435445  1
  V  V75  1  0.12003283  0.00073206  0.12134538  1
  V  V76  1  0.25088603  0.75537440  0.50762681  1
  V  V77  1  0.24867404  0.87647594  0.12791867  1
  V  V78  1  0.75021193  0.50015271  0.24877967  1
  V  V79  1  0.25179996  0.12515634  0.37321040  1
  V  V80  1  0.37158173  0.87657503  0.50823789  1
  V  V81  1  0.37269010  0.62373939  0.75509698  1
  V  V82  1  0.49941506  0.12593561  0.62528280  1
  V  V83  1  0.00065991  0.24862975  0.75110801  1
  V  V84  1  0.87656798  0.37521036  0.00008424  1
  V  V85  1  0.24991023  0.12337833  0.87634909  1
  V  V86  1  0.75112247  0.37470639  0.12486100  1
  V  V87  1  0.37513427  0.25044323  0.12694378  1
  V  V88  1  0.87902174  -0.00145534  0.87555730  1
  V  V89  1  0.37428466  0.74990506  0.12502535  1
  V  V90  1  0.62424266  0.12531626  0.50010671  1
  V  V91  1  0.87445018  0.87551861  0.49949906  1
  V  V92  1  0.50008816  -0.00013318  0.00047026  1
  Zn  Zn93  1  0.49842935  0.50344901  0.00016621  1
  Zn  Zn94  1  0.62247548  0.62443875  -0.00161839  1
  Zn  Zn95  1  0.49965599  0.74973439  0.74866206  1
  Zn  Zn96  1  0.37335662  0.00102423  0.37333291  1
  Zn  Zn97  1  0.62444017  0.74966184  0.37721314  1
  Zn  Zn98  1  0.37108356  0.49898082  0.87743646  1
  Zn  Zn99  1  0.12972395  0.87108010  0.74720076  1
  Zn  Zn100  1  0.00142805  0.37524283  0.87620678  1
  Zn  Zn101  1  0.24754801  0.49861785  0.75186125  1
  Zn  Zn102  1  0.25072245  0.00290634  0.24985818  1
  Zn  Zn103  1  0.12301631  0.88027424  0.24890695  1
  Zn  Zn104  1  0.12065145  0.51225878  0.62786146  1
  Zn  Zn105  1  -0.00087649  0.51103545  0.51160659  1
  Zn  Zn106  1  0.49945624  0.24923082  0.75082707  1
  Zn  Zn107  1  0.12996905  0.50521357  0.12638740  1
  Zn  Zn108  1  0.61694499  0.62457321  0.49636005  1
  Zn  Zn109  1  0.24468325  0.61945128  0.87983461  1
  Zn  Zn110  1  0.75077679  0.12331267  0.87467027  1
  Zn  Zn111  1  0.37562526  0.12423347  0.25162199  1
  Zn  Zn112  1  0.00324997  0.24934306  0.24587121  1
  Zn  Zn113  1  0.87597454  0.74920884  0.12360673  1
  Zn  Zn114  1  0.24961066  0.38141295  0.62513087  1
  Zn  Zn115  1  0.74634387  0.74930486  0.49936373  1
  Zn  Zn116  1  0.11498117  0.62788419  0.51146161  1
  Zn  Zn117  1  -0.00089239  0.12256990  0.12397631  1
  Zn  Zn118  1  0.49947768  0.62493764  0.12339030  1
  Zn  Zn119  1  0.00061416  0.87664499  0.37319815  1
  Zn  Zn120  1  0.62591098  0.87411661  0.25013236  1
  Zn  Zn121  1  0.37366037  0.75263954  0.62916647  1
  Zn  Zn122  1  0.18601411  0.19228437  0.18872237  1
  Zn  Zn123  1  0.18894694  0.18570688  0.68681903  1
  Zn  Zn124  1  0.18770314  0.68906851  0.19025620  1
  Zn  Zn125  1  0.18719420  0.68669265  0.68891560  1
  Zn  Zn126  1  0.68807036  0.18681142  0.18667865  1
  Zn  Zn127  1  0.68760505  0.18636411  0.68924975  1
  Zn  Zn128  1  0.68771491  0.68820620  0.18723123  1
  Zn  Zn129  1  0.68699182  0.68612679  0.68664165  1
  Zn  Zn130  1  0.31184117  0.31321272  0.31291964  1
  Zn  Zn131  1  0.31145052  0.31061833  0.81344672  1
  Zn  Zn132  1  0.31485548  0.81171323  0.31525122  1
  Zn  Zn133  1  0.31403060  0.80927338  0.81468862  1
  Zn  Zn134  1  0.81275149  0.31108997  0.31066977  1
  Zn  Zn135  1  0.81259289  0.31268317  0.81362502  1
  Zn  Zn136  1  0.81387184  0.81229041  0.31185536  1
  Zn  Zn137  1  0.81251535  0.81084640  0.81036590  1
  Zn  Zn138  1  0.18826487  0.44249524  0.44193121  1
  Zn  Zn139  1  0.18927657  0.43543138  0.93492034  1
  Zn  Zn140  1  0.18765427  0.93803284  0.43804355  1
  Zn  Zn141  1  0.18753715  0.93477715  0.93820064  1
  Zn  Zn142  1  0.68846735  0.43846568  0.43787341  1
  Zn  Zn143  1  0.68780652  0.43646517  0.93804194  1
  Zn  Zn144  1  0.68687559  0.93659388  0.43691010  1
  Zn  Zn145  1  0.69017188  0.93655498  0.93706087  1
  Zn  Zn146  1  0.31085520  0.06310605  0.06325797  1
  Zn  Zn147  1  0.31208093  0.06300677  0.56158233  1
  Zn  Zn148  1  0.31572898  0.56096195  0.06192229  1
  Zn  Zn149  1  0.30386307  0.56410957  0.56721276  1
  Zn  Zn150  1  0.81285178  0.06162092  0.06137348  1
  Zn  Zn151  1  0.81203961  0.06196639  0.56179589  1
  Zn  Zn152  1  0.81588195  0.56351463  0.06241217  1
  Zn  Zn153  1  0.81142919  0.56056423  0.56060985  1
  Zn  Zn154  1  0.43720865  0.43775391  0.19041560  1
  Zn  Zn155  1  0.43777252  0.43977078  0.68972992  1
  Zn  Zn156  1  0.43375367  0.94015052  0.18937628  1
  Zn  Zn157  1  0.43959954  0.93967655  0.68861144  1
  Zn  Zn158  1  0.94079447  0.43742613  0.18788506  1
  Zn  Zn159  1  0.94118823  0.43559570  0.68752582  1
  Zn  Zn160  1  0.93721132  0.93852800  0.18649472  1
  Zn  Zn161  1  0.93985431  0.93347740  0.68702204  1
  Zn  Zn162  1  0.06444087  0.06300718  0.30900539  1
  Zn  Zn163  1  0.06360536  0.06158537  0.81146033  1
  Zn  Zn164  1  0.05572146  0.56997810  0.33009280  1
  Zn  Zn165  1  0.06020855  0.55992475  0.81098055  1
  Zn  Zn166  1  0.56295402  0.06197290  0.31144528  1
  Zn  Zn167  1  0.56258762  0.06201851  0.81216478  1
  Zn  Zn168  1  0.55954327  0.56219523  0.31057011  1
  Zn  Zn169  1  0.56119004  0.56230954  0.80720553  1
  Zn  Zn170  1  0.43659194  0.19143215  0.43867751  1
  Zn  Zn171  1  0.43775284  0.18912922  0.93820869  1
  Zn  Zn172  1  0.43485866  0.69082179  0.43926657  1
  Zn  Zn173  1  0.44024548  0.68837552  0.93937061  1
  Zn  Zn174  1  0.93838357  0.18816345  0.43637217  1
  Zn  Zn175  1  0.93823919  0.18699659  0.93727160  1
  Zn  Zn176  1  0.93495437  0.68861492  0.43678370  1
  Zn  Zn177  1  0.93680517  0.68617522  0.93620785  1
  Zn  Zn178  1  0.06291260  0.31366502  0.06366083  1
  Zn  Zn179  1  0.06094266  0.31511412  0.56289010  1
  Zn  Zn180  1  0.06288954  0.81249563  0.06174198  1
  Zn  Zn181  1  0.06086436  0.81080462  0.55944693  1
  Zn  Zn182  1  0.56330786  0.31318489  0.06175853  1
  Zn  Zn183  1  0.55988458  0.31289482  0.56300109  1
  Zn  Zn184  1  0.56404277  0.81180221  0.06196355  1
  Zn  Zn185  1  0.56101167  0.80701810  0.56175679  1
  O  O186  1  0.12787354  0.11826331  0.11724784  1
  O  O187  1  0.11886982  0.11685105  0.61951556  1
  O  O188  1  0.11235712  0.62230831  0.13377146  1
  O  O189  1  0.12101107  0.62874909  0.62429188  1
  O  O190  1  0.61940295  0.11950752  0.11872378  1
  O  O191  1  0.62030571  0.11940898  0.61947744  1
  O  O192  1  0.62480801  0.61262479  0.12542340  1
  O  O193  1  0.61595992  0.61636729  0.62652325  1
  O  O194  1  0.37798839  0.38349942  0.38103990  1
  O  O195  1  0.38442885  0.37198884  0.88114585  1
  O  O196  1  0.38574689  0.87682073  0.38369409  1
  O  O197  1  0.38106205  0.88067331  0.88071700  1
  O  O198  1  0.88020056  0.37673121  0.37897221  1
  O  O199  1  0.87634853  0.38131495  0.88182645  1
  O  O200  1  0.87550437  0.88287214  0.38127030  1
  O  O201  1  0.88146924  0.87952961  0.87945356  1
  O  O202  1  0.24868711  0.01386434  0.37527338  1
  O  O203  1  0.25539070  0.00395280  0.86836730  1
  O  O204  1  0.26266358  0.51364201  0.37904254  1
  O  O205  1  0.25291426  0.50473229  0.87176672  1
  O  O206  1  0.75485728  0.00594173  0.36962544  1
  O  O207  1  0.76227946  -0.00184471  0.86714456  1
  O  O208  1  0.75380623  0.50583236  0.36765818  1
  O  O209  1  0.75440920  0.50366192  0.86921109  1
  O  O210  1  0.24757850  0.48626543  0.11851040  1
  O  O211  1  0.24156469  0.49715879  0.63408452  1
  O  O212  1  0.24331994  0.99008885  0.12435872  1
  O  O213  1  0.23955515  1.00816413  0.63459889  1
  O  O214  1  0.74377471  0.49459553  0.12960208  1
  O  O215  1  0.74321073  0.49399771  0.63093182  1
  O  O216  1  0.74514763  0.99430874  0.12909944  1
  O  O217  1  0.74458434  0.99415862  0.62902177  1
  O  O218  1  0.00751841  0.37094644  0.25822881  1
  O  O219  1  0.00786951  0.36434714  0.75415434  1
  O  O220  1  0.00009139  0.86363926  0.24939515  1
  O  O221  1  -0.00166360  0.86214191  0.76093250  1
  O  O222  1  0.50611389  0.36964796  0.25759488  1
  O  O223  1  0.50555085  0.37217710  0.75947254  1
  O  O224  1  0.49731342  0.86760224  0.25806411  1
  O  O225  1  0.50715907  0.87596417  0.75720259  1
  O  O226  1  0.50092246  0.13284322  0.24324426  1
  O  O227  1  0.49276699  0.12419118  0.74343079  1
  O  O228  1  0.48939831  0.63528974  0.24963035  1
  O  O229  1  0.48878467  0.62658653  0.74223918  1
  O  O230  1  0.99205845  0.12862854  0.24752143  1
  O  O231  1  0.99467417  0.12863544  0.74400151  1
  O  O232  1  0.99539347  0.63343536  0.24522671  1
  O  O233  1  0.99216996  0.63909791  0.75757276  1
  O  O234  1  0.36921121  0.25511391  0.00720199  1
  O  O235  1  0.37015584  0.26029934  0.50561856  1
  O  O236  1  0.36705763  0.75656762  0.00491280  1
  O  O237  1  0.36687791  0.76052038  0.50143593  1
  O  O238  1  0.87006170  0.25430892  0.00419274  1
  O  O239  1  0.86847254  0.25350886  0.50592937  1
  O  O240  1  0.86891743  0.76058176  -0.00140033  1
  O  O241  1  0.87414388  0.75566071  0.50801810  1
  O  O242  1  0.13006870  0.24579034  0.49509537  1
  O  O243  1  0.13057971  0.24209462  0.99616231  1
  O  O244  1  0.13250267  0.75222596  0.48944585  1
  O  O245  1  0.13411125  0.75597227  0.99046942  1
  O  O246  1  0.62995675  0.24537025  0.49499357  1
  O  O247  1  0.63117933  0.24433364  0.99566260  1
  O  O248  1  0.62890234  0.74320182  0.49540428  1
  O  O249  1  0.63306863  0.74910153  0.99243997  1
  O  O250  1  0.49590849  0.24587069  0.13007145  1
  O  O251  1  0.49332079  0.24279939  0.62697613  1
  O  O252  1  0.49295783  0.75198781  0.13404863  1
  O  O253  1  0.49660060  0.73868525  0.62934411  1
  O  O254  1  0.99153859  0.24703292  0.12542340  1
  O  O255  1  0.99309982  0.24308871  0.62986969  1
  O  O256  1  1.00033793  0.74275721  0.13228209  1
  O  O257  1  0.98827069  0.75897290  0.63502541  1
  O  O258  1  0.00534166  0.26054403  0.37427468  1
  O  O259  1  0.00671448  0.24886635  0.86842512  1
  O  O260  1  0.00941361  0.75244958  0.36432268  1
  O  O261  1  0.00566704  0.75600341  0.86871240  1
  O  O262  1  0.50645496  0.25678699  0.37019911  1
  O  O263  1  0.50703080  0.25928719  0.87487767  1
  O  O264  1  0.49815085  0.75823792  0.36626132  1
  O  O265  1  0.50794174  0.75847329  0.87420581  1
  O  O266  1  0.24449515  0.13161802  0.49267619  1
  O  O267  1  0.24259691  0.13053063  0.99526142  1
  O  O268  1  0.25420403  0.63839639  0.48815365  1
  O  O269  1  0.25642239  0.64003974  1.00011655  1
  O  O270  1  0.74406092  0.12994329  0.49453659  1
  O  O271  1  0.74362929  0.13024287  0.99786900  1
  O  O272  1  0.75022326  0.62472105  0.48498814  1
  O  O273  1  0.75035296  0.63076296  0.99260227  1
  O  O274  1  0.25469391  0.36781139  0.00856212  1
  O  O275  1  0.26137011  0.36911181  0.49995539  1
  O  O276  1  0.25555276  0.86686842  0.00865709  1
  O  O277  1  0.26158084  0.86820783  0.49179123  1
  O  O278  1  0.75604707  0.36873745  0.00580020  1
  O  O279  1  0.75512935  0.36821277  0.50486756  1
  O  O280  1  0.75900939  0.86884840  0.00354485  1
  O  O281  1  0.75662464  0.87451141  0.50584643  1
  O  O282  1  0.11855383  0.48805176  0.25413367  1
  O  O283  1  0.12294231  0.48400478  0.75389604  1
  O  O284  1  0.13184830  0.99843234  0.23885788  1
  O  O285  1  0.13275664  0.99819722  0.74236719  1
  O  O286  1  0.62992500  0.49386459  0.24243377  1
  O  O287  1  0.63193480  0.49305066  0.74101296  1
  O  O288  1  0.63226349  0.99892818  0.24251806  1
  O  O289  1  0.63080111  0.99446089  0.74399724  1
  O  O290  1  0.36855982  0.00611248  0.25490818  1
  O  O291  1  0.36804709  0.00512921  0.75455925  1
  O  O292  1  0.37830159  0.51213622  0.25905836  1
  O  O293  1  0.37430197  0.51321174  0.75377174  1
  O  O294  1  0.86948832  0.00559596  0.25477498  1
  O  O295  1  0.87109989  0.00265122  0.75564334  1
  O  O296  1  0.86891261  0.50382205  0.25439539  1
  O  O297  1  0.86973318  0.50302468  0.75539969  1
  O  O298  1  0.11920133  0.37232923  0.37063934  1
  O  O299  1  0.12368110  0.36420618  0.86715986  1
  O  O300  1  0.12516903  0.86473901  0.37116348  1
  O  O301  1  0.11519378  0.86814470  0.87413839  1
  O  O302  1  0.62065859  0.37125060  0.37095293  1
  O  O303  1  0.61886257  0.36926197  0.87061134  1
  O  O304  1  0.61151057  0.87413578  0.37267257  1
  O  O305  1  0.62149841  0.87067596  0.86948968  1
  O  O306  1  0.38125774  0.13276766  0.12499392  1
  O  O307  1  0.38038061  0.12989857  0.62919095  1
  O  O308  1  0.37417905  0.63062401  0.13512677  1
  O  O309  1  0.38098820  0.62423664  0.63626633  1
  O  O310  1  0.87636549  0.12916595  0.12928506  1
  O  O311  1  0.87992390  0.12910229  0.62964295  1
  O  O312  1  0.88596255  0.62664712  0.13238415  1
  O  O313  1  0.86787239  0.63693032  0.62925526  1
  O  O314  1  0.25530950  0.25935362  0.12075953  1
  O  O315  1  0.25805715  0.24915731  0.61790349  1
  O  O316  1  0.25266267  0.75733220  0.11790095  1
  O  O317  1  0.25111931  0.74941118  0.61041399  1
  O  O318  1  0.75528895  0.25533048  0.11905588  1
  O  O319  1  0.75379969  0.25441624  0.61963262  1
  O  O320  1  0.75325163  0.75608280  0.11904839  1
  O  O321  1  0.76048290  0.75597588  0.62529911  1
  O  O322  1  0.24535645  0.24433696  0.38227579  1
  O  O323  1  0.24470638  0.24199832  0.88213369  1
  O  O324  1  0.24506589  0.74598443  0.38232532  1
  O  O325  1  0.24062666  0.75157298  0.88402890  1
  O  O326  1  0.74405945  0.24476136  0.38017129  1
  O  O327  1  0.74440858  0.24753338  0.88174526  1
  O  O328  1  0.74814104  0.73859769  0.37247714  1
  O  O329  1  0.74551829  0.74462248  0.87852827  1
  O  O330  1  0.01540102  0.12732721  0.00084796  1
  O  O331  1  0.00528649  0.12000684  0.50486514  1
  O  O332  1  -0.00766532  0.61678392  0.01115594  1
  O  O333  1  0.01188512  0.61316190  0.45891606  1
  O  O334  1  0.50546950  0.11931541  0.00547194  1
  O  O335  1  0.50535354  0.12109259  0.50453663  1
  O  O336  1  0.50418130  0.62152271  0.00577268  1
  O  O337  1  0.49589269  0.62710699  0.51352515  1
  O  O338  1  0.48713194  0.36952727  0.49301942  1
  O  O339  1  0.49445282  0.37450678  0.99186701  1
  O  O340  1  0.49309774  0.87956522  0.49242050  1
  O  O341  1  0.49478343  0.88079345  0.99527903  1
  O  O342  1  0.99234376  0.37214134  0.48873926  1
  O  O343  1  0.99358535  0.38411024  0.99957132  1
  O  O344  1  0.99221180  0.88232779  0.49708130  1
  O  O345  1  0.98931147  0.86712329  0.98777751  1
  O  O346  1  0.48646232  0.49506468  0.37167331  1
  O  O347  1  0.50151757  0.48528296  0.87557840  1
  O  O348  1  0.49970541  0.99236579  0.38079142  1
  O  O349  1  0.49467636  0.99478231  0.88124676  1
  O  O350  1  0.99013438  0.48298152  0.36944657  1
  O  O351  1  0.99200694  0.50057211  0.88465158  1
  O  O352  1  0.99483322  0.99978610  0.38071308  1
  O  O353  1  0.98919240  0.98785657  0.86501154  1
  O  O354  1  0.01552921  0.00015025  0.12761229  1
  O  O355  1  0.00696161  0.00532486  0.62047571  1
  O  O356  1  0.00157398  0.50779857  0.11770581  1
  O  O357  1  0.00474791  0.49628363  0.62295392  1
  O  O358  1  0.50467377  0.00470499  0.11932844  1
  O  O359  1  0.50647451  0.00638628  0.61868129  1
  O  O360  1  0.51234389  0.49908440  0.12682020  1
  O  O361  1  0.51126612  0.50808589  0.63180196  1
  O  O362  1  0.24188853  0.37099412  0.24086882  1
  O  O363  1  0.23930216  0.37244283  0.75008810  1
  O  O364  1  0.25063568  0.87122025  0.23573415  1
  O  O365  1  0.25104917  0.88912453  0.75553535  1
  O  O366  1  0.74455778  0.38006485  0.24486274  1
  O  O367  1  0.74477844  0.37903866  0.74388398  1
  O  O368  1  0.75004292  0.88119756  0.24297461  1
  O  O369  1  0.74513770  0.87997765  0.74348015  1
  O  O370  1  0.25051467  0.12980968  0.26315835  1
  O  O371  1  0.25499548  0.11506708  0.75709403  1
  O  O372  1  0.26396064  0.63694889  0.26128932  1
  O  O373  1  0.26508032  0.62836064  0.75401044  1
  O  O374  1  0.75520726  0.11919193  0.25519313  1
  O  O375  1  0.75757573  0.11705940  0.75106328  1
  O  O376  1  0.75486184  0.61964939  0.25580199  1
  O  O377  1  0.75619088  0.61811066  0.75476363  1
  O  O378  1  0.36373916  0.12645619  0.37674204  1
  O  O379  1  0.37039491  0.11910427  0.87122556  1
  O  O380  1  0.37097518  0.62039531  0.36981261  1
  O  O381  1  0.37834116  0.62541681  0.86284688  1
  O  O382  1  0.86870424  0.12020163  0.37023274  1
  O  O383  1  0.87626994  0.11348034  0.86969724  1
  O  O384  1  0.86444083  0.61858027  0.36709763  1
  O  O385  1  0.86803558  0.61908817  0.86757606  1
  O  O386  1  0.13276323  0.37668810  0.13446497  1
  O  O387  1  0.12755098  0.36635114  0.64002951  1
  O  O388  1  0.13347021  0.88300312  0.12211025  1
  O  O389  1  0.11840936  0.88927031  0.62602317  1
  O  O390  1  0.63138441  0.38137599  0.13069163  1
  O  O391  1  0.62878268  0.38098714  0.62898523  1
  O  O392  1  0.63223651  0.88185852  0.12563427  1
  O  O393  1  0.62916226  0.88029247  0.62900379  1
  O  O394  1  0.12361767  0.26186239  0.25849771  1
  O  O395  1  0.12043620  0.25128856  0.75631503  1
  O  O396  1  0.11690210  0.75447307  0.25634386  1
  O  O397  1  0.11776631  0.75467908  0.75837446  1
  O  O398  1  0.62110404  0.25603443  0.25552934  1
  O  O399  1  0.62404592  0.25579954  0.75620170  1
  O  O400  1  0.61139584  0.75163192  0.25090359  1
  O  O401  1  0.62538335  0.75742260  0.75622281  1
  O  O402  1  0.38298590  0.25006224  0.24468113  1
  O  O403  1  0.37556600  0.24185074  0.74415263  1
  O  O404  1  0.38327579  0.74369135  0.24566948  1
  O  O405  1  0.37692126  0.73976961  0.74857100  1
  O  O406  1  0.87404929  0.24278248  0.24215141  1
  O  O407  1  0.87909264  0.24333989  0.74511927  1
  O  O408  1  0.88601828  0.74461178  0.24882192  1
  O  O409  1  0.88133957  0.74443342  0.74246074  1
  O  O410  1  0.36888121  0.49024991  0.49262620  1
  O  O411  1  0.37912355  0.49047989  0.99766400  1
  O  O412  1  0.38046712  0.99310908  0.49808761  1
  O  O413  1  0.37997030  0.99523842  0.99496767  1
  O  O414  1  0.87391057  0.49099470  0.49183430  1
  O  O415  1  0.88191514  0.49398302  0.99519855  1
  O  O416  1  0.88051723  0.99642664  0.49483572  1
  O  O417  1  0.86863484  0.98800757  0.98753911  1
  O  O418  1  0.13398119  0.01030229  0.00809419  1
  O  O419  1  0.12057896  0.00545571  0.50739933  1
  O  O420  1  0.11043170  0.49405744  0.00033766  1
  O  O421  1  0.12166389  0.50604118  0.50364369  1
  O  O422  1  0.62032879  0.00414187  0.00435851  1
  O  O423  1  0.61975947  0.00609733  0.50500272  1
  O  O424  1  0.62485632  0.49932126  0.01202743  1
  O  O425  1  0.63118627  0.50243787  0.51446294  1
  O  O426  1  0.36800268  0.37042267  0.12283220  1
  O  O427  1  0.37581757  0.37117960  0.61758800  1
  O  O428  1  0.36697853  0.87061211  0.11947833  1
  O  O429  1  0.38289500  0.87475345  0.61204944  1
  O  O430  1  0.86938355  0.36980184  0.12046163  1
  O  O431  1  0.86776811  0.36727683  0.62051883  1
  O  O432  1  0.87072357  0.87568895  0.11351615  1
  O  O433  1  0.86931839  0.86723241  0.62000447  1
  O  O434  1  0.13184657  0.13158958  0.38088431  1
  O  O435  1  0.13015207  0.12665335  0.88259680  1
  O  O436  1  0.14071341  0.63961139  0.36575894  1
  O  O437  1  0.12489788  0.63978318  0.86875405  1
  O  O438  1  0.62999605  0.13099479  0.38048659  1
  O  O439  1  0.62640255  0.12989374  0.88141124  1
  O  O440  1  0.63422331  0.62272658  0.37413605  1
  O  O441  1  0.63178044  0.62999908  0.87313181  1
