# generated using pymatgen
data_V93Zn93O256
_symmetry_space_group_name_H-M   'P 1'
_cell_length_a   17.04219607
_cell_length_b   17.04191559
_cell_length_c   17.04556366
_cell_angle_alpha   90.03069267
_cell_angle_beta   90.02063252
_cell_angle_gamma   90.03428943
_symmetry_Int_Tables_number   1
_chemical_formula_structural   V93Zn93O256
_chemical_formula_sum   'V93 Zn93 O256'
_cell_volume   4950.56954521
_cell_formula_units_Z   1
loop_
 _symmetry_equiv_pos_site_id
 _symmetry_equiv_pos_as_xyz
  1  'x, y, z'
loop_
 _atom_site_type_symbol
 _atom_site_label
 _atom_site_symmetry_multiplicity
 _atom_site_fract_x
 _atom_site_fract_y
 _atom_site_fract_z
 _atom_site_occupancy
  V  V0  1  0.50122797  0.87471162  0.37524317  1
  V  V1  1  0.12451209  0.50024869  0.12289544  1
  V  V2  1  0.00146725  0.00140438  0.50372259  1
  V  V3  1  0.12666916  0.12582272  0.50100778  1
  V  V4  1  0.87746988  0.12555510  0.25297563  1
  V  V5  1  -0.00148468  0.49949328  -0.00055300  1
  V  V6  1  0.37134001  0.12201284  0.75198793  1
  V  V7  1  0.00095600  0.37977905  0.37936990  1
  V  V8  1  0.62566630  0.74911480  0.37422606  1
  V  V9  1  0.87685278  0.00069033  0.37605861  1
  V  V10  1  0.37472127  0.25181027  0.62365124  1
  V  V11  1  0.25214978  0.37608399  0.12233721  1
  V  V12  1  0.62582836  0.24994340  0.37450875  1
  V  V13  1  0.49980892  0.49981042  0.49845887  1
  V  V14  1  0.88178570  0.25029067  0.63173471  1
  V  V15  1  -0.00074132  -0.00006971  0.00213274  1
  V  V16  1  0.24901304  0.37567326  0.62264357  1
  V  V17  1  0.25087222  0.50054349  0.24767800  1
  V  V18  1  0.62522201  0.49851561  0.62427514  1
  V  V19  1  0.88163313  0.12915436  0.75235755  1
  V  V20  1  0.50057901  0.74856972  0.24832977  1
  V  V21  1  0.37559867  0.74919092  0.12428400  1
  V  V22  1  0.87425701  0.75005178  0.62507079  1
  V  V23  1  0.12429051  0.12580368  0.00130199  1
  V  V24  1  0.62379801  0.74940529  0.87563522  1
  V  V25  1  0.00449843  0.87092356  0.37676019  1
  V  V26  1  0.62370993  0.62484698  -0.00064339  1
  V  V27  1  0.62439135  0.00062918  0.12418587  1
  V  V28  1  0.24839291  0.74982783  -0.00083075  1
  V  V29  1  0.49687750  0.49774942  -0.00053992  1
  V  V30  1  0.75532187  0.74975535  0.00254426  1
  V  V31  1  0.49890199  0.62399252  0.62338097  1
  V  V32  1  0.37855247  0.12665341  0.24759239  1
  V  V33  1  0.63074764  0.49386457  0.12520524  1
  V  V34  1  0.75141319  0.24878987  0.50164076  1
  V  V35  1  0.75254981  0.12435382  0.37691186  1
  V  V36  1  0.37415116  0.37552204  0.49897193  1
  V  V37  1  -0.00187556  0.87485608  0.87699735  1
  V  V38  1  0.00104667  0.75045175  0.24929337  1
  V  V39  1  0.87827560  0.37694817  0.50162542  1
  V  V40  1  0.62710371  0.87390303  0.25033532  1
  V  V41  1  0.25074494  -0.00002011  0.24976767  1
  V  V42  1  -0.00285389  0.62841684  0.12411629  1
  V  V43  1  0.74946045  -0.00049093  0.75103133  1
  V  V44  1  0.25026049  0.87472216  0.12599982  1
  V  V45  1  0.11692072  0.37103063  0.74951066  1
  V  V46  1  0.37407946  0.74882042  0.62339609  1
  V  V47  1  0.11858019  0.50006462  0.62091776  1
  V  V48  1  0.74988573  0.37458444  0.62643753  1
  V  V49  1  -0.00118852  0.75105410  0.75002743  1
  V  V50  1  0.25145689  0.25425844  -0.00154463  1
  V  V51  1  0.37672204  0.87705906  0.49764431  1
  V  V52  1  0.11747202  0.24970406  0.87239180  1
  V  V53  1  0.37247985  0.49636965  0.87778414  1
  V  V54  1  0.87480420  0.62799167  0.24829520  1
  V  V55  1  0.75069467  0.75076744  0.50057127  1
  V  V56  1  0.50142353  0.25080043  0.75096686  1
  V  V57  1  0.24809890  0.50052097  0.74910051  1
  V  V58  1  0.87107828  0.37628127  0.00664704  1
  V  V59  1  0.24594040  0.62711613  0.37266461  1
  V  V60  1  0.50266826  0.12264267  0.62328958  1
  V  V61  1  0.12106395  0.62364973  0.49777681  1
  V  V62  1  0.87335365  0.49953732  0.87522921  1
  V  V63  1  0.24780154  0.87767995  0.62628658  1
  V  V64  1  0.74649330  0.12659535  0.87738145  1
  V  V65  1  0.75063995  0.87475338  0.62625684  1
  V  V66  1  0.49874258  0.62425768  0.12418721  1
  V  V67  1  -0.00077878  0.62480414  0.62118502  1
  V  V68  1  0.49520097  0.37435364  0.87802331  1
  V  V69  1  0.74892676  0.25271418  0.00561456  1
  V  V70  1  0.12664552  0.87166250  0.25366364  1
  V  V71  1  0.75124033  0.62446866  0.37365675  1
  V  V72  1  0.24464823  0.75055050  0.49426086  1
  V  V73  1  0.49898062  0.74937286  0.74924644  1
  V  V74  1  0.12433644  0.74940815  0.87451757  1
  V  V75  1  0.37317316  0.62345581  0.74829477  1
  V  V76  1  0.00051234  0.12504866  0.12671701  1
  V  V77  1  0.25170130  0.12703157  0.37507019  1
  V  V78  1  0.74856252  0.49956446  0.75039809  1
  V  V79  1  0.62463353  0.87487610  0.74998644  1
  V  V80  1  0.62458265  0.62441840  0.49811174  1
  V  V81  1  0.87822430  0.50155967  0.38098703  1
  V  V82  1  0.37610439  0.87601541  -0.00032696  1
  V  V83  1  0.87350353  0.62366104  0.74918763  1
  V  V84  1  0.50320110  0.37425828  0.37284242  1
  V  V85  1  0.49727829  0.87570559  0.87578208  1
  V  V86  1  0.75612988  0.87002200  0.12603663  1
  V  V87  1  0.37520108  0.49959585  0.37258566  1
  V  V88  1  0.87315790  0.25258260  0.12747987  1
  V  V89  1  0.12437312  0.37557764  0.24918638  1
  V  V90  1  0.87455650  -0.00081488  0.87852129  1
  V  V91  1  0.00099022  0.25138714  0.25094451  1
  V  V92  1  0.37607792  0.25470758  0.12064504  1
  Zn  Zn93  1  0.50312203  0.25203058  0.24605193  1
  Zn  Zn94  1  0.12446257  -0.00006966  0.12546276  1
  Zn  Zn95  1  0.24825070  0.62418036  0.87468916  1
  Zn  Zn96  1  0.25042740  0.25126251  0.49853919  1
  Zn  Zn97  1  0.62366000  0.25247749  0.87835120  1
  Zn  Zn98  1  0.50429096  0.00032403  0.49855870  1
  Zn  Zn99  1  0.74836137  0.62522874  0.87489343  1
  Zn  Zn100  1  0.49906932  0.00291576  -0.00145776  1
  Zn  Zn101  1  0.12567511  0.25259673  0.37526060  1
  Zn  Zn102  1  0.87615526  0.87520656  0.50089701  1
  Zn  Zn103  1  0.38005718  0.00239071  0.37349902  1
  Zn  Zn104  1  0.24916736  0.12287359  0.87643625  1
  Zn  Zn105  1  0.87751944  0.87098618  0.00630084  1
  Zn  Zn106  1  0.37433670  0.62522994  0.24872289  1
  Zn  Zn107  1  0.62675281  -0.00063215  0.62326945  1
  Zn  Zn108  1  0.12346058  0.87835558  0.74950192  1
  Zn  Zn109  1  0.37231053  0.00004408  0.87809785  1
  Zn  Zn110  1  0.12563971  0.00261598  0.62978471  1
  Zn  Zn111  1  0.62719283  0.12159982  0.50073385  1
  Zn  Zn112  1  0.63367413  0.37175908  0.24309795  1
  Zn  Zn113  1  0.75360277  0.49155167  0.24473335  1
  Zn  Zn114  1  -0.00396235  0.37252623  0.87251427  1
  Zn  Zn115  1  0.24701483  -0.00096782  0.75492404  1
  Zn  Zn116  1  0.62274830  0.12551198  0.00193264  1
  Zn  Zn117  1  0.12439637  0.62413251  -0.00171277  1
  Zn  Zn118  1  0.62405076  0.37529299  0.75081175  1
  Zn  Zn119  1  0.00471000  0.12852939  0.63264643  1
  Zn  Zn120  1  0.75248944  -0.00117906  0.25081928  1
  Zn  Zn121  1  0.50155509  0.12605991  0.12140559  1
  Zn  Zn122  1  0.18793078  0.18902438  0.18714805  1
  Zn  Zn123  1  0.18812382  0.19025046  0.68696458  1
  Zn  Zn124  1  0.18466837  0.68870201  0.18646328  1
  Zn  Zn125  1  0.18658293  0.68894053  0.68681906  1
  Zn  Zn126  1  0.69025692  0.18539258  0.19018414  1
  Zn  Zn127  1  0.68896293  0.18753560  0.68903011  1
  Zn  Zn128  1  0.68714450  0.68442776  0.18510339  1
  Zn  Zn129  1  0.68651206  0.68658153  0.68743999  1
  Zn  Zn130  1  0.31381578  0.31256659  0.30946700  1
  Zn  Zn131  1  0.30829811  0.31195724  0.81028020  1
  Zn  Zn132  1  0.31482725  0.81117102  0.31213875  1
  Zn  Zn133  1  0.31210714  0.81177761  0.81228858  1
  Zn  Zn134  1  0.81164215  0.31385895  0.31265921  1
  Zn  Zn135  1  0.81202600  0.31385272  0.81561613  1
  Zn  Zn136  1  0.81546615  0.81256254  0.31304742  1
  Zn  Zn137  1  0.81216450  0.81196402  0.81498170  1
  Zn  Zn138  1  0.18764136  0.44079596  0.43613597  1
  Zn  Zn139  1  0.18566232  0.43550257  0.93637139  1
  Zn  Zn140  1  0.18900405  0.94157912  0.43684782  1
  Zn  Zn141  1  0.18747970  0.93854795  0.93758191  1
  Zn  Zn142  1  0.69178501  0.43633955  0.43604412  1
  Zn  Zn143  1  0.68442368  0.43646521  0.93673695  1
  Zn  Zn144  1  0.68793546  0.93889072  0.43985154  1
  Zn  Zn145  1  0.68650901  0.93563286  0.93961860  1
  Zn  Zn146  1  0.31090253  0.06298449  0.06248469  1
  Zn  Zn147  1  0.31523703  0.06181612  0.56405062  1
  Zn  Zn148  1  0.31129571  0.56490374  0.05914188  1
  Zn  Zn149  1  0.30952001  0.56074144  0.56071612  1
  Zn  Zn150  1  0.81189075  0.06198137  0.06541867  1
  Zn  Zn151  1  0.81476276  0.06306439  0.56461215  1
  Zn  Zn152  1  0.81138083  0.56498008  0.06173654  1
  Zn  Zn153  1  0.81128108  0.56232043  0.56173465  1
  Zn  Zn154  1  0.44127260  0.43569950  0.18879762  1
  Zn  Zn155  1  0.43650461  0.43738810  0.68803252  1
  Zn  Zn156  1  0.43878006  0.93728288  0.18735013  1
  Zn  Zn157  1  0.43646364  0.93858814  0.68753062  1
  Zn  Zn158  1  0.93680283  0.44025907  0.18926919  1
  Zn  Zn159  1  0.93672672  0.43943800  0.68702609  1
  Zn  Zn160  1  0.93812341  0.93909028  0.18892610  1
  Zn  Zn161  1  0.93574194  0.93860625  0.69040527  1
  Zn  Zn162  1  0.06486791  0.06052101  0.31434344  1
  Zn  Zn163  1  0.06537739  0.06006516  0.81626834  1
  Zn  Zn164  1  0.06336571  0.56126300  0.31107471  1
  Zn  Zn165  1  0.05925953  0.56195278  0.81043699  1
  Zn  Zn166  1  0.56474053  0.06124269  0.31192901  1
  Zn  Zn167  1  0.56105921  0.05989192  0.81229486  1
  Zn  Zn168  1  0.56349957  0.56109690  0.30822741  1
  Zn  Zn169  1  0.56159324  0.56207455  0.81209012  1
  Zn  Zn170  1  0.43903608  0.18956977  0.43769079  1
  Zn  Zn171  1  0.43734109  0.18490929  0.93872615  1
  Zn  Zn172  1  0.43502998  0.68754349  0.43531910  1
  Zn  Zn173  1  0.43584004  0.68593146  0.93678377  1
  Zn  Zn174  1  0.93894350  0.19104354  0.43958988  1
  Zn  Zn175  1  0.93586010  0.18694146  0.94022999  1
  Zn  Zn176  1  0.93791392  0.69062846  0.43616521  1
  Zn  Zn177  1  0.93649380  0.68537538  0.93577663  1
  Zn  Zn178  1  0.06111547  0.31319972  0.06107862  1
  Zn  Zn179  1  0.06289210  0.31116102  0.56080709  1
  Zn  Zn180  1  0.06346876  0.81271625  0.06360017  1
  Zn  Zn181  1  0.06383633  0.81088262  0.56297461  1
  Zn  Zn182  1  0.56067223  0.31254833  0.05946162  1
  Zn  Zn183  1  0.56334916  0.31156372  0.56023721  1
  Zn  Zn184  1  0.56474818  0.81346494  0.06195023  1
  Zn  Zn185  1  0.56386427  0.81206592  0.56320431  1
  O  O186  1  0.11778391  0.12511367  0.11990024  1
  O  O187  1  0.12322969  0.12528427  0.61517068  1
  O  O188  1  0.11319726  0.61895736  0.12480380  1
  O  O189  1  0.12060144  0.61874103  0.61757559  1
  O  O190  1  0.62568756  0.11305620  0.12714565  1
  O  O191  1  0.61411816  0.12549061  0.62607940  1
  O  O192  1  0.61671596  0.61783466  0.11819989  1
  O  O193  1  0.61856969  0.61966329  0.61756307  1
  O  O194  1  0.38102323  0.38006952  0.37848012  1
  O  O195  1  0.38203409  0.38649663  0.86478230  1
  O  O196  1  0.38091049  0.87462230  0.38356159  1
  O  O197  1  0.38084205  0.87289138  0.88164961  1
  O  O198  1  0.88277049  0.38311170  0.38058956  1
  O  O199  1  0.87725007  0.38057316  0.88537569  1
  O  O200  1  0.88779569  0.88084452  0.37635512  1
  O  O201  1  0.88058543  0.88189575  0.87819597  1
  O  O202  1  0.25479657  0.01144411  0.36944176  1
  O  O203  1  0.25390192  0.00435420  0.87288920  1
  O  O204  1  0.25556410  0.50775739  0.36818986  1
  O  O205  1  0.25683950  0.49950203  0.86879848  1
  O  O206  1  0.75903774  0.00538458  0.37515455  1
  O  O207  1  0.75415740  0.00762679  0.87229195  1
  O  O208  1  0.76159509  0.50784117  0.37429082  1
  O  O209  1  0.75483851  0.50135885  0.86882666  1
  O  O210  1  0.24564813  0.49607930  0.12762345  1
  O  O211  1  0.23956284  0.49537881  0.62922490  1
  O  O212  1  0.24783794  0.99235952  0.13243867  1
  O  O213  1  0.25032316  0.98726580  0.62389533  1
  O  O214  1  0.73565225  0.50828062  0.12482001  1
  O  O215  1  0.74519321  0.49424555  0.62955930  1
  O  O216  1  0.74218874  0.99054022  0.12770001  1
  O  O217  1  0.75181830  0.99328378  0.63324389  1
  O  O218  1  0.00431601  0.37143494  0.25788382  1
  O  O219  1  0.01337621  0.37994099  0.75049272  1
  O  O220  1  0.00661286  0.86935364  0.25568376  1
  O  O221  1  -0.00052215  0.86827562  0.75794273  1
  O  O222  1  0.50755873  0.37227348  0.25930785  1
  O  O223  1  0.49886030  0.36535609  0.75613586  1
  O  O224  1  0.50657192  0.86759269  0.25521100  1
  O  O225  1  0.50339275  0.86795457  0.75373779  1
  O  O226  1  0.48791199  0.12677182  0.24872703  1
  O  O227  1  0.49254941  0.13265084  0.74430581  1
  O  O228  1  0.49750919  0.63173912  0.24305932  1
  O  O229  1  0.49379708  0.62938528  0.74221334  1
  O  O230  1  0.99745591  0.13088417  0.24774000  1
  O  O231  1  0.98489209  0.11926068  0.75267962  1
  O  O232  1  0.99627624  0.63192771  0.24541471  1
  O  O233  1  0.99297932  0.63063717  0.74161131  1
  O  O234  1  0.36338946  0.24352671  0.00967593  1
  O  O235  1  0.37417985  0.25817289  0.50603902  1
  O  O236  1  0.36872648  0.75491215  0.00483861  1
  O  O237  1  0.36553560  0.75725795  0.50330766  1
  O  O238  1  0.86897979  0.25764577  0.00623303  1
  O  O239  1  0.87039202  0.25608360  0.51007121  1
  O  O240  1  0.85995630  0.74978863  -0.00574458  1
  O  O241  1  0.86887791  0.75094068  0.50686970  1
  O  O242  1  0.12777229  0.23845603  0.49677253  1
  O  O243  1  0.13166224  0.24625268  0.99346142  1
  O  O244  1  0.13749913  0.73989755  0.50428078  1
  O  O245  1  0.12871344  0.74928646  0.99037956  1
  O  O246  1  0.63222386  0.24661231  0.49141304  1
  O  O247  1  0.63640831  0.24815326  0.99908841  1
  O  O248  1  0.63016467  0.74360162  0.49417152  1
  O  O249  1  0.63149387  0.74439447  0.99439778  1
  O  O250  1  0.48962447  0.24864222  0.12500947  1
  O  O251  1  0.49521468  0.24428147  0.63273538  1
  O  O252  1  0.49604961  0.74439714  0.12866467  1
  O  O253  1  0.49394368  0.74342719  0.62898759  1
  O  O254  1  0.99374642  0.24526821  0.13106552  1
  O  O255  1  0.98567420  0.24881540  0.62174826  1
  O  O256  1  1.00401009  0.73986189  0.13552093  1
  O  O257  1  0.99427657  0.74509416  0.62984493  1
  O  O258  1  0.00082293  0.26220566  0.36885718  1
  O  O259  1  0.01337086  0.25198364  0.88261341  1
  O  O260  1  -0.00200050  0.76200423  0.36559048  1
  O  O261  1  0.00522474  0.75416346  0.87066899  1
  O  O262  1  0.51070668  0.25488552  0.37478656  1
  O  O263  1  0.49684501  0.25795944  0.86736878  1
  O  O264  1  0.50594517  0.75373673  0.36973379  1
  O  O265  1  0.50362781  0.75459900  0.86813013  1
  O  O266  1  0.24468154  0.12403330  0.49240087  1
  O  O267  1  0.24240191  0.13708029  1.00153871  1
  O  O268  1  0.24280386  0.63137929  0.49319399  1
  O  O269  1  0.24488085  0.63421803  0.99574544  1
  O  O270  1  0.75197407  0.13160871  0.49495835  1
  O  O271  1  0.75227312  0.13371714  0.99135221  1
  O  O272  1  0.74402040  0.63083234  0.49435987  1
  O  O273  1  0.74263572  0.63396478  0.99877025  1
  O  O274  1  0.24362231  0.36271726  0.00650245  1
  O  O275  1  0.25565509  0.37534279  0.50409128  1
  O  O276  1  0.25473628  0.86884977  0.00673654  1
  O  O277  1  0.25634990  0.86833188  0.50241154  1
  O  O278  1  0.76007235  0.36436787  -0.00697351  1
  O  O279  1  0.75852558  0.36944070  0.50679025  1
  O  O280  1  0.75070626  0.86619971  0.00850668  1
  O  O281  1  0.75274006  0.86772094  0.50706919  1
  O  O282  1  0.13102377  0.49511484  0.24247599  1
  O  O283  1  0.12866159  0.49368175  0.74099972  1
  O  O284  1  0.13119259  0.98940343  0.24889864  1
  O  O285  1  0.12852962  0.99648023  0.74645430  1
  O  O286  1  0.62773706  0.49975533  0.23827660  1
  O  O287  1  0.62956780  0.49978530  0.74134813  1
  O  O288  1  0.62923859  0.99208750  0.24288367  1
  O  O289  1  0.63196672  0.99261182  0.74822926  1
  O  O290  1  0.36944907  0.00995760  0.24949635  1
  O  O291  1  0.37268565  0.01170294  0.75018122  1
  O  O292  1  0.36829842  0.50185672  0.25469631  1
  O  O293  1  0.36828916  0.50440617  0.75536747  1
  O  O294  1  0.87669448  0.00768776  0.25900654  1
  O  O295  1  0.86846453  0.00862950  0.75807066  1
  O  O296  1  0.87595698  0.51186826  0.26048832  1
  O  O297  1  0.86875579  0.50445242  0.75431965  1
  O  O298  1  0.11684238  0.37795325  0.36937522  1
  O  O299  1  0.12244571  0.36805348  0.86560981  1
  O  O300  1  0.11617078  0.88169490  0.36561298  1
  O  O301  1  0.11773456  0.86369055  0.87480132  1
  O  O302  1  0.62091678  0.36372029  0.37942108  1
  O  O303  1  0.61057325  0.37381688  0.87028097  1
  O  O304  1  0.62196376  0.86760524  0.37054269  1
  O  O305  1  0.61817039  0.86901909  0.86918538  1
  O  O306  1  0.37282484  0.13473064  0.13398882  1
  O  O307  1  0.38309400  0.13083334  0.63187381  1
  O  O308  1  0.38079274  0.63162964  0.12511738  1
  O  O309  1  0.37916596  0.62844435  0.62705075  1
  O  O310  1  0.88128253  0.13094847  0.13286648  1
  O  O311  1  0.87562266  0.13388451  0.63573481  1
  O  O312  1  0.88659050  0.61716801  0.13656309  1
  O  O313  1  0.87991100  0.62958582  0.62847799  1
  O  O314  1  0.25566919  0.25587240  0.11819710  1
  O  O315  1  0.25715297  0.25855684  0.62243319  1
  O  O316  1  0.25443357  0.75511168  0.12037007  1
  O  O317  1  0.25484849  0.75672068  0.61449249  1
  O  O318  1  0.75774909  0.24176879  0.11340118  1
  O  O319  1  0.75874162  0.25520281  0.62187043  1
  O  O320  1  0.74180352  0.75870443  0.11457685  1
  O  O321  1  0.75476764  0.75427612  0.62046650  1
  O  O322  1  0.24908243  0.23873730  0.37540675  1
  O  O323  1  0.24115811  0.25043285  0.88404016  1
  O  O324  1  0.25544519  0.73991542  0.38370089  1
  O  O325  1  0.23965554  0.74968285  0.87913475  1
  O  O326  1  0.74490963  0.24447153  0.38243066  1
  O  O327  1  0.74975285  0.24179596  0.88465620  1
  O  O328  1  0.74571191  0.74478284  0.38035134  1
  O  O329  1  0.74126045  0.74948467  0.88361301  1
  O  O330  1  0.00404379  0.12015504  0.00697142  1
  O  O331  1  0.01003625  0.11672250  0.49800434  1
  O  O332  1  -0.00208489  0.62019572  0.01031916  1
  O  O333  1  0.01416331  0.63499464  0.50356397  1
  O  O334  1  0.50499819  0.12131712  0.00304514  1
  O  O335  1  0.49918274  0.12506855  0.51272044  1
  O  O336  1  0.50434977  0.61876127  0.00427986  1
  O  O337  1  0.50433980  0.61988402  0.50343268  1
  O  O338  1  0.49412059  0.38104252  0.49411183  1
  O  O339  1  0.50013670  0.38000341  0.98528916  1
  O  O340  1  0.49003576  0.87062431  0.49524521  1
  O  O341  1  0.49348918  0.87345297  0.99295990  1
  O  O342  1  0.99534900  0.37047491  0.48747944  1
  O  O343  1  0.98879916  0.38169025  0.99873978  1
  O  O344  1  1.00294135  0.88215630  0.49240160  1
  O  O345  1  0.99719905  0.88035093  0.99687597  1
  O  O346  1  0.49571711  0.49592715  0.37992019  1
  O  O347  1  0.49148061  0.49286447  0.87651302  1
  O  O348  1  0.49897101  0.99084275  0.37712759  1
  O  O349  1  0.49587138  0.98986538  0.87605881  1
  O  O350  1  0.99070911  0.49070435  0.36909173  1
  O  O351  1  0.99176186  0.49966852  0.88173168  1
  O  O352  1  0.99744341  0.99190422  0.38422518  1
  O  O353  1  0.99440608  0.99440355  0.88281460  1
  O  O354  1  0.00139321  0.00702170  0.12048703  1
  O  O355  1  0.00000824  0.00208288  0.61357458  1
  O  O356  1  0.00488438  0.50841972  0.12065165  1
  O  O357  1  0.01114893  0.50727061  0.62751755  1
  O  O358  1  0.51291578  -0.00083481  0.12489916  1
  O  O359  1  0.50133127  0.01156122  0.62501358  1
  O  O360  1  0.50368854  0.50530816  0.11807787  1
  O  O361  1  0.50399367  0.50458940  0.61833287  1
  O  O362  1  0.24419943  0.38145869  0.24385113  1
  O  O363  1  0.23921786  0.38086527  0.74217861  1
  O  O364  1  0.24382582  0.87779150  0.24819324  1
  O  O365  1  0.25067195  0.87309277  0.73613663  1
  O  O366  1  0.74717124  0.37880360  0.25251104  1
  O  O367  1  0.74741504  0.38101866  0.74445420  1
  O  O368  1  0.74513320  0.87260388  0.24298174  1
  O  O369  1  0.74474635  0.87927772  0.74641665  1
  O  O370  1  0.25689859  0.12146598  0.25674386  1
  O  O371  1  0.26212003  0.12672433  0.74863396  1
  O  O372  1  0.24848576  0.62101591  0.25774969  1
  O  O373  1  0.25512201  0.61880402  0.74942138  1
  O  O374  1  0.76083354  0.12365320  0.25949374  1
  O  O375  1  0.75792970  0.12085861  0.75953623  1
  O  O376  1  0.76158389  0.62724319  0.25516538  1
  O  O377  1  0.75593845  0.61804694  0.75003058  1
  O  O378  1  0.36832358  0.12649764  0.36656161  1
  O  O379  1  0.37308502  0.12564135  0.86294135  1
  O  O380  1  0.36293633  0.61863282  0.37412549  1
  O  O381  1  0.37424531  0.61401347  0.86602033  1
  O  O382  1  0.87316704  0.12115490  0.37230549  1
  O  O383  1  0.86630033  0.12168228  0.87042563  1
  O  O384  1  0.87357716  0.61893779  0.36935940  1
  O  O385  1  0.87216185  0.61746821  0.86685297  1
  O  O386  1  0.12997005  0.38095249  0.12986480  1
  O  O387  1  0.12713115  0.38137781  0.62898547  1
  O  O388  1  0.13140252  0.87575860  0.13666580  1
  O  O389  1  0.13654459  0.87553275  0.62445559  1
  O  O390  1  0.61669256  0.38946166  0.12299706  1
  O  O391  1  0.63136705  0.38084014  0.62526213  1
  O  O392  1  0.63378435  0.88096099  0.13088405  1
  O  O393  1  0.63207798  0.87380690  0.63307079  1
  O  O394  1  0.11933515  0.25818580  0.25184631  1
  O  O395  1  0.13092021  0.25975661  0.75940379  1
  O  O396  1  0.11540378  0.76099179  0.24862781  1
  O  O397  1  0.11780217  0.75189242  0.75770674  1
  O  O398  1  0.62507150  0.24923256  0.26230169  1
  O  O399  1  0.61150918  0.24999729  0.75309521  1
  O  O400  1  0.62030565  0.75334245  0.25531899  1
  O  O401  1  0.61836898  0.75406386  0.75474789  1
  O  O402  1  0.37495626  0.24143034  0.24004647  1
  O  O403  1  0.38302631  0.24387240  0.74446255  1
  O  O404  1  0.38225366  0.74885437  0.24225934  1
  O  O405  1  0.37954577  0.74344809  0.74301153  1
  O  O406  1  0.88195472  0.24527784  0.24669388  1
  O  O407  1  0.86820551  0.24170281  0.74309482  1
  O  O408  1  0.88715486  0.73787487  0.25583207  1
  O  O409  1  0.87889627  0.74356041  0.74505944  1
  O  O410  1  0.37991660  0.49533522  0.49335961  1
  O  O411  1  0.37966860  0.50576345  0.98536319  1
  O  O412  1  0.37765402  0.98634921  0.49827870  1
  O  O413  1  0.37697469  0.99075501  1.00112484  1
  O  O414  1  0.87235008  0.49515573  0.48882524  1
  O  O415  1  0.87704224  0.49335932  0.99661472  1
  O  O416  1  0.88685970  0.99924196  0.49537923  1
  O  O417  1  0.88133414  0.99951272  0.99506474  1
  O  O418  1  0.11739827  0.00733789  0.00214859  1
  O  O419  1  0.11815970  0.00955629  0.50133059  1
  O  O420  1  0.11754990  0.50116708  0.00485710  1
  O  O421  1  0.13147536  0.51123323  0.51097764  1
  O  O422  1  0.62476454  0.00041405  0.01207843  1
  O  O423  1  0.62181114  0.00378492  0.50551729  1
  O  O424  1  0.61774678  0.50488303  0.00534777  1
  O  O425  1  0.62007723  0.50506335  0.50374156  1
  O  O426  1  0.36847864  0.36269583  0.13204469  1
  O  O427  1  0.36921779  0.37246687  0.61901724  1
  O  O428  1  0.36979604  0.86795517  0.12068101  1
  O  O429  1  0.36878687  0.86894414  0.61574818  1
  O  O430  1  0.87994578  0.37069240  0.11424443  1
  O  O431  1  0.87075698  0.36914891  0.62237929  1
  O  O432  1  0.86069888  0.87926884  0.12673343  1
  O  O433  1  0.86876243  0.86746920  0.62507840  1
  O  O434  1  0.13521677  0.12550786  0.38285289  1
  O  O435  1  0.12635585  0.13486146  0.88157556  1
  O  O436  1  0.13651067  0.61536933  0.38389605  1
  O  O437  1  0.12324658  0.63744954  0.87449320  1
  O  O438  1  0.63207177  0.13385412  0.37617935  1
  O  O439  1  0.63739123  0.12611286  0.87481372  1
  O  O440  1  0.63043460  0.62956196  0.37909797  1
  O  O441  1  0.62389582  0.63084641  0.88146282  1
