# generated using pymatgen
data_V93Zn93O256
_symmetry_space_group_name_H-M   'P 1'
_cell_length_a   17.05974647
_cell_length_b   17.05768048
_cell_length_c   17.06379810
_cell_angle_alpha   90.02867048
_cell_angle_beta   89.98703416
_cell_angle_gamma   89.93489377
_symmetry_Int_Tables_number   1
_chemical_formula_structural   V93Zn93O256
_chemical_formula_sum   'V93 Zn93 O256'
_cell_volume   4965.55624835
_cell_formula_units_Z   1
loop_
 _symmetry_equiv_pos_site_id
 _symmetry_equiv_pos_as_xyz
  1  'x, y, z'
loop_
 _atom_site_type_symbol
 _atom_site_label
 _atom_site_symmetry_multiplicity
 _atom_site_fract_x
 _atom_site_fract_y
 _atom_site_fract_z
 _atom_site_occupancy
  V  V0  1  0.25826559  0.76100564  0.00715763  1
  V  V1  1  0.12527493  0.00131471  0.62354739  1
  V  V2  1  0.50022338  0.87899131  0.87930196  1
  V  V3  1  0.74939779  0.37585812  0.62542574  1
  V  V4  1  0.62586842  0.49829138  0.12480916  1
  V  V5  1  0.74996995  0.12430881  0.37386647  1
  V  V6  1  0.12706369  0.62528486  0.00039789  1
  V  V7  1  0.87443255  0.62360211  0.24928317  1
  V  V8  1  0.37524758  0.12649436  0.25035855  1
  V  V9  1  0.87717525  0.62729459  0.74814714  1
  V  V10  1  0.50060815  0.24375926  0.24570430  1
  V  V11  1  0.25114541  0.87571488  0.62531482  1
  V  V12  1  0.75027214  0.87217253  0.11791404  1
  V  V13  1  0.00045936  0.87605285  0.87428625  1
  V  V14  1  0.87556643  0.87451820  0.49950307  1
  V  V15  1  0.62512523  0.87402217  0.74891703  1
  V  V16  1  0.12703524  0.87417640  0.24548803  1
  V  V17  1  0.87480248  0.12486210  0.24907235  1
  V  V18  1  0.00374502  0.24831518  0.25202640  1
  V  V19  1  0.87467202  0.37426715  0.49925196  1
  V  V20  1  0.37465687  0.12564547  0.74899894  1
  V  V21  1  0.00511076  0.36843425  0.37483927  1
  V  V22  1  0.25031872  0.37347506  0.12567149  1
  V  V23  1  0.00078622  0.49705101  -0.00116592  1
  V  V24  1  0.75045667  0.24929834  0.00032883  1
  V  V25  1  0.00009217  0.62419473  0.12499603  1
  V  V26  1  0.24992876  0.00073901  0.74948678  1
  V  V27  1  0.62521824  0.37448676  0.24912017  1
  V  V28  1  0.00287691  0.50176631  0.50242553  1
  V  V29  1  0.49977335  0.50009743  0.50007852  1
  V  V30  1  0.87517945  0.24940429  0.62601876  1
  V  V31  1  0.24175828  0.12954285  0.37543726  1
  V  V32  1  0.12313629  0.12441482  -0.00066102  1
  V  V33  1  0.75079366  0.87596586  0.62352201  1
  V  V34  1  0.61578760  0.00349026  0.12153914  1
  V  V35  1  0.50089837  0.25094038  0.74986991  1
  V  V36  1  0.24860343  0.12514749  0.87359490  1
  V  V37  1  0.00099851  0.74951007  0.24872433  1
  V  V38  1  0.61180975  0.12273147  0.00332407  1
  V  V39  1  0.37639366  0.75070423  0.62622066  1
  V  V40  1  0.75035609  0.74796549  0.49775762  1
  V  V41  1  0.87505336  0.12547713  0.75006609  1
  V  V42  1  0.87373283  0.50013363  0.37258498  1
  V  V43  1  0.12624174  -0.00372100  0.12473812  1
  V  V44  1  0.74945408  0.24970474  0.50016365  1
  V  V45  1  0.49896075  0.62628447  0.12472501  1
  V  V46  1  0.24895145  0.25006713  0.00053057  1
  V  V47  1  0.12555299  0.87517529  0.75048841  1
  V  V48  1  0.12085300  0.25737920  0.87462150  1
  V  V49  1  0.63126467  0.62943086  -0.00417230  1
  V  V50  1  0.24935701  -0.00454857  0.24647755  1
  V  V51  1  0.87876150  0.49731815  0.87517626  1
  V  V52  1  -0.00042410  0.25675872  0.75334285  1
  V  V53  1  0.00030496  0.87410390  0.37412178  1
  V  V54  1  0.49966606  0.12603186  0.62415925  1
  V  V55  1  0.37767682  0.24560042  0.12389853  1
  V  V56  1  0.50174402  0.87367579  0.37703967  1
  V  V57  1  0.62466941  0.50161849  0.62520049  1
  V  V58  1  -0.00048268  0.12342544  0.12536189  1
  V  V59  1  0.87521266  0.24962137  0.12396500  1
  V  V60  1  0.87968798  0.37379523  -0.00341902  1
  V  V61  1  0.24705232  0.37848360  0.62889321  1
  V  V62  1  0.62483535  0.24966529  0.87552440  1
  V  V63  1  0.24172840  0.25103327  0.49659669  1
  V  V64  1  0.87144751  0.74941382  0.11726901  1
  V  V65  1  0.37852122  -0.00199676  0.87958342  1
  V  V66  1  0.37550972  0.49941507  0.37391969  1
  V  V67  1  0.62551510  0.00083157  0.62441966  1
  V  V68  1  0.75010656  -0.00142398  0.24813437  1
  V  V69  1  0.12512153  0.37059959  0.25149660  1
  V  V70  1  0.37377271  0.62577951  0.24675337  1
  V  V71  1  0.12633623  0.74851968  0.37466149  1
  V  V72  1  0.50140208  0.74988302  0.25121089  1
  V  V73  1  0.49956060  0.00111926  0.49967273  1
  V  V74  1  0.37445513  0.37586429  0.49932138  1
  V  V75  1  0.24971049  0.74996427  0.49858338  1
  V  V76  1  0.12509426  0.49928212  0.12536627  1
  V  V77  1  0.62471678  0.37523802  0.75174635  1
  V  V78  1  -0.00144213  -0.00156422  -0.00032779  1
  V  V79  1  0.75044200  0.12401419  0.87588000  1
  V  V80  1  0.37550949  0.87579935  0.50152969  1
  V  V81  1  0.87570862  0.00003776  0.87464295  1
  V  V82  1  0.50077852  0.62599941  0.62481652  1
  V  V83  1  0.00113773  0.00016966  0.49975709  1
  V  V84  1  0.12718879  0.74906719  0.87529300  1
  V  V85  1  0.62440755  0.12593215  0.49960013  1
  V  V86  1  0.49679205  0.49810211  -0.00228335  1
  V  V87  1  0.37400850  0.62342166  0.75275967  1
  V  V88  1  0.25047959  0.49933455  0.24967818  1
  V  V89  1  0.62411882  0.25022164  0.37397353  1
  V  V90  1  0.74996817  0.50220421  0.75212338  1
  V  V91  1  0.37359747  0.00191366  0.37731237  1
  V  V92  1  0.37374851  0.25044431  0.62411618  1
  Zn  Zn93  1  0.24824036  0.62424215  0.37566735  1
  Zn  Zn94  1  0.63039236  0.75821586  0.88104025  1
  Zn  Zn95  1  0.37346503  0.77515299  0.12364918  1
  Zn  Zn96  1  0.00449068  0.62928886  0.62455084  1
  Zn  Zn97  1  0.62580689  0.62471974  0.49790894  1
  Zn  Zn98  1  0.75656050  0.63647849  0.87965372  1
  Zn  Zn99  1  0.37484494  0.37426670  -0.00193108  1
  Zn  Zn100  1  0.24606980  0.50115439  0.75565775  1
  Zn  Zn101  1  0.00072788  0.74999210  0.74718230  1
  Zn  Zn102  1  0.37307609  0.49542959  0.87337397  1
  Zn  Zn103  1  0.12037916  0.13029096  0.49813820  1
  Zn  Zn104  1  0.12503057  0.50403802  0.63044751  1
  Zn  Zn105  1  0.49920446  0.37467690  0.37537591  1
  Zn  Zn106  1  0.25452833  0.62414347  0.87796182  1
  Zn  Zn107  1  0.62609869  0.74774335  0.37475810  1
  Zn  Zn108  1  0.62677256  0.87446083  0.25041771  1
  Zn  Zn109  1  0.75153218  0.37420059  0.12508281  1
  Zn  Zn110  1  0.87815309  0.75013924  0.62519374  1
  Zn  Zn111  1  0.74727014  0.62540554  0.37289181  1
  Zn  Zn112  1  0.00148998  0.12667217  0.62418941  1
  Zn  Zn113  1  0.12056174  0.38016325  0.75353938  1
  Zn  Zn114  1  0.44079188  -0.05900436  0.04130791  1
  Zn  Zn115  1  0.49776761  0.37403546  0.87555277  1
  Zn  Zn116  1  0.12785039  0.62447484  0.50164173  1
  Zn  Zn117  1  0.75149699  0.00026996  0.74943243  1
  Zn  Zn118  1  0.74876230  0.50030365  0.25059268  1
  Zn  Zn119  1  0.87051831  0.86882801  -0.00648017  1
  Zn  Zn120  1  0.50056142  0.74986557  0.75289191  1
  Zn  Zn121  1  0.87507363  -0.00088084  0.37402168  1
  Zn  Zn122  1  0.18735355  0.18545939  0.18736742  1
  Zn  Zn123  1  0.18478535  0.18874801  0.68621189  1
  Zn  Zn124  1  0.18938107  0.68836133  0.18483329  1
  Zn  Zn125  1  0.18850480  0.68569260  0.68579437  1
  Zn  Zn126  1  0.68765743  0.18546285  0.18395837  1
  Zn  Zn127  1  0.68851132  0.18741580  0.68839871  1
  Zn  Zn128  1  0.68900756  0.68528775  0.18625497  1
  Zn  Zn129  1  0.69070886  0.68863271  0.68657503  1
  Zn  Zn130  1  0.31267635  0.31278504  0.31329939  1
  Zn  Zn131  1  0.31270647  0.31339588  0.81407615  1
  Zn  Zn132  1  0.31442252  0.81240036  0.31403480  1
  Zn  Zn133  1  0.31354663  0.81189729  0.81489219  1
  Zn  Zn134  1  0.81329803  0.31198632  0.31194931  1
  Zn  Zn135  1  0.81155538  0.31288540  0.81371083  1
  Zn  Zn136  1  0.81491125  0.81200697  0.31099781  1
  Zn  Zn137  1  0.80873964  0.81108389  0.81374408  1
  Zn  Zn138  1  0.18803245  0.43793090  0.43724829  1
  Zn  Zn139  1  0.19194164  0.43914994  0.93830728  1
  Zn  Zn140  1  0.18658427  0.93653974  0.43482603  1
  Zn  Zn141  1  0.18830494  0.93794014  0.93714916  1
  Zn  Zn142  1  0.68606283  0.43704854  0.43775540  1
  Zn  Zn143  1  0.69127865  0.43820862  0.93673973  1
  Zn  Zn144  1  0.68643670  0.93520428  0.43603387  1
  Zn  Zn145  1  0.68604120  0.94157164  0.93766915  1
  Zn  Zn146  1  0.30859647  0.06642998  0.06393782  1
  Zn  Zn147  1  0.31047267  0.06489661  0.56159668  1
  Zn  Zn148  1  0.31069655  0.56624964  0.06167158  1
  Zn  Zn149  1  0.31330554  0.56388559  0.56343202  1
  Zn  Zn150  1  0.80956624  0.06124071  0.06036179  1
  Zn  Zn151  1  0.81393730  0.06213703  0.56291171  1
  Zn  Zn152  1  0.81246623  0.56029899  0.06418416  1
  Zn  Zn153  1  0.81400566  0.56319129  0.56306980  1
  Zn  Zn154  1  0.43843479  0.43455333  0.18589836  1
  Zn  Zn155  1  0.43650841  0.43831919  0.68689384  1
  Zn  Zn156  1  0.43621500  0.93685034  0.20179430  1
  Zn  Zn157  1  0.43887503  0.93853094  0.69045961  1
  Zn  Zn158  1  0.93853833  0.43518618  0.18650728  1
  Zn  Zn159  1  0.93571450  0.43846833  0.68694513  1
  Zn  Zn160  1  0.93708488  0.93460197  0.18530356  1
  Zn  Zn161  1  0.93777952  0.93674499  0.68712452  1
  Zn  Zn162  1  0.06261891  0.06066532  0.31248081  1
  Zn  Zn163  1  0.06086307  0.06604141  0.81074637  1
  Zn  Zn164  1  0.06284821  0.56151999  0.31379892  1
  Zn  Zn165  1  0.06203536  0.56236264  0.81295175  1
  Zn  Zn166  1  0.56389558  0.06161070  0.31154271  1
  Zn  Zn167  1  0.56333536  0.06242005  0.81341989  1
  Zn  Zn168  1  0.56200346  0.56383820  0.31543152  1
  Zn  Zn169  1  0.55938462  0.56214028  0.81285398  1
  Zn  Zn170  1  0.43465984  0.18993112  0.43525199  1
  Zn  Zn171  1  0.43556566  0.18766088  0.93472988  1
  Zn  Zn172  1  0.43600093  0.68580698  0.43731934  1
  Zn  Zn173  1  0.44275119  0.69152310  0.93588466  1
  Zn  Zn174  1  0.93515010  0.18558328  0.43679827  1
  Zn  Zn175  1  0.93832334  0.18660800  0.93603388  1
  Zn  Zn176  1  0.93731147  0.68665478  0.43678178  1
  Zn  Zn177  1  0.94170349  0.68426668  0.93458927  1
  Zn  Zn178  1  0.06221502  0.31164370  0.06433837  1
  Zn  Zn179  1  0.06137445  0.31608408  0.56639457  1
  Zn  Zn180  1  0.06261563  0.81266729  0.06088304  1
  Zn  Zn181  1  0.06300248  0.81134815  0.56327368  1
  Zn  Zn182  1  0.56231014  0.31152420  0.06150918  1
  Zn  Zn183  1  0.56189251  0.31468162  0.56357064  1
  Zn  Zn184  1  0.56578802  0.81149287  0.06842312  1
  Zn  Zn185  1  0.56406260  0.81089126  0.56304379  1
  O  O186  1  0.11842514  0.11821317  0.11914092  1
  O  O187  1  0.12305035  0.11646836  0.62024549  1
  O  O188  1  0.11925851  0.61855968  0.12101150  1
  O  O189  1  0.12230239  0.62108668  0.61977548  1
  O  O190  1  0.63031283  0.11517781  0.11549826  1
  O  O191  1  0.61963352  0.12177613  0.61876970  1
  O  O192  1  0.61970288  0.61561445  0.11806712  1
  O  O193  1  0.61913083  0.61832449  0.62445119  1
  O  O194  1  0.37620457  0.38161372  0.38088197  1
  O  O195  1  0.37960850  0.37603337  0.88052569  1
  O  O196  1  0.38118053  0.88227725  0.38196436  1
  O  O197  1  0.38577953  0.88648929  0.86863382  1
  O  O198  1  0.88314299  0.38146448  0.37844197  1
  O  O199  1  0.86979218  0.38432941  0.88566760  1
  O  O200  1  0.88308886  0.87740578  0.38026372  1
  O  O201  1  0.88179887  0.88100331  0.87482138  1
  O  O202  1  0.25454163  0.00867784  0.36820268  1
  O  O203  1  0.25703680  0.00508671  0.86885011  1
  O  O204  1  0.25695455  0.50099629  0.36706820  1
  O  O205  1  0.25589476  0.50637856  0.87446930  1
  O  O206  1  0.74910794  0.00475370  0.36380438  1
  O  O207  1  0.75809447  0.00675133  0.87327330  1
  O  O208  1  0.76421422  0.49779482  0.37493582  1
  O  O209  1  0.76186353  0.50451175  0.87028810  1
  O  O210  1  0.24445427  0.49386630  0.13006859  1
  O  O211  1  0.25077884  0.48740335  0.62418937  1
  O  O212  1  0.24252886  1.01023234  0.13963935  1
  O  O213  1  0.24618473  0.99510871  0.62971216  1
  O  O214  1  0.73680138  0.49666107  0.12743211  1
  O  O215  1  0.74543627  0.49413099  0.63048992  1
  O  O216  1  0.74529003  0.99295176  0.13318461  1
  O  O217  1  0.74264850  0.99430695  0.62402431  1
  O  O218  1  0.00450889  0.36877336  0.25695904  1
  O  O219  1  -0.00141097  0.36049621  0.74607075  1
  O  O220  1  0.00537102  0.86913701  0.25455542  1
  O  O221  1  0.00825868  0.87460004  0.75695834  1
  O  O222  1  0.51068432  0.36488160  0.25067241  1
  O  O223  1  0.50740766  0.36820767  0.74866595  1
  O  O224  1  0.50194585  0.86448300  0.25942115  1
  O  O225  1  0.50960885  0.87569963  0.75731295  1
  O  O226  1  0.49346093  0.13674357  0.25625287  1
  O  O227  1  0.49551648  0.13076480  0.74302870  1
  O  O228  1  0.49240937  0.63159018  0.24584190  1
  O  O229  1  0.49308298  0.62739542  0.74284240  1
  O  O230  1  0.99495992  0.12803180  0.24574486  1
  O  O231  1  0.99287308  0.13624033  0.74698678  1
  O  O232  1  0.99507422  0.62925631  0.24361560  1
  O  O233  1  0.98828681  0.62580711  0.74947239  1
  O  O234  1  0.36872322  0.24723689  0.00925194  1
  O  O235  1  0.36624088  0.25550536  0.50543234  1
  O  O236  1  0.36137127  0.74528815  0.00008768  1
  O  O237  1  0.37031315  0.75726541  0.50534484  1
  O  O238  1  0.87233147  0.25649463  0.00299097  1
  O  O239  1  0.86861714  0.25471524  0.50497666  1
  O  O240  1  0.88138859  0.74733227  0.01390212  1
  O  O241  1  0.86731005  0.75651004  0.49973674  1
  O  O242  1  0.13822240  0.25103469  0.50464858  1
  O  O243  1  0.12755747  0.24433375  0.99377889  1
  O  O244  1  0.13259260  0.75216465  0.49161310  1
  O  O245  1  0.13275034  0.74574700  0.99379776  1
  O  O246  1  0.62955787  0.24574416  0.49485187  1
  O  O247  1  0.63045335  0.24296238  0.99639129  1
  O  O248  1  0.63761179  0.74913920  0.49914041  1
  O  O249  1  0.62025738  0.73084233  1.00542814  1
  O  O250  1  0.49032677  0.25494843  0.13531660  1
  O  O251  1  0.49444090  0.24459784  0.62930569  1
  O  O252  1  0.49544960  0.74508425  0.13455766  1
  O  O253  1  0.49308487  0.74432656  0.62549203  1
  O  O254  1  0.99421150  0.24215161  0.13065615  1
  O  O255  1  0.99293652  0.24859160  0.63248585  1
  O  O256  1  0.99318906  0.74385355  0.12985184  1
  O  O257  1  0.99592864  0.74828917  0.62888529  1
  O  O258  1  -0.00746993  0.26152572  0.36992458  1
  O  O259  1  0.00996755  0.24392990  0.86641767  1
  O  O260  1  0.00535676  0.75480237  0.36821099  1
  O  O261  1  0.01248592  0.75635549  0.87540170  1
  O  O262  1  0.50548200  0.25248090  0.36487662  1
  O  O263  1  0.50742603  0.24993846  0.86691189  1
  O  O264  1  0.49816047  0.75469954  0.36665309  1
  O  O265  1  0.50859495  0.76309150  0.87178674  1
  O  O266  1  0.24901142  0.13388868  0.49206768  1
  O  O267  1  0.24146844  0.13116588  0.99388193  1
  O  O268  1  0.25133559  0.63477775  0.49661488  1
  O  O269  1  0.24241879  0.63536608  0.99930990  1
  O  O270  1  0.74433193  0.13021535  0.49447520  1
  O  O271  1  0.74502390  0.13217348  0.99327893  1
  O  O272  1  0.75188429  0.63614235  0.49848625  1
  O  O273  1  0.73375262  0.61627198  1.00144309  1
  O  O274  1  0.25111027  0.36685730  0.00911180  1
  O  O275  1  0.25451420  0.36823530  0.50573745  1
  O  O276  1  0.24671507  0.85978809  -0.00446762  1
  O  O277  1  0.25676085  0.87184770  0.50516410  1
  O  O278  1  0.76093301  0.36846642  0.00215216  1
  O  O279  1  0.75461709  0.36879745  0.50507685  1
  O  O280  1  0.75164042  0.88114431  0.01417691  1
  O  O281  1  0.75544405  0.86902958  0.50334660  1
  O  O282  1  0.13001350  0.49305209  0.24421650  1
  O  O283  1  0.12729050  0.49559774  0.74931441  1
  O  O284  1  0.13199017  0.99479618  0.24542947  1
  O  O285  1  0.13077608  0.99595071  0.74506579  1
  O  O286  1  0.62192705  0.49115764  0.24175705  1
  O  O287  1  0.62992952  0.49542444  0.74548809  1
  O  O288  1  0.63541802  1.00235734  0.24109053  1
  O  O289  1  0.62613413  0.99219512  0.74209304  1
  O  O290  1  0.36671390  0.00759198  0.25841799  1
  O  O291  1  0.36894466  0.00690958  0.75682851  1
  O  O292  1  0.37140766  0.50560010  0.25299536  1
  O  O293  1  0.37408272  0.51184362  0.74975613  1
  O  O294  1  0.86528751  0.00539644  0.24864677  1
  O  O295  1  0.87537678  0.00753668  0.75644138  1
  O  O296  1  0.87583040  0.50297789  0.25751030  1
  O  O297  1  0.87115579  0.50459737  0.75809016  1
  O  O298  1  0.11183404  0.38121799  0.36818128  1
  O  O299  1  0.13147912  0.35990130  0.87562225  1
  O  O300  1  0.11948737  0.86856850  0.36614308  1
  O  O301  1  0.12096464  0.86841888  0.86973129  1
  O  O302  1  0.62377687  0.36883395  0.36536269  1
  O  O303  1  0.62535452  0.36793369  0.86894271  1
  O  O304  1  0.61671304  0.87129603  0.37105314  1
  O  O305  1  0.61860752  0.88206379  0.86425767  1
  O  O306  1  0.36789713  0.13845203  0.13354939  1
  O  O307  1  0.38002380  0.13013381  0.62945640  1
  O  O308  1  0.38110272  0.62196064  0.13785361  1
  O  O309  1  0.38101660  0.63096282  0.63287137  1
  O  O310  1  0.88023764  0.12949606  0.12948148  1
  O  O311  1  0.87518567  0.13263060  0.63135588  1
  O  O312  1  0.87967756  0.62992165  0.12904325  1
  O  O313  1  0.87811932  0.62371438  0.63733482  1
  O  O314  1  0.25676931  0.25367928  0.12079591  1
  O  O315  1  0.25498093  0.25693954  0.61717747  1
  O  O316  1  0.25290801  0.74966192  0.11183803  1
  O  O317  1  0.25633999  0.75796469  0.61885904  1
  O  O318  1  0.75809605  0.25026645  0.11824925  1
  O  O319  1  0.75443996  0.25601020  0.61947884  1
  O  O320  1  0.76015537  0.76009719  0.13321846  1
  O  O321  1  0.75365176  0.75776354  0.61442719  1
  O  O322  1  0.25629505  0.24112794  0.38451423  1
  O  O323  1  0.24197928  0.24324415  0.88004250  1
  O  O324  1  0.24448214  0.74994759  0.38037276  1
  O  O325  1  0.24085934  0.74869694  0.88435542  1
  O  O326  1  0.74455788  0.24456286  0.38010464  1
  O  O327  1  0.74412663  0.24417510  0.88055469  1
  O  O328  1  0.75018384  0.75027084  0.38467035  1
  O  O329  1  0.74213216  0.74833311  0.87674336  1
  O  O330  1  0.00459034  0.11904612  0.00575987  1
  O  O331  1  0.00105074  0.11413585  0.49920821  1
  O  O332  1  0.00681053  0.61749109  0.00656465  1
  O  O333  1  -0.00068330  0.61213922  0.49944096  1
  O  O334  1  0.51288010  0.12926158  -0.00357504  1
  O  O335  1  0.50425242  0.12151942  0.50393251  1
  O  O336  1  0.50869339  0.61658599  0.00567215  1
  O  O337  1  0.49905967  0.61780429  0.50748931  1
  O  O338  1  0.49232616  0.38115160  0.49982287  1
  O  O339  1  0.49900174  0.38555612  1.00045995  1
  O  O340  1  0.49479047  0.88168894  0.49675259  1
  O  O341  1  0.51288012  0.87389890  0.98465005  1
  O  O342  1  0.99460999  0.37969274  0.49214132  1
  O  O343  1  0.98768793  0.38007347  1.00630399  1
  O  O344  1  0.99582787  0.88236208  0.49409531  1
  O  O345  1  0.99846720  0.88183093  0.99194811  1
  O  O346  1  0.49312831  0.49724551  0.38147695  1
  O  O347  1  0.49827635  0.49735368  0.88669012  1
  O  O348  1  0.49421939  0.99619566  0.38018684  1
  O  O349  1  0.48901972  0.99365939  0.86913131  1
  O  O350  1  0.99083674  0.49026226  0.38050616  1
  O  O351  1  0.98659385  0.50388305  0.88306055  1
  O  O352  1  1.00007537  0.99334227  0.38362217  1
  O  O353  1  0.99610376  0.99623347  0.87989873  1
  O  O354  1  0.00487891  0.00532772  0.12014433  1
  O  O355  1  0.00580935  -0.00007798  0.61418327  1
  O  O356  1  0.00555943  0.50475448  0.11983483  1
  O  O357  1  -0.00074951  0.49702130  0.61120340  1
  O  O358  1  0.51447402  -0.00766387  0.12829905  1
  O  O359  1  0.50440583  0.00694785  0.61874557  1
  O  O360  1  0.50888032  0.50408235  0.11938783  1
  O  O361  1  0.50536273  0.50562077  0.61950118  1
  O  O362  1  0.24497264  0.37931325  0.24528376  1
  O  O363  1  0.24997302  0.37408866  0.73796178  1
  O  O364  1  0.24560907  0.88917790  0.25779241  1
  O  O365  1  0.24563611  0.88131306  0.74503218  1
  O  O366  1  0.73667259  0.37481928  0.24809810  1
  O  O367  1  0.74499523  0.38106633  0.74473631  1
  O  O368  1  0.75051408  0.88442574  0.24192756  1
  O  O369  1  0.74124774  0.87870216  0.74198255  1
  O  O370  1  0.25399757  0.11889389  0.25884866  1
  O  O371  1  0.25489380  0.12073813  0.75381868  1
  O  O372  1  0.25919255  0.61873783  0.24866500  1
  O  O373  1  0.26287938  0.62490195  0.75114038  1
  O  O374  1  0.75484729  0.11772079  0.25376075  1
  O  O375  1  0.75653799  0.12436614  0.75734573  1
  O  O376  1  0.75874326  0.62043733  0.25181746  1
  O  O377  1  0.75949007  0.61806923  0.75065324  1
  O  O378  1  0.36533616  0.12042440  0.37044339  1
  O  O379  1  0.36884054  0.11935414  0.86728179  1
  O  O380  1  0.37439634  0.61924417  0.36104805  1
  O  O381  1  0.37893918  0.62668004  0.86254468  1
  O  O382  1  0.86710608  0.12229573  0.36716573  1
  O  O383  1  0.87005604  0.12031219  0.86966746  1
  O  O384  1  0.87642401  0.61374819  0.36774303  1
  O  O385  1  0.87469118  0.61576269  0.86829512  1
  O  O386  1  0.13012078  0.38029280  0.13079701  1
  O  O387  1  0.13621349  0.37762793  0.62791473  1
  O  O388  1  0.11777183  0.88359989  0.13317190  1
  O  O389  1  0.13234892  0.88105090  0.63100362  1
  O  O390  1  0.62525862  0.38197179  0.13235619  1
  O  O391  1  0.63089022  0.38063813  0.63151303  1
  O  O392  1  0.63471996  0.88287655  0.12842012  1
  O  O393  1  0.62907969  0.88215651  0.63038271  1
  O  O394  1  0.11650882  0.25730743  0.24278295  1
  O  O395  1  0.11664242  0.25067396  0.75813799  1
  O  O396  1  0.12062677  0.75447242  0.25303203  1
  O  O397  1  0.12775294  0.75597827  0.76093800  1
  O  O398  1  0.61866378  0.25414292  0.25197660  1
  O  O399  1  0.62063666  0.25488640  0.75500970  1
  O  O400  1  0.61103346  0.74830823  0.24868624  1
  O  O401  1  0.62376439  0.76570873  0.74597708  1
  O  O402  1  0.38211618  0.24683473  0.24395833  1
  O  O403  1  0.38033309  0.24408019  0.74392590  1
  O  O404  1  0.38251561  0.74310931  0.24727621  1
  O  O405  1  0.37649265  0.74295001  0.74362481  1
  O  O406  1  0.88149074  0.24437753  0.24405671  1
  O  O407  1  0.88089755  0.24623506  0.74696140  1
  O  O408  1  0.88231389  0.74374825  0.24081279  1
  O  O409  1  0.87595063  0.73819023  0.75038149  1
  O  O410  1  0.37984127  0.49516175  0.49405558  1
  O  O411  1  0.38742191  0.50063504  1.00393827  1
  O  O412  1  0.38012388  0.99610318  0.49629154  1
  O  O413  1  0.37151999  1.01143233  0.98484130  1
  O  O414  1  0.88173705  0.49366531  0.49169467  1
  O  O415  1  0.87908685  0.49307972  0.99485271  1
  O  O416  1  0.88515774  0.99467558  0.49786967  1
  O  O417  1  0.88217524  0.99918603  0.99272887  1
  O  O418  1  0.11997124  0.00538866  0.00426239  1
  O  O419  1  0.11515263  -0.00202695  0.50446109  1
  O  O420  1  0.12030927  0.50398137  0.00599004  1
  O  O421  1  0.11274567  0.49996551  0.49873742  1
  O  O422  1  0.63045884  0.01106847  0.01034801  1
  O  O423  1  0.61884521  0.00662378  0.50389582  1
  O  O424  1  0.61728393  0.50478972  0.00804368  1
  O  O425  1  0.61870735  0.49947616  0.50772027  1
  O  O426  1  0.36858010  0.36230011  0.12525817  1
  O  O427  1  0.36716347  0.36939168  0.61925134  1
  O  O428  1  0.38214781  0.88656890  0.11941783  1
  O  O429  1  0.37074995  0.87211159  0.62090772  1
  O  O430  1  0.87334081  0.36879671  0.11609955  1
  O  O431  1  0.86788138  0.36948773  0.61893413  1
  O  O432  1  0.86824948  0.86572494  0.12224985  1
  O  O433  1  0.86792060  0.87556199  0.61765182  1
  O  O434  1  0.13819199  0.12066315  0.37683790  1
  O  O435  1  0.13010656  0.13261235  0.87997365  1
  O  O436  1  0.12710844  0.63321614  0.37686522  1
  O  O437  1  0.12400428  0.63601142  0.88160238  1
  O  O438  1  0.63033071  0.13057075  0.38046221  1
  O  O439  1  0.63059527  0.12911093  0.88252635  1
  O  O440  1  0.62955156  0.62812508  0.37940814  1
  O  O441  1  0.62372908  0.62253394  0.89051309  1
