# generated using pymatgen
data_V93Zn93O256
_symmetry_space_group_name_H-M   'P 1'
_cell_length_a   17.05114930
_cell_length_b   17.05450002
_cell_length_c   17.05674302
_cell_angle_alpha   90.01446081
_cell_angle_beta   90.02301015
_cell_angle_gamma   89.95876474
_symmetry_Int_Tables_number   1
_chemical_formula_structural   V93Zn93O256
_chemical_formula_sum   'V93 Zn93 O256'
_cell_volume   4960.07900403
_cell_formula_units_Z   1
loop_
 _symmetry_equiv_pos_site_id
 _symmetry_equiv_pos_as_xyz
  1  'x, y, z'
loop_
 _atom_site_type_symbol
 _atom_site_label
 _atom_site_symmetry_multiplicity
 _atom_site_fract_x
 _atom_site_fract_y
 _atom_site_fract_z
 _atom_site_occupancy
  V  V0  1  0.00107634  0.49890794  -0.00103306  1
  V  V1  1  0.75044292  0.87454771  0.62656201  1
  V  V2  1  0.62782684  0.25200492  0.37953901  1
  V  V3  1  0.00026751  0.12481802  0.12443936  1
  V  V4  1  0.00045015  0.37272132  0.87396799  1
  V  V5  1  0.25059395  0.24634917  -0.00688772  1
  V  V6  1  0.62483396  0.12577592  0.00159205  1
  V  V7  1  0.12398277  0.87507514  0.25110311  1
  V  V8  1  0.62618017  0.00161994  0.62682884  1
  V  V9  1  0.12909677  0.12463753  -0.00729268  1
  V  V10  1  0.37724213  -0.00252768  0.37548976  1
  V  V11  1  0.49960843  0.25005244  0.75038672  1
  V  V12  1  0.00087742  0.25039043  0.24888583  1
  V  V13  1  0.00023338  0.24990439  0.74928858  1
  V  V14  1  -0.00102432  -0.00049797  0.49807696  1
  V  V15  1  -0.00033903  -0.00077163  0.00019482  1
  V  V16  1  0.49376499  0.75074716  0.74565762  1
  V  V17  1  0.50121470  0.24994017  0.24930617  1
  V  V18  1  -0.00053995  0.12442696  0.62427368  1
  V  V19  1  0.62697300  0.12953081  0.50199131  1
  V  V20  1  0.12438787  0.37365756  0.74952832  1
  V  V21  1  0.24972089  0.62437605  0.37460673  1
  V  V22  1  0.87006450  0.37116422  0.49868519  1
  V  V23  1  0.87520951  0.49929030  0.87355213  1
  V  V24  1  0.25068307  0.12410923  0.37442356  1
  V  V25  1  0.87136925  0.24983947  0.62158622  1
  V  V26  1  0.25177398  0.50026898  0.25002225  1
  V  V27  1  0.37466076  0.50011754  0.37448308  1
  V  V28  1  0.12612593  0.49918594  0.12452172  1
  V  V29  1  0.25017415  0.87395428  0.12573263  1
  V  V30  1  0.12482774  0.75017750  0.87480514  1
  V  V31  1  0.62453664  0.87640914  0.75001948  1
  V  V32  1  0.12882891  -0.00427223  0.62464705  1
  V  V33  1  0.50069139  0.87380580  0.87616626  1
  V  V34  1  0.12375527  0.75011011  0.37491728  1
  V  V35  1  0.25096075  0.25010540  0.49936047  1
  V  V36  1  0.86995454  0.50024559  0.36902062  1
  V  V37  1  0.74959936  0.49992463  0.74843697  1
  V  V38  1  -0.00123344  0.62477565  0.12613255  1
  V  V39  1  0.62883754  0.38185728  0.25023558  1
  V  V40  1  0.87539351  -0.00452573  0.37558295  1
  V  V41  1  0.49394500  0.62914903  0.62480846  1
  V  V42  1  0.74227452  -0.00030280  0.25026740  1
  V  V43  1  0.87258012  0.62848847  0.24879887  1
  V  V44  1  0.74947188  0.62569002  0.87490518  1
  V  V45  1  0.37682877  0.87167302  0.50392186  1
  V  V46  1  0.12462690  -0.00010040  0.12553937  1
  V  V47  1  0.12553298  0.12439639  0.49907373  1
  V  V48  1  0.87540531  0.25054919  0.12451091  1
  V  V49  1  0.49958756  0.49905577  0.00093881  1
  V  V50  1  0.74961304  0.37208027  0.62211953  1
  V  V51  1  0.75167800  0.13068853  0.38061845  1
  V  V52  1  0.50121512  0.00117987  0.00158244  1
  V  V53  1  0.36831353  0.00418000  0.87551125  1
  V  V54  1  0.25186783  0.74914263  0.00126466  1
  V  V55  1  0.37692925  0.74934237  0.12976717  1
  V  V56  1  0.87378072  0.74941963  0.62467173  1
  V  V57  1  0.25113402  0.62434171  0.87454840  1
  V  V58  1  0.12358922  0.49956157  0.62258487  1
  V  V59  1  0.00057413  0.75022028  0.75053047  1
  V  V60  1  0.25397060  0.74957947  0.50675522  1
  V  V61  1  -0.00074960  0.62450083  0.62370876  1
  V  V62  1  0.36745153  0.12493392  0.75295506  1
  V  V63  1  0.74959823  0.38150000  0.12875839  1
  V  V64  1  0.12527454  0.24964238  0.37427425  1
  V  V65  1  0.37537525  0.24933229  0.12496181  1
  V  V66  1  0.62389203  0.37505383  0.75006144  1
  V  V67  1  0.51335524  0.75640791  0.25751909  1
  V  V68  1  0.74419075  0.74969094  0.49661276  1
  V  V69  1  0.74433696  0.62642979  0.37216916  1
  V  V70  1  0.87486753  0.12576726  0.24995937  1
  V  V71  1  0.37646415  0.12497854  0.24989472  1
  V  V72  1  0.87580876  -0.00025774  0.87559357  1
  V  V73  1  0.25111468  0.37371335  0.12405072  1
  V  V74  1  0.74440743  0.87239335  0.12869027  1
  V  V75  1  0.12550188  0.37496755  0.24983387  1
  V  V76  1  -0.00017941  0.87419470  0.87554955  1
  V  V77  1  0.49991163  0.12565704  0.62599367  1
  V  V78  1  0.87493946  0.37466962  -0.00034074  1
  V  V79  1  0.12512614  0.62412991  0.00007353  1
  V  V80  1  0.62597921  0.62556262  -0.00001243  1
  V  V81  1  0.25100638  -0.00024041  0.25011436  1
  V  V82  1  0.87479111  0.12484610  0.74993553  1
  V  V83  1  0.74977988  0.25000780  0.00007796  1
  V  V84  1  0.25297978  0.49960135  0.75047017  1
  V  V85  1  0.87406485  0.62432569  0.74905092  1
  V  V86  1  0.50060695  -0.00031291  0.49939334  1
  V  V87  1  0.62417947  0.25136772  0.87480758  1
  V  V88  1  0.49990975  0.50131400  0.49990606  1
  V  V89  1  0.37522313  0.37369864  0.50010931  1
  V  V90  1  0.75092153  0.12460575  0.87528052  1
  V  V91  1  0.62454973  0.50136164  0.62414090  1
  V  V92  1  -0.00107571  0.37568633  0.37505770  1
  Zn  Zn93  1  0.37324867  0.24863133  0.62620946  1
  Zn  Zn94  1  0.62627533  0.50267297  0.12924708  1
  Zn  Zn95  1  0.12911582  0.24518369  0.87038563  1
  Zn  Zn96  1  0.37980470  0.62523096  0.25120741  1
  Zn  Zn97  1  0.62602453  0.75006193  0.87522772  1
  Zn  Zn98  1  0.37716155  0.50016143  0.87566579  1
  Zn  Zn99  1  0.24786190  -0.00087595  0.75347541  1
  Zn  Zn100  1  0.62286319  0.62789624  0.49655864  1
  Zn  Zn101  1  0.24949019  0.37277860  0.62552194  1
  Zn  Zn102  1  0.87778853  0.75349698  0.12395582  1
  Zn  Zn103  1  0.62253615  -0.00076973  0.12902768  1
  Zn  Zn104  1  -0.00204839  0.87271311  0.37401515  1
  Zn  Zn105  1  0.12843498  0.87436039  0.74956679  1
  Zn  Zn106  1  0.75042759  -0.00054773  0.75136394  1
  Zn  Zn107  1  0.00065435  0.75076953  0.24879227  1
  Zn  Zn108  1  0.87586173  0.87396143  0.50188588  1
  Zn  Zn109  1  0.37556419  0.87515508  0.00079455  1
  Zn  Zn110  1  0.50211964  0.12415346  0.12620789  1
  Zn  Zn111  1  0.37547668  0.37485104  -0.00223443  1
  Zn  Zn112  1  0.52028346  0.87427197  0.37526630  1
  Zn  Zn113  1  0.49733400  0.37642144  0.87491377  1
  Zn  Zn114  1  0.87441826  0.87263337  0.00205886  1
  Zn  Zn115  1  0.12306135  0.62559405  0.49906357  1
  Zn  Zn116  1  0.75144939  0.75298537  -0.00189138  1
  Zn  Zn117  1  0.50247842  0.37725106  0.37362734  1
  Zn  Zn118  1  0.37292529  0.62990024  0.74852700  1
  Zn  Zn119  1  0.25627446  0.86961476  0.62973218  1
  Zn  Zn120  1  0.50256989  0.62563253  0.12742376  1
  Zn  Zn121  1  -0.00067258  0.50159261  0.49802652  1
  Zn  Zn122  1  0.18880042  0.18678434  0.18428143  1
  Zn  Zn123  1  0.18773017  0.18706798  0.68432690  1
  Zn  Zn124  1  0.18809812  0.68614912  0.18901611  1
  Zn  Zn125  1  0.18518208  0.68459003  0.68833725  1
  Zn  Zn126  1  0.68707280  0.18882588  0.18846969  1
  Zn  Zn127  1  0.68888911  0.18896250  0.68899693  1
  Zn  Zn128  1  0.68951543  0.68354069  0.18638004  1
  Zn  Zn129  1  0.68263999  0.68915663  0.68677045  1
  Zn  Zn130  1  0.31349474  0.31286022  0.31262579  1
  Zn  Zn131  1  0.31553749  0.31542478  0.81361050  1
  Zn  Zn132  1  0.31423756  0.81273480  0.31606444  1
  Zn  Zn133  1  0.31204798  0.81591698  0.81336725  1
  Zn  Zn134  1  0.81191609  0.31293546  0.31094880  1
  Zn  Zn135  1  0.81167030  0.31162570  0.81036940  1
  Zn  Zn136  1  0.69609365  0.81293041  0.31407900  1
  Zn  Zn137  1  0.81275531  0.81217345  0.81339675  1
  Zn  Zn138  1  0.18850784  0.43675434  0.43741765  1
  Zn  Zn139  1  0.18819768  0.43409841  0.93589247  1
  Zn  Zn140  1  0.19003199  0.93444216  0.43880981  1
  Zn  Zn141  1  0.18604764  0.93409296  0.93997454  1
  Zn  Zn142  1  0.68852628  0.44065766  0.43764925  1
  Zn  Zn143  1  0.68599689  0.43859582  0.93796355  1
  Zn  Zn144  1  0.69141887  0.94245438  0.44396984  1
  Zn  Zn145  1  0.68832180  0.93839671  0.93997085  1
  Zn  Zn146  1  0.31359019  0.06351784  0.06293482  1
  Zn  Zn147  1  0.31405355  0.06176752  0.56281257  1
  Zn  Zn148  1  0.31503679  0.56371459  0.06356762  1
  Zn  Zn149  1  0.31141018  0.56270453  0.56165938  1
  Zn  Zn150  1  0.81237651  0.06017813  0.06286260  1
  Zn  Zn151  1  0.81194607  0.06199844  0.56289492  1
  Zn  Zn152  1  0.81298838  0.56282429  0.06103721  1
  Zn  Zn153  1  0.81259483  0.56065680  0.55788615  1
  Zn  Zn154  1  0.43989931  0.43611925  0.18546743  1
  Zn  Zn155  1  0.43826804  0.43751439  0.68474010  1
  Zn  Zn156  1  0.43811475  0.93386529  0.18892376  1
  Zn  Zn157  1  0.43780329  0.94021358  0.68822075  1
  Zn  Zn158  1  0.93717417  0.43945867  0.18793708  1
  Zn  Zn159  1  0.93750935  0.43636529  0.68603398  1
  Zn  Zn160  1  0.93365304  0.93538233  0.18953982  1
  Zn  Zn161  1  0.93891931  0.93673929  0.68872688  1
  Zn  Zn162  1  0.06214471  0.06251082  0.31195027  1
  Zn  Zn163  1  0.06110430  0.06008414  0.81036204  1
  Zn  Zn164  1  0.06085398  0.56213306  0.31250562  1
  Zn  Zn165  1  0.06331449  0.56243189  0.81141332  1
  Zn  Zn166  1  0.56178815  0.06470363  0.31642575  1
  Zn  Zn167  1  0.56024095  0.06385614  0.81361459  1
  Zn  Zn168  1  0.55899321  0.56599695  0.31225589  1
  Zn  Zn169  1  0.56176165  0.56331213  0.81323024  1
  Zn  Zn170  1  0.44022043  0.18785705  0.43594564  1
  Zn  Zn171  1  0.43721024  0.18740666  0.93658246  1
  Zn  Zn172  1  0.43651984  0.68720390  0.43629126  1
  Zn  Zn173  1  0.43667273  0.68535942  0.93780782  1
  Zn  Zn174  1  0.93821575  0.18758251  0.43784044  1
  Zn  Zn175  1  0.93949181  0.18663196  0.93710786  1
  Zn  Zn176  1  0.93442423  0.68698817  0.43801989  1
  Zn  Zn177  1  0.93516285  0.68882225  0.93946081  1
  Zn  Zn178  1  0.06489140  0.31120058  0.06101660  1
  Zn  Zn179  1  0.05961446  0.31314856  0.56111154  1
  Zn  Zn180  1  0.06231759  0.81159789  0.06231505  1
  Zn  Zn181  1  0.06119835  0.81297627  0.55963207  1
  Zn  Zn182  1  0.56246173  0.31335365  0.06397600  1
  Zn  Zn183  1  0.56025406  0.31355873  0.56388769  1
  Zn  Zn184  1  0.56411272  0.81130411  0.06517310  1
  Zn  Zn185  1  0.56252042  0.81415174  0.56307629  1
  O  O186  1  0.11925904  0.11913299  0.11794209  1
  O  O187  1  0.11883009  0.11696906  0.61801682  1
  O  O188  1  0.12036061  0.61812859  0.11962962  1
  O  O189  1  0.11787833  0.61419463  0.62412901  1
  O  O190  1  0.62369680  0.12331293  0.11644097  1
  O  O191  1  0.62097852  0.12234563  0.62124257  1
  O  O192  1  0.62680122  0.62121746  0.11411395  1
  O  O193  1  0.61437077  0.61754729  0.62387875  1
  O  O194  1  0.37636444  0.38047817  0.38468164  1
  O  O195  1  0.37914046  0.38160743  0.88019133  1
  O  O196  1  0.37410808  0.88318574  0.38679891  1
  O  O197  1  0.38692246  0.88413752  0.87719937  1
  O  O198  1  0.87703658  0.38023714  0.37919374  1
  O  O199  1  0.87964423  0.37958433  0.87974703  1
  O  O200  1  0.87444168  0.89412496  0.37653825  1
  O  O201  1  0.88185597  0.88190787  0.87652545  1
  O  O202  1  0.25518632  0.00553154  0.36951814  1
  O  O203  1  0.26508871  -0.00755083  0.87763418  1
  O  O204  1  0.25408239  0.50432746  0.36968811  1
  O  O205  1  0.24647809  0.50568499  0.86436507  1
  O  O206  1  0.75767435  0.01212471  0.36904963  1
  O  O207  1  0.75700847  0.00706925  0.87442720  1
  O  O208  1  0.76277552  0.50970896  0.38116118  1
  O  O209  1  0.75625405  0.50431230  0.86830922  1
  O  O210  1  0.24489344  0.49449709  0.12943471  1
  O  O211  1  0.23984383  0.49990045  0.63298032  1
  O  O212  1  0.24509776  0.99457774  0.13037862  1
  O  O213  1  0.23708404  0.99949446  0.62283460  1
  O  O214  1  0.74887874  0.48420305  0.11882688  1
  O  O215  1  0.74527903  0.49402489  0.62972261  1
  O  O216  1  0.75024075  0.99339255  0.13431839  1
  O  O217  1  0.74390124  0.99411335  0.62746305  1
  O  O218  1  0.00563390  0.36940861  0.25434756  1
  O  O219  1  0.00409776  0.36909882  0.75435134  1
  O  O220  1  0.00818327  0.87297068  0.25335728  1
  O  O221  1  0.00283441  0.86713199  0.75739976  1
  O  O222  1  0.51042087  0.36738352  0.25168134  1
  O  O223  1  0.50659078  0.36884957  0.74903226  1
  O  O224  1  0.49829072  0.86070603  0.25311998  1
  O  O225  1  0.50393360  0.87021468  0.75641680  1
  O  O226  1  0.49388307  0.13130456  0.24934441  1
  O  O227  1  0.49269304  0.13065883  0.74474766  1
  O  O228  1  0.49969427  0.63979153  0.24692457  1
  O  O229  1  0.49930822  0.63346544  0.74321325  1
  O  O230  1  0.99566901  0.13103697  0.24388317  1
  O  O231  1  0.99451747  0.13039284  0.74358060  1
  O  O232  1  0.99379098  0.62304997  0.24155521  1
  O  O233  1  0.99357637  0.62994380  0.74482296  1
  O  O234  1  0.36629348  0.24757337  0.00622495  1
  O  O235  1  0.37065397  0.25835969  0.49777891  1
  O  O236  1  0.37075955  0.75105143  0.01087305  1
  O  O237  1  0.36486803  0.75948398  0.49174019  1
  O  O238  1  0.87064598  0.25532778  0.00499042  1
  O  O239  1  0.88068552  0.26225740  0.50508097  1
  O  O240  1  0.86942346  0.75195507  0.00600801  1
  O  O241  1  0.86451958  0.75092733  0.50714505  1
  O  O242  1  0.12915989  0.24462712  0.49363341  1
  O  O243  1  0.13257713  0.24063472  0.99931841  1
  O  O244  1  0.13365555  0.75019870  0.48974163  1
  O  O245  1  0.13128248  0.74300509  0.99497796  1
  O  O246  1  0.61892561  0.24665387  0.48743398  1
  O  O247  1  0.63041023  0.24557601  0.99482360  1
  O  O248  1  0.64024229  0.74763385  0.50811308  1
  O  O249  1  0.62704596  0.73783180  0.99844183  1
  O  O250  1  0.49339418  0.24821951  0.13136875  1
  O  O251  1  0.49797925  0.24299719  0.63194578  1
  O  O252  1  0.49316983  0.75167994  0.13615256  1
  O  O253  1  0.50648499  0.74075727  0.63383398  1
  O  O254  1  0.99518187  0.24556184  0.12956718  1
  O  O255  1  0.99362169  0.24364029  0.62959285  1
  O  O256  1  1.00063459  0.73892609  0.12663203  1
  O  O257  1  0.99492879  0.74443027  0.62969740  1
  O  O258  1  0.00591665  0.25460733  0.36814170  1
  O  O259  1  0.00130663  0.25571558  0.86735040  1
  O  O260  1  0.01227668  0.74959857  0.37464480  1
  O  O261  1  0.00511314  0.75362479  0.87058583  1
  O  O262  1  0.51166237  0.25147518  0.36792725  1
  O  O263  1  0.50753891  0.25129220  0.86873266  1
  O  O264  1  0.49710513  0.75045130  0.36007478  1
  O  O265  1  0.50089950  0.76079639  0.86939870  1
  O  O266  1  0.24543740  0.12972683  0.49307030  1
  O  O267  1  0.23949218  0.13382168  1.00771068  1
  O  O268  1  0.24883131  0.63283330  0.49307213  1
  O  O269  1  0.24386253  0.62920731  0.99529857  1
  O  O270  1  0.74418718  0.12109910  0.48787803  1
  O  O271  1  0.74579731  0.13094598  0.99511469  1
  O  O272  1  0.75027538  0.63273964  0.49164994  1
  O  O273  1  0.74144166  0.62284125  0.99334173  1
  O  O274  1  0.24860514  0.36456841  0.00737106  1
  O  O275  1  0.25937063  0.36895060  0.49952041  1
  O  O276  1  0.25162225  0.86673465  0.00824595  1
  O  O277  1  0.25851329  0.86640443  0.50287700  1
  O  O278  1  0.75540750  0.36896788  0.00663631  1
  O  O279  1  0.76223155  0.38017776  0.50587110  1
  O  O280  1  0.75230427  0.87678944  0.01328539  1
  O  O281  1  0.75445038  0.86735333  0.50892760  1
  O  O282  1  0.13085720  0.49352575  0.24445802  1
  O  O283  1  0.13228595  0.49505341  0.74183014  1
  O  O284  1  0.13115723  0.99634780  0.24484848  1
  O  O285  1  0.12677344  1.00011464  0.73848427  1
  O  O286  1  0.61851486  0.48488089  0.25029180  1
  O  O287  1  0.63019659  0.49478857  0.74413738  1
  O  O288  1  0.63902115  1.01144205  0.24935698  1
  O  O289  1  0.62423499  0.99459581  0.74419327  1
  O  O290  1  0.37025607  0.00423275  0.25494015  1
  O  O291  1  0.37559289  0.00805416  0.75872051  1
  O  O292  1  0.36951651  0.49931871  0.25603520  1
  O  O293  1  0.36081140  0.49947382  0.74782241  1
  O  O294  1  0.86697267  0.00823943  0.25764627  1
  O  O295  1  0.87554914  0.00785288  0.75696839  1
  O  O296  1  0.87969908  0.50769505  0.26148433  1
  O  O297  1  0.86967837  0.50429790  0.75412620  1
  O  O298  1  0.12000632  0.36929642  0.36933764  1
  O  O299  1  0.11707998  0.37237434  0.86732747  1
  O  O300  1  0.12572037  0.86606220  0.36933496  1
  O  O301  1  0.11814339  0.86754272  0.87444710  1
  O  O302  1  0.62868312  0.36745184  0.36814607  1
  O  O303  1  0.62549988  0.36845754  0.86705241  1
  O  O304  1  0.63231503  0.88044036  0.37520390  1
  O  O305  1  0.61393562  0.87705980  0.87019522  1
  O  O306  1  0.37681617  0.13102500  0.13345033  1
  O  O307  1  0.38255824  0.12412981  0.63411449  1
  O  O308  1  0.37689826  0.63807865  0.12812055  1
  O  O309  1  0.38982861  0.61887148  0.62706562  1
  O  O310  1  0.88038221  0.13109330  0.12963049  1
  O  O311  1  0.87989188  0.12959046  0.62908602  1
  O  O312  1  0.88085923  0.61924359  0.13313785  1
  O  O313  1  0.87907496  0.62835741  0.63053277  1
  O  O314  1  0.25531400  0.25489298  0.11773092  1
  O  O315  1  0.25270805  0.25227890  0.61475119  1
  O  O316  1  0.25669840  0.75404896  0.12165479  1
  O  O317  1  0.24247045  0.74811815  0.61048784  1
  O  O318  1  0.75671007  0.25770893  0.11921411  1
  O  O319  1  0.75862926  0.25917721  0.63109813  1
  O  O320  1  0.75049076  0.76524617  0.12802996  1
  O  O321  1  0.75515424  0.75408602  0.62026370  1
  O  O322  1  0.24401262  0.24384587  0.37880735  1
  O  O323  1  0.24857322  0.25430101  0.88927890  1
  O  O324  1  0.24162977  0.74458416  0.38181962  1
  O  O325  1  0.24548606  0.74484615  0.88093165  1
  O  O326  1  0.74123817  0.23973555  0.36837340  1
  O  O327  1  0.74535753  0.24491585  0.88068089  1
  O  O328  1  0.75138441  0.73873043  0.38485527  1
  O  O329  1  0.74678425  0.74121476  0.87594824  1
  O  O330  1  0.00857371  0.12055432  0.00625634  1
  O  O331  1  0.00628809  0.12034484  0.50484029  1
  O  O332  1  0.00544144  0.61732462  0.00493890  1
  O  O333  1  0.00136251  0.62207549  0.50856561  1
  O  O334  1  0.50559712  0.11568746  0.00034227  1
  O  O335  1  0.50624343  0.12024148  0.50565745  1
  O  O336  1  0.50998545  0.61848440  0.00095674  1
  O  O337  1  0.50147812  0.62138680  0.50729133  1
  O  O338  1  0.49076154  0.38143025  0.49795459  1
  O  O339  1  0.50112550  0.38636795  0.99930388  1
  O  O340  1  0.49395044  0.87973862  0.49678009  1
  O  O341  1  0.50095157  0.88303092  0.99210769  1
  O  O342  1  0.98976721  0.37690607  0.49237782  1
  O  O343  1  0.99496427  0.37904420  0.99512670  1
  O  O344  1  0.99498338  0.88331290  0.49422198  1
  O  O345  1  1.00041895  0.88244280  0.99405994  1
  O  O346  1  0.49279013  0.49958660  0.38216808  1
  O  O347  1  0.49947190  0.49936284  0.88598610  1
  O  O348  1  0.49468226  0.99890955  0.38200302  1
  O  O349  1  0.49296209  0.99280968  0.88301776  1
  O  O350  1  0.99101432  0.49288374  0.37599632  1
  O  O351  1  0.99512080  0.49361478  0.87905032  1
  O  O352  1  0.99085717  1.00396998  0.38017404  1
  O  O353  1  0.99571664  0.99427798  0.88044175  1
  O  O354  1  0.00507134  0.00551567  0.12090030  1
  O  O355  1  0.00712388  0.00544807  0.61869813  1
  O  O356  1  0.00663630  0.50355828  0.11830727  1
  O  O357  1  0.00934820  0.50520016  0.62656928  1
  O  O358  1  0.50058811  -0.00150883  0.11360722  1
  O  O359  1  0.50718611  0.00632960  0.61918438  1
  O  O360  1  0.50363454  0.50382709  0.11554575  1
  O  O361  1  0.50533479  0.50801952  0.61986361  1
  O  O362  1  0.24410043  0.37970370  0.24486579  1
  O  O363  1  0.24330678  0.38298538  0.74796050  1
  O  O364  1  0.24474269  0.88127810  0.24546807  1
  O  O365  1  0.24720888  0.87909067  0.74482628  1
  O  O366  1  0.74146702  0.36816019  0.23942456  1
  O  O367  1  0.74476733  0.38121578  0.74349891  1
  O  O368  1  0.74973697  0.88647296  0.23816482  1
  O  O369  1  0.74229271  0.87594963  0.74485582  1
  O  O370  1  0.25527133  0.11941768  0.25500923  1
  O  O371  1  0.26360800  0.12266635  0.74496048  1
  O  O372  1  0.25158140  0.61657987  0.25675368  1
  O  O373  1  0.25082785  0.61634020  0.75494312  1
  O  O374  1  0.75621252  0.12071562  0.25833831  1
  O  O375  1  0.75717562  0.12407096  0.75769117  1
  O  O376  1  0.75897754  0.62953568  0.26058491  1
  O  O377  1  0.75430452  0.61917357  0.75390954  1
  O  O378  1  0.36984256  0.11879890  0.36975249  1
  O  O379  1  0.38230668  0.11464603  0.86462459  1
  O  O380  1  0.36717363  0.61707737  0.37347177  1
  O  O381  1  0.36594253  0.62143037  0.87123698  1
  O  O382  1  0.86812251  0.12218502  0.37052952  1
  O  O383  1  0.87105076  0.12062977  0.86970538  1
  O  O384  1  0.86936185  0.61759596  0.36805159  1
  O  O385  1  0.87055136  0.61778365  0.86866210  1
  O  O386  1  0.12981476  0.37978921  0.13054236  1
  O  O387  1  0.12395098  0.38368690  0.63038945  1
  O  O388  1  0.13043681  0.88073918  0.13053390  1
  O  O389  1  0.12426433  0.88659035  0.62454940  1
  O  O390  1  0.63445388  0.37347229  0.13377292  1
  O  O391  1  0.62988550  0.38039159  0.63004501  1
  O  O392  1  0.63962449  0.88014928  0.12073134  1
  O  O393  1  0.63019830  0.88245272  0.63076226  1
  O  O394  1  0.12079060  0.25460198  0.25410823  1
  O  O395  1  0.11914191  0.25404693  0.74970541  1
  O  O396  1  0.12660384  0.75559943  0.25987154  1
  O  O397  1  0.11785531  0.74912125  0.75728638  1
  O  O398  1  0.62083513  0.25705504  0.25940665  1
  O  O399  1  0.61942067  0.25530016  0.75538674  1
  O  O400  1  0.61684231  0.75045083  0.24914804  1
  O  O401  1  0.61314539  0.75811409  0.75325651  1
  O  O402  1  0.38045749  0.24487503  0.24621928  1
  O  O403  1  0.38020924  0.24157983  0.74990289  1
  O  O404  1  0.37938246  0.74967918  0.24158131  1
  O  O405  1  0.38976064  0.75174458  0.75372743  1
  O  O406  1  0.88167729  0.24582113  0.24430313  1
  O  O407  1  0.88124365  0.24464524  0.74318261  1
  O  O408  1  0.88205194  0.73130840  0.24514397  1
  O  O409  1  0.88072568  0.74288785  0.74487451  1
  O  O410  1  0.37852925  0.49191982  0.49482758  1
  O  O411  1  0.38662329  0.50018534  1.00044517  1
  O  O412  1  0.38145786  0.99454043  0.49417696  1
  O  O413  1  0.38458473  1.00072270  0.99334488  1
  O  O414  1  0.87847820  0.48954380  0.49047607  1
  O  O415  1  0.88156224  0.49379230  0.99311522  1
  O  O416  1  0.88124861  1.00275071  0.49177053  1
  O  O417  1  0.88373722  1.00169202  0.99268380  1
  O  O418  1  0.12103297  0.00697608  0.00605752  1
  O  O419  1  0.11980243  0.00500966  0.50445309  1
  O  O420  1  0.12058315  0.50413817  0.00473298  1
  O  O421  1  0.12404029  0.49974867  0.51136818  1
  O  O422  1  0.61438743  0.00747465  -0.00117472  1
  O  O423  1  0.62020309  0.00967468  0.50794593  1
  O  O424  1  0.61758666  0.50855418  0.00127904  1
  O  O425  1  0.61750902  0.50026021  0.50697158  1
  O  O426  1  0.36792291  0.36681077  0.12315780  1
  O  O427  1  0.37291212  0.37369013  0.61094760  1
  O  O428  1  0.36829252  0.86571607  0.12369309  1
  O  O429  1  0.37587824  0.88275251  0.60865139  1
  O  O430  1  0.86930761  0.37047063  0.12035882  1
  O  O431  1  0.87094950  0.37089465  0.61666217  1
  O  O432  1  0.86247545  0.87518837  0.12351758  1
  O  O433  1  0.86872897  0.86763990  0.62670217  1
  O  O434  1  0.13058144  0.13012663  0.37929736  1
  O  O435  1  0.11965746  0.12398490  0.88895226  1
  O  O436  1  0.13070129  0.63278412  0.37561832  1
  O  O437  1  0.13004305  0.63001173  0.88093126  1
  O  O438  1  0.63313990  0.13374925  0.38080403  1
  O  O439  1  0.63084062  0.13117762  0.88061415  1
  O  O440  1  0.64011316  0.61531430  0.37685512  1
  O  O441  1  0.63178588  0.62499734  0.88352694  1
