# generated using pymatgen
data_V93Zn93O256
_symmetry_space_group_name_H-M   'P 1'
_cell_length_a   17.07404566
_cell_length_b   17.07247210
_cell_length_c   17.05450429
_cell_angle_alpha   89.95866529
_cell_angle_beta   89.98128567
_cell_angle_gamma   89.87849805
_symmetry_Int_Tables_number   1
_chemical_formula_structural   V93Zn93O256
_chemical_formula_sum   'V93 Zn93 O256'
_cell_volume   4971.30991735
_cell_formula_units_Z   1
loop_
 _symmetry_equiv_pos_site_id
 _symmetry_equiv_pos_as_xyz
  1  'x, y, z'
loop_
 _atom_site_type_symbol
 _atom_site_label
 _atom_site_symmetry_multiplicity
 _atom_site_fract_x
 _atom_site_fract_y
 _atom_site_fract_z
 _atom_site_occupancy
  V  V0  1  0.00342111  0.24900744  0.25816264  1
  V  V1  1  0.24997739  0.00286099  0.75058293  1
  V  V2  1  0.50042891  0.75051305  0.74947526  1
  V  V3  1  0.62209857  -0.00262197  0.12419399  1
  V  V4  1  0.25781608  0.25048587  0.00482168  1
  V  V5  1  -0.01257568  0.50970684  0.51658445  1
  V  V6  1  -0.00631851  0.12919486  0.62916252  1
  V  V7  1  0.50166763  0.24970063  0.24530385  1
  V  V8  1  0.24716922  0.12799800  0.37497551  1
  V  V9  1  0.74814678  0.37505629  0.62306177  1
  V  V10  1  0.37506363  0.87705989  0.49925671  1
  V  V11  1  0.74916505  0.12479443  0.37211529  1
  V  V12  1  0.25038222  0.62488424  0.37534527  1
  V  V13  1  -0.00716285  -0.00119208  0.50107542  1
  V  V14  1  0.24967560  0.87557381  0.12508129  1
  V  V15  1  0.87529350  0.49815401  0.37158596  1
  V  V16  1  0.87535873  0.50608288  0.87368848  1
  V  V17  1  0.12514011  0.12577970  0.00048949  1
  V  V18  1  0.24886483  0.00134520  0.25001512  1
  V  V19  1  0.24798913  0.49890934  0.24980074  1
  V  V20  1  0.12426037  -0.00050325  0.12471144  1
  V  V21  1  0.50026798  0.62367453  0.12429656  1
  V  V22  1  0.37508551  0.87507570  0.00002000  1
  V  V23  1  0.24423798  0.25239814  0.49412459  1
  V  V24  1  0.62316835  0.62535987  0.50010192  1
  V  V25  1  0.00182528  0.37525553  0.37825253  1
  V  V26  1  0.74885795  0.24911949  0.49848854  1
  V  V27  1  0.25212326  0.87791416  0.62595298  1
  V  V28  1  0.12514416  0.62434411  0.00054563  1
  V  V29  1  0.49883395  0.00087512  0.49859879  1
  V  V30  1  0.87648360  0.37585551  0.00249239  1
  V  V31  1  0.62289312  0.37474285  0.75530937  1
  V  V32  1  0.75121148  0.01262060  0.75311797  1
  V  V33  1  0.12556847  0.37621138  0.75046654  1
  V  V34  1  0.25114872  0.37306719  0.62626290  1
  V  V35  1  0.37408611  0.12568794  0.74915363  1
  V  V36  1  0.74635599  0.49937666  0.24864543  1
  V  V37  1  0.12566151  0.00419099  0.62548394  1
  V  V38  1  0.75632757  0.87321204  0.62342332  1
  V  V39  1  0.87402223  0.87434350  -0.00351564  1
  V  V40  1  0.74755874  0.62536664  0.37525831  1
  V  V41  1  0.49971330  -0.00031531  -0.00039899  1
  V  V42  1  0.62415933  0.12510420  0.49752192  1
  V  V43  1  0.50058875  0.37305561  0.37389720  1
  V  V44  1  0.00162341  0.12563424  0.12793522  1
  V  V45  1  0.12059471  0.62498994  0.50244539  1
  V  V46  1  0.75107046  -0.00104204  0.24996961  1
  V  V47  1  0.75001012  0.50486860  0.75042213  1
  V  V48  1  0.62207718  0.50041076  0.62515177  1
  V  V49  1  0.62518874  -0.00035823  0.62463674  1
  V  V50  1  0.12675867  0.50282172  0.62554420  1
  V  V51  1  -0.00160027  0.87526271  0.87288961  1
  V  V52  1  0.25177959  0.74961110  0.49910074  1
  V  V53  1  0.62670491  0.87480347  0.74953110  1
  V  V54  1  0.49963110  0.25108326  0.75257302  1
  V  V55  1  0.12551989  0.37154903  0.25644154  1
  V  V56  1  0.75339746  0.75448879  0.50168524  1
  V  V57  1  -0.00112187  0.00080463  -0.00096447  1
  V  V58  1  0.25137101  0.62334251  0.87443998  1
  V  V59  1  0.37466541  0.49967276  0.37470918  1
  V  V60  1  0.75134750  0.37406707  0.12464267  1
  V  V61  1  0.74967889  0.74974254  -0.00126723  1
  V  V62  1  0.00138777  0.62387175  0.12494999  1
  V  V63  1  0.37506508  0.75079557  0.62487751  1
  V  V64  1  0.12358125  0.87496898  0.25169199  1
  V  V65  1  0.00149216  0.37768578  0.87537191  1
  V  V66  1  0.87256243  0.37201334  0.49864560  1
  V  V67  1  0.37411189  0.74940258  0.12603482  1
  V  V68  1  0.74932087  0.87353305  0.12479559  1
  V  V69  1  0.62562970  0.75008007  0.87519317  1
  V  V70  1  0.12188334  0.75167763  0.87208986  1
  V  V71  1  0.86970554  0.01367103  0.87258173  1
  V  V72  1  0.12510102  0.25183659  0.87618631  1
  V  V73  1  0.12255265  0.13106882  0.49580395  1
  V  V74  1  0.87548356  0.74982370  0.12341920  1
  V  V75  1  0.24958175  0.12600520  0.87471528  1
  V  V76  1  0.49902546  0.62496552  0.62455801  1
  V  V77  1  0.37375002  0.37531830  0.49934168  1
  V  V78  1  0.24954949  0.75078769  0.00030331  1
  V  V79  1  0.37344064  0.62570006  0.75128807  1
  V  V80  1  0.25557240  0.37061929  0.12609511  1
  V  V81  1  0.49877113  0.12542196  0.62417916  1
  V  V82  1  0.12420831  0.87681301  0.75111539  1
  V  V83  1  0.00051895  0.75132501  0.25173530  1
  V  V84  1  0.37422635  0.00076770  0.37519536  1
  V  V85  1  0.49890579  0.87446028  0.87549403  1
  V  V86  1  0.62288290  0.87194654  0.25198608  1
  V  V87  1  0.87643689  0.12278042  0.25119065  1
  V  V88  1  0.37429038  0.62511021  0.24936355  1
  V  V89  1  0.37381018  0.13025538  0.24552802  1
  V  V90  1  0.49769946  0.12789270  0.12201195  1
  V  V91  1  0.62622701  0.62201821  -0.00092927  1
  V  V92  1  -0.00579811  0.25066483  0.74971792  1
  Zn  Zn93  1  0.12463671  0.49751756  0.12552801  1
  Zn  Zn94  1  0.62268076  0.49653559  0.12265552  1
  Zn  Zn95  1  0.25245496  0.49848478  0.75256644  1
  Zn  Zn96  1  0.49760058  0.49551688  -0.00211724  1
  Zn  Zn97  1  0.49791866  0.37473404  0.88197219  1
  Zn  Zn98  1  0.00105165  0.50065679  -0.00040983  1
  Zn  Zn99  1  0.62483468  0.24996624  0.37334107  1
  Zn  Zn100  1  0.37833989  0.49569245  0.87655792  1
  Zn  Zn101  1  0.37942288  0.37524933  0.00142947  1
  Zn  Zn102  1  0.37504263  0.24991739  0.62400042  1
  Zn  Zn103  1  0.90367890  0.62800660  0.70293668  1
  Zn  Zn104  1  0.75408531  0.24066948  -0.01123403  1
  Zn  Zn105  1  0.63851216  0.23452122  0.87132680  1
  Zn  Zn106  1  -0.00517625  0.87278216  0.38326015  1
  Zn  Zn107  1  0.62462179  0.37192170  0.24628316  1
  Zn  Zn108  1  0.87195554  -0.00836658  0.37957451  1
  Zn  Zn109  1  0.63700240  0.12208551  -0.00831526  1
  Zn  Zn110  1  0.91958935  0.81437429  0.56241705  1
  Zn  Zn111  1  0.12559764  0.75126887  0.37507267  1
  Zn  Zn112  1  0.62224349  0.74919526  0.37521171  1
  Zn  Zn113  1  0.87134371  0.24979725  0.62934647  1
  Zn  Zn114  1  0.75495416  0.63064339  0.86760491  1
  Zn  Zn115  1  0.49933929  0.49929567  0.49998866  1
  Zn  Zn116  1  0.49887562  0.87350417  0.37436830  1
  Zn  Zn117  1  0.49896691  0.74992288  0.25275890  1
  Zn  Zn118  1  0.87899700  0.24988255  0.12480049  1
  Zn  Zn119  1  0.37394973  -0.00057308  0.87525706  1
  Zn  Zn120  1  -0.00803900  0.75105908  0.73242303  1
  Zn  Zn121  1  0.87408593  0.62583824  0.24863506  1
  Zn  Zn122  1  0.18524203  0.18960554  0.18732725  1
  Zn  Zn123  1  0.18396655  0.19012593  0.68659664  1
  Zn  Zn124  1  0.18719885  0.68826808  0.18819115  1
  Zn  Zn125  1  0.18411618  0.68953176  0.68821606  1
  Zn  Zn126  1  0.70357887  0.17120520  0.15700451  1
  Zn  Zn127  1  0.68377396  0.19041713  0.68421115  1
  Zn  Zn128  1  0.68744300  0.68684200  0.18684981  1
  Zn  Zn129  1  0.68754576  0.68994450  0.68384720  1
  Zn  Zn130  1  0.31416188  0.31230432  0.31241403  1
  Zn  Zn131  1  0.31488817  0.31161055  0.81533341  1
  Zn  Zn132  1  0.31208480  0.81270938  0.31290426  1
  Zn  Zn133  1  0.31097865  0.81203266  0.81289012  1
  Zn  Zn134  1  0.81393855  0.30947184  0.31034274  1
  Zn  Zn135  1  0.81254659  0.31761031  0.81446207  1
  Zn  Zn136  1  0.81358904  0.81237878  0.31587128  1
  Zn  Zn137  1  0.81730858  0.80755206  0.80439795  1
  Zn  Zn138  1  0.18486025  0.44149083  0.43900286  1
  Zn  Zn139  1  0.18939486  0.43759538  0.94032366  1
  Zn  Zn140  1  0.18333413  0.93939642  0.43681261  1
  Zn  Zn141  1  0.18706362  0.93869891  0.93672501  1
  Zn  Zn142  1  0.68493884  0.43763992  0.43660783  1
  Zn  Zn143  1  0.69069858  0.43608881  0.93709330  1
  Zn  Zn144  1  0.68785555  0.93773993  0.43662559  1
  Zn  Zn145  1  0.68723892  0.93945430  0.93539812  1
  Zn  Zn146  1  0.31334503  0.06219686  0.06156788  1
  Zn  Zn147  1  0.31217234  0.06525562  0.56245404  1
  Zn  Zn148  1  0.31308239  0.55734062  0.06329207  1
  Zn  Zn149  1  0.31256695  0.56240000  0.56169221  1
  Zn  Zn150  1  0.81692829  0.05877033  0.06433963  1
  Zn  Zn151  1  0.81019444  0.06364330  0.56578939  1
  Zn  Zn152  1  0.81348929  0.56216457  0.06095634  1
  Zn  Zn153  1  0.80615053  0.56187536  0.55910574  1
  Zn  Zn154  1  0.43626737  0.43885964  0.18675201  1
  Zn  Zn155  1  0.43602682  0.43977641  0.69076028  1
  Zn  Zn156  1  0.43663289  0.93912616  0.18765877  1
  Zn  Zn157  1  0.43774924  0.93919302  0.68809864  1
  Zn  Zn158  1  0.93941812  0.43768575  0.18864154  1
  Zn  Zn159  1  0.92964807  0.44792498  0.68121714  1
  Zn  Zn160  1  0.93578424  0.93623069  0.18782690  1
  Zn  Zn161  1  0.93753786  0.94544097  0.69318326  1
  Zn  Zn162  1  0.06154325  0.05978052  0.31661937  1
  Zn  Zn163  1  0.06054145  0.06406129  0.81366273  1
  Zn  Zn164  1  0.06337500  0.56080649  0.31554976  1
  Zn  Zn165  1  0.06197626  0.56348090  0.80912392  1
  Zn  Zn166  1  0.56267538  0.06158247  0.31111416  1
  Zn  Zn167  1  0.56196878  0.06070538  0.81256461  1
  Zn  Zn168  1  0.56198186  0.56135505  0.31211068  1
  Zn  Zn169  1  0.56087342  0.56184278  0.81494742  1
  Zn  Zn170  1  0.43343844  0.18936688  0.43639904  1
  Zn  Zn171  1  0.43971225  0.18605793  0.93436428  1
  Zn  Zn172  1  0.43905892  0.68879781  0.43595111  1
  Zn  Zn173  1  0.43796656  0.68724932  0.93861108  1
  Zn  Zn174  1  0.93378275  0.18537623  0.43700507  1
  Zn  Zn175  1  0.93901995  0.19178883  0.93910021  1
  Zn  Zn176  1  0.93549561  0.68392131  0.43463048  1
  Zn  Zn177  1  0.93967067  0.68967236  0.93407584  1
  Zn  Zn178  1  0.06546621  0.31227024  0.06658614  1
  Zn  Zn179  1  0.06019814  0.31738275  0.56365078  1
  Zn  Zn180  1  0.06184615  0.81287788  0.06120318  1
  Zn  Zn181  1  0.07692543  0.81434750  0.56375014  1
  Zn  Zn182  1  0.56872496  0.30836058  0.05755611  1
  Zn  Zn183  1  0.56264464  0.31177790  0.56347269  1
  Zn  Zn184  1  0.56148007  0.81013870  0.06353396  1
  Zn  Zn185  1  0.56483730  0.81319224  0.56138832  1
  O  O186  1  0.12067460  0.11807934  0.12075827  1
  O  O187  1  0.11753904  0.12311858  0.61522179  1
  O  O188  1  0.11809840  0.62698493  0.11613929  1
  O  O189  1  0.13717614  0.61456233  0.61276898  1
  O  O190  1  0.60690227  0.11355404  0.13040105  1
  O  O191  1  0.61806506  0.11869484  0.61725837  1
  O  O192  1  0.61668626  0.62531035  0.11650870  1
  O  O193  1  0.61797627  0.62025872  0.62001020  1
  O  O194  1  0.38199519  0.38001718  0.37898078  1
  O  O195  1  0.37706134  0.37722272  0.87980155  1
  O  O196  1  0.37361863  0.88340223  0.38141305  1
  O  O197  1  0.38070889  0.87355752  0.88223537  1
  O  O198  1  0.88065548  0.38119957  0.37763819  1
  O  O199  1  0.88138790  0.38631465  0.88447739  1
  O  O200  1  0.88169023  0.87920334  0.37117709  1
  O  O201  1  0.88061826  0.87967211  0.88017730  1
  O  O202  1  0.25337458  0.00783715  0.36926019  1
  O  O203  1  0.25010420  0.00818418  0.86890304  1
  O  O204  1  0.25556353  0.50449607  0.36988895  1
  O  O205  1  0.24829021  0.51533779  0.87534770  1
  O  O206  1  0.74983912  0.00732757  0.36761208  1
  O  O207  1  0.75833511  -0.00594475  0.86519245  1
  O  O208  1  0.75624560  0.50262911  0.36703723  1
  O  O209  1  0.75736963  0.50132445  0.86565297  1
  O  O210  1  0.24582908  0.49066544  0.13287581  1
  O  O211  1  0.24233780  0.48895473  0.62266465  1
  O  O212  1  0.24391547  0.99535818  0.13008806  1
  O  O213  1  0.24541987  0.99780271  0.63037580  1
  O  O214  1  0.75311831  0.49313205  0.13489717  1
  O  O215  1  0.74035605  0.49383296  0.63172208  1
  O  O216  1  0.74344339  0.99045531  0.13128773  1
  O  O217  1  0.74392619  0.99304499  0.63100037  1
  O  O218  1  0.00686098  0.36878256  0.25599358  1
  O  O219  1  0.00739722  0.36949026  0.75559977  1
  O  O220  1  0.00668410  0.86298164  0.24339379  1
  O  O221  1  0.00745965  0.87659275  0.75587266  1
  O  O222  1  0.49616779  0.36676418  0.25590480  1
  O  O223  1  0.50808414  0.36642501  0.74587032  1
  O  O224  1  0.51013765  0.87455662  0.24891816  1
  O  O225  1  0.50569539  0.86971785  0.75414644  1
  O  O226  1  0.49112786  0.12964215  0.24446891  1
  O  O227  1  0.49470183  0.13169966  0.74314349  1
  O  O228  1  0.49374551  0.62520146  0.24077113  1
  O  O229  1  0.49445242  0.63252391  0.74448398  1
  O  O230  1  0.99913961  0.13163769  0.24900394  1
  O  O231  1  1.01040037  0.13823479  0.74007468  1
  O  O232  1  1.00209715  0.63316317  0.24107326  1
  O  O233  1  1.00805210  0.63598735  0.74820268  1
  O  O234  1  0.35914895  0.24861205  -0.00464522  1
  O  O235  1  0.36286957  0.25645739  0.50297003  1
  O  O236  1  0.36893678  0.75537507  0.00648999  1
  O  O237  1  0.37031643  0.75619259  0.50600474  1
  O  O238  1  0.87600393  0.26470076  0.00329333  1
  O  O239  1  0.86717741  0.25635870  0.50072808  1
  O  O240  1  0.86963546  0.75526856  0.00375103  1
  O  O241  1  0.85917859  0.74449270  0.49569400  1
  O  O242  1  0.13312349  0.24300707  0.50587216  1
  O  O243  1  0.13116086  0.24419404  0.99509189  1
  O  O244  1  0.13442176  0.74035481  0.49728827  1
  O  O245  1  0.13004817  0.74247805  0.99507916  1
  O  O246  1  0.63061895  0.24284752  0.49796928  1
  O  O247  1  0.63265994  0.24317294  0.99322280  1
  O  O248  1  0.63404843  0.74323798  0.49859017  1
  O  O249  1  0.62992863  0.74275771  0.99541126  1
  O  O250  1  0.50239940  0.23785264  0.13314040  1
  O  O251  1  0.49861990  0.24396241  0.63427959  1
  O  O252  1  0.49272019  0.73903123  0.12677211  1
  O  O253  1  0.49456302  0.74556005  0.63006827  1
  O  O254  1  1.00153996  0.24390051  0.13796746  1
  O  O255  1  1.00071390  0.24601993  0.63308410  1
  O  O256  1  0.99639964  0.74212348  0.13092537  1
  O  O257  1  0.99872147  0.75719597  0.61755500  1
  O  O258  1  -0.00491695  0.25715223  0.36554436  1
  O  O259  1  0.00607438  0.25638942  0.86853748  1
  O  O260  1  0.00111990  0.74777754  0.36161483  1
  O  O261  1  0.00804226  0.76098777  0.87821438  1
  O  O262  1  0.49736507  0.25962288  0.36745167  1
  O  O263  1  0.50075860  0.25083890  0.85887611  1
  O  O264  1  0.50371456  0.75498239  0.37058452  1
  O  O265  1  0.50551513  0.75490972  0.86917976  1
  O  O266  1  0.24199817  0.13352636  0.49678952  1
  O  O267  1  0.24442168  0.13129277  0.99688112  1
  O  O268  1  0.24382730  0.62955203  0.49432133  1
  O  O269  1  0.24282787  0.63121069  0.99505200  1
  O  O270  1  0.74372912  0.12919563  0.49450989  1
  O  O271  1  0.74153906  0.13791006  1.04440645  1
  O  O272  1  0.74238524  0.63247819  0.49656641  1
  O  O273  1  0.74011724  0.63162927  1.00149814  1
  O  O274  1  0.24627413  0.36585293  0.01046811  1
  O  O275  1  0.25162206  0.36921721  0.50541745  1
  O  O276  1  0.25380040  0.87039882  0.00543427  1
  O  O277  1  0.25465059  0.87175399  0.50572330  1
  O  O278  1  0.76115712  0.37930204  0.01050086  1
  O  O279  1  0.75216389  0.36901170  0.50263423  1
  O  O280  1  0.75378583  0.86906357  0.00539101  1
  O  O281  1  0.74264800  0.86667087  0.51000427  1
  O  O282  1  0.13023371  0.49033098  0.24989874  1
  O  O283  1  0.13202181  0.49406139  0.74210061  1
  O  O284  1  0.12964613  0.99601247  0.24436241  1
  O  O285  1  0.13049174  0.99729149  0.74527945  1
  O  O286  1  0.63665590  0.49760093  0.24760171  1
  O  O287  1  0.63041969  0.49303778  0.74495469  1
  O  O288  1  0.62952026  0.99068270  0.24387859  1
  O  O289  1  0.63148098  0.99274836  0.74401433  1
  O  O290  1  0.36795353  0.00892493  0.25505908  1
  O  O291  1  0.36769868  0.00708924  0.75109835  1
  O  O292  1  0.36726839  0.50586232  0.25537509  1
  O  O293  1  0.36957167  0.51077643  0.75287209  1
  O  O294  1  0.86834294  0.00643623  0.24845696  1
  O  O295  1  0.86419327  -0.00132945  0.76159472  1
  O  O296  1  0.86742573  0.50020737  0.25881553  1
  O  O297  1  0.86420873  0.49752628  0.76165888  1
  O  O298  1  0.11831717  0.38229896  0.36484470  1
  O  O299  1  0.12146022  0.37182951  0.87105824  1
  O  O300  1  0.11887655  0.87263800  0.36753351  1
  O  O301  1  0.11920421  0.87240998  0.87071680  1
  O  O302  1  0.61157151  0.37397593  0.37130983  1
  O  O303  1  0.62417575  0.37752134  0.85968637  1
  O  O304  1  0.62351655  0.87562326  0.36234344  1
  O  O305  1  0.61838301  0.86893435  0.86972465  1
  O  O306  1  0.38318809  0.11738628  0.13710674  1
  O  O307  1  0.38097347  0.12703492  0.63070305  1
  O  O308  1  0.38106384  0.62963891  0.12939106  1
  O  O309  1  0.37818867  0.63155763  0.62995156  1
  O  O310  1  0.88681446  0.12548202  0.13363926  1
  O  O311  1  0.89045968  0.12992547  0.62170958  1
  O  O312  1  0.88618714  0.63051790  0.12364464  1
  O  O313  1  0.90276199  0.56110693  0.61247469  1
  O  O314  1  0.24234626  0.25790250  0.11575675  1
  O  O315  1  0.24968870  0.25970059  0.61543089  1
  O  O316  1  0.25421721  0.75588720  0.11978177  1
  O  O317  1  0.25568461  0.75749815  0.61961266  1
  O  O318  1  0.75944182  0.26956146  0.13541604  1
  O  O319  1  0.75095717  0.25674918  0.61799583  1
  O  O320  1  0.75633632  0.75422915  0.11927668  1
  O  O321  1  0.74553207  0.76092646  0.61513016  1
  O  O322  1  0.25398816  0.24569480  0.38723616  1
  O  O323  1  0.24259788  0.24491522  0.88358073  1
  O  O324  1  0.24993330  0.74276169  0.38141020  1
  O  O325  1  0.24302608  0.74275254  0.88113876  1
  O  O326  1  0.74753382  0.24313455  0.37942233  1
  O  O327  1  0.75074916  0.25403617  0.87652434  1
  O  O328  1  0.74594718  0.74290024  0.38268197  1
  O  O329  1  0.74353640  0.74923892  0.88056458  1
  O  O330  1  0.00624357  0.12074837  0.00672936  1
  O  O331  1  0.00767589  0.12356228  0.50756358  1
  O  O332  1  0.00988127  0.62751641  0.00835784  1
  O  O333  1  0.01251649  0.62063063  0.49333069  1
  O  O334  1  0.49303143  0.11823837  0.01135120  1
  O  O335  1  0.50279753  0.12089241  0.50372494  1
  O  O336  1  0.50990816  0.62743063  0.00883393  1
  O  O337  1  0.50466205  0.62336639  0.50703955  1
  O  O338  1  0.49325143  0.37418080  0.49078381  1
  O  O339  1  0.49775691  0.37579228  1.00159784  1
  O  O340  1  0.49276424  0.88315139  0.50028284  1
  O  O341  1  0.49439694  0.87841951  0.99590880  1
  O  O342  1  0.99212860  0.38495471  0.49728724  1
  O  O343  1  0.99459586  0.37701876  0.99614472  1
  O  O344  1  1.00238617  0.88786761  0.50536296  1
  O  O345  1  0.99461996  0.88243356  0.99534114  1
  O  O346  1  0.49296456  0.48891693  0.37385188  1
  O  O347  1  0.49731542  0.49604565  0.87850127  1
  O  O348  1  0.49186704  0.99970811  0.38111359  1
  O  O349  1  0.49608003  0.99036425  0.88106179  1
  O  O350  1  0.98876120  0.49611411  0.38018332  1
  O  O351  1  0.99236259  0.49497383  0.87558380  1
  O  O352  1  0.99879805  0.99939836  0.38919908  1
  O  O353  1  0.99168098  0.99580355  0.87955078  1
  O  O354  1  0.00560925  0.00460303  0.11916779  1
  O  O355  1  0.00575640  0.01113663  0.62190965  1
  O  O356  1  0.00251759  0.51310399  0.12486021  1
  O  O357  1  0.02433038  0.48190897  0.62412164  1
  O  O358  1  0.50263762  0.00585013  0.11922427  1
  O  O359  1  0.50527277  0.00565182  0.61923926  1
  O  O360  1  0.50111074  0.51324183  0.12452647  1
  O  O361  1  0.50463616  0.50715009  0.62443899  1
  O  O362  1  0.24294647  0.37628411  0.24651443  1
  O  O363  1  0.24512513  0.37283035  0.74050874  1
  O  O364  1  0.24438288  0.88151871  0.24454195  1
  O  O365  1  0.24594084  0.88283611  0.74540517  1
  O  O366  1  0.75111435  0.38518997  0.24499965  1
  O  O367  1  0.74156030  0.38500611  0.74347133  1
  O  O368  1  0.74155347  0.87817308  0.24374754  1
  O  O369  1  0.74351055  0.87895767  0.74037864  1
  O  O370  1  0.25526930  0.12241247  0.25333680  1
  O  O371  1  0.25274270  0.12290004  0.75411944  1
  O  O372  1  0.25394400  0.61928664  0.25445755  1
  O  O373  1  0.25396685  0.62812413  0.76046333  1
  O  O374  1  0.75601580  0.11858565  0.25051780  1
  O  O375  1  0.74369977  0.11051197  0.74025763  1
  O  O376  1  0.75166440  0.61543444  0.25404737  1
  O  O377  1  0.74476607  0.60979447  0.74686439  1
  O  O378  1  0.36738259  0.11978439  0.36639042  1
  O  O379  1  0.36689157  0.12323431  0.86698144  1
  O  O380  1  0.37012685  0.61918699  0.36959310  1
  O  O381  1  0.36362821  0.63049888  0.87012354  1
  O  O382  1  0.86682179  0.12058238  0.36767510  1
  O  O383  1  0.87824123  0.11177417  0.88511935  1
  O  O384  1  0.86710700  0.61260937  0.37241655  1
  O  O385  1  0.87216922  0.61006744  0.88676925  1
  O  O386  1  0.13248205  0.37718376  0.13834137  1
  O  O387  1  0.13731667  0.37998149  0.62839599  1
  O  O388  1  0.13085962  0.88047628  0.12926112  1
  O  O389  1  0.13554976  0.88570749  0.63134448  1
  O  O390  1  0.63751336  0.37872907  0.12670406  1
  O  O391  1  0.62866141  0.38051487  0.63297893  1
  O  O392  1  0.62914174  0.87777351  0.13189734  1
  O  O393  1  0.63193767  0.88142698  0.63026126  1
  O  O394  1  0.11567173  0.25979108  0.24943823  1
  O  O395  1  0.11798969  0.25773021  0.75656134  1
  O  O396  1  0.11673822  0.75556174  0.25057362  1
  O  O397  1  0.12758569  0.76222239  0.75643045  1
  O  O398  1  0.60769278  0.25073043  0.25317160  1
  O  O399  1  0.61652587  0.25947465  0.74810510  1
  O  O400  1  0.62444298  0.76101405  0.24952066  1
  O  O401  1  0.61973034  0.75467330  0.75482235  1
  O  O402  1  0.38354231  0.23735077  0.25548331  1
  O  O403  1  0.38294015  0.24426962  0.74597687  1
  O  O404  1  0.37364132  0.74309903  0.24279662  1
  O  O405  1  0.38029674  0.74638890  0.74371003  1
  O  O406  1  0.88768512  0.24299730  0.24843689  1
  O  O407  1  0.89137490  0.26057015  0.74962117  1
  O  O408  1  0.88429388  0.74705759  0.24174244  1
  O  O409  1  0.87516931  0.73181558  0.74594871  1
  O  O410  1  0.37595728  0.49299386  0.49249662  1
  O  O411  1  0.37752676  0.49634071  0.99624084  1
  O  O412  1  0.37829325  0.99669143  0.49500119  1
  O  O413  1  0.38049475  0.99179227  0.99881009  1
  O  O414  1  0.87195439  0.49064955  0.48308346  1
  O  O415  1  0.87766637  0.49101043  0.99332008  1
  O  O416  1  0.88962232  1.00957531  0.50207307  1
  O  O417  1  0.87900230  0.99299537  0.99328735  1
  O  O418  1  0.11910357  0.00587181  0.00489872  1
  O  O419  1  0.11772604  0.01121014  0.50701440  1
  O  O420  1  0.12355687  0.51361788  0.00206588  1
  O  O421  1  0.11702618  0.50807128  0.50732266  1
  O  O422  1  0.61706728  -0.00164938  0.00790072  1
  O  O423  1  0.61868674  0.00568007  0.50489784  1
  O  O424  1  0.62676710  0.51282110  0.00096791  1
  O  O425  1  0.62310465  0.50648462  0.50708657  1
  O  O426  1  0.35818685  0.37689830  0.12774374  1
  O  O427  1  0.36403744  0.37637919  0.61989714  1
  O  O428  1  0.36832287  0.87020164  0.12064279  1
  O  O429  1  0.37035835  0.87084816  0.61971912  1
  O  O430  1  0.87182641  0.37851687  0.11661366  1
  O  O431  1  0.86562123  0.37498857  0.61606643  1
  O  O432  1  0.86936508  0.86950868  0.11697972  1
  O  O433  1  0.86010422  0.88510062  0.62877253  1
  O  O434  1  0.13059409  0.12111776  0.38863079  1
  O  O435  1  0.12961112  0.13120396  0.88138413  1
  O  O436  1  0.13253449  0.62373618  0.38596115  1
  O  O437  1  0.13262660  0.63094614  0.88388461  1
  O  O438  1  0.63069681  0.12578234  0.38026006  1
  O  O439  1  0.62207792  0.12192315  0.87965634  1
  O  O440  1  0.63081978  0.62309758  0.38162785  1
  O  O441  1  0.62672716  0.63214015  0.88417155  1
