# generated using pymatgen
data_V93Zn93O256
_symmetry_space_group_name_H-M   'P 1'
_cell_length_a   17.05291380
_cell_length_b   17.05116905
_cell_length_c   17.04904808
_cell_angle_alpha   89.96166662
_cell_angle_beta   89.95250339
_cell_angle_gamma   89.99328893
_symmetry_Int_Tables_number   1
_chemical_formula_structural   V93Zn93O256
_chemical_formula_sum   'V93 Zn93 O256'
_cell_volume   4957.38493960
_cell_formula_units_Z   1
loop_
 _symmetry_equiv_pos_site_id
 _symmetry_equiv_pos_as_xyz
  1  'x, y, z'
loop_
 _atom_site_type_symbol
 _atom_site_label
 _atom_site_symmetry_multiplicity
 _atom_site_fract_x
 _atom_site_fract_y
 _atom_site_fract_z
 _atom_site_occupancy
  V  V0  1  0.74890556  0.24294052  0.49410200  1
  V  V1  1  0.50245608  0.37507890  0.87205007  1
  V  V2  1  0.00545766  0.00204350  0.50809407  1
  V  V3  1  0.37339046  0.75085007  0.12400101  1
  V  V4  1  0.50054191  0.74997854  0.24911232  1
  V  V5  1  0.62590714  0.37526270  0.24949460  1
  V  V6  1  0.62499441  0.75307768  0.87028472  1
  V  V7  1  0.24879877  0.12393211  0.87274283  1
  V  V8  1  0.87270808  0.12093523  0.74943365  1
  V  V9  1  0.87196725  0.00657552  0.37628221  1
  V  V10  1  0.62595019  0.49712077  0.62953410  1
  V  V11  1  0.74793120  0.37339506  0.62964414  1
  V  V12  1  0.50239353  -0.00007121  0.49839148  1
  V  V13  1  -0.00024400  0.87367044  0.87617693  1
  V  V14  1  0.74949405  0.74988556  0.00046087  1
  V  V15  1  0.62762274  -0.00514716  0.63715172  1
  V  V16  1  0.74901924  0.12175593  0.87206208  1
  V  V17  1  0.62657676  0.25421620  0.87133299  1
  V  V18  1  0.37557895  0.87380009  0.49994125  1
  V  V19  1  0.25195627  0.37707910  0.62440669  1
  V  V20  1  0.00016585  0.37536523  0.87540237  1
  V  V21  1  0.50071345  0.62545931  0.62387452  1
  V  V22  1  0.12429931  0.50058116  0.12523617  1
  V  V23  1  0.00046692  0.50107762  0.00070991  1
  V  V24  1  0.87519542  0.49993875  0.87427952  1
  V  V25  1  0.87454624  0.37456566  0.00021495  1
  V  V26  1  0.75011981  0.37496233  0.12550290  1
  V  V27  1  0.75772311  0.62474145  0.37134493  1
  V  V28  1  0.87494902  0.75050644  0.62639153  1
  V  V29  1  0.12324582  0.50191018  0.62362148  1
  V  V30  1  0.49964131  0.87367021  0.37435771  1
  V  V31  1  0.50488469  0.25293783  0.74878505  1
  V  V32  1  0.37587225  0.37521516  -0.00101086  1
  V  V33  1  0.00059370  0.25032194  0.25194915  1
  V  V34  1  0.37477276  0.62471470  0.24989633  1
  V  V35  1  0.37571891  0.24920126  0.12462857  1
  V  V36  1  0.62436793  0.00050104  0.12416251  1
  V  V37  1  0.87532555  0.62532222  0.74910309  1
  V  V38  1  0.12555164  0.37399951  0.25175724  1
  V  V39  1  0.12504375  0.74995876  0.87529225  1
  V  V40  1  0.12615383  0.37672483  0.75047400  1
  V  V41  1  0.87498920  0.24995341  0.12523771  1
  V  V42  1  0.49981365  0.12489053  0.12353508  1
  V  V43  1  0.62371726  0.87457948  0.24923297  1
  V  V44  1  0.12452169  0.24842576  0.37741501  1
  V  V45  1  0.74964183  0.75428133  0.49965941  1
  V  V46  1  -0.00124884  0.87677139  0.37558129  1
  V  V47  1  0.25021676  0.62584305  0.87485245  1
  V  V48  1  0.25050032  0.37507062  0.12527684  1
  V  V49  1  0.25007601  0.24980111  -0.00069731  1
  V  V50  1  0.74963062  0.87501487  0.12486330  1
  V  V51  1  0.87100301  -0.00139128  0.87353132  1
  V  V52  1  -0.00674358  0.62507967  0.12948686  1
  V  V53  1  0.74907709  0.49763725  0.75023106  1
  V  V54  1  0.50436110  0.87675412  0.87023079  1
  V  V55  1  0.62410769  0.62502130  -0.00068861  1
  V  V56  1  0.12739492  0.87962178  0.74880391  1
  V  V57  1  0.50301463  0.37380494  0.37485860  1
  V  V58  1  0.24721369  0.87998554  0.62854089  1
  V  V59  1  -0.00132833  0.12423933  0.12671263  1
  V  V60  1  0.24937433  0.75000778  0.00004288  1
  V  V61  1  -0.00085108  0.24922115  0.75129373  1
  V  V62  1  0.37709450  0.37561784  0.49935610  1
  V  V63  1  0.87395568  0.87387983  0.00114587  1
  V  V64  1  0.50078446  0.50080694  -0.00093464  1
  V  V65  1  0.50356540  0.12331919  0.62373486  1
  V  V66  1  0.24877263  0.74967697  0.49989033  1
  V  V67  1  0.50021514  0.25018614  0.24783618  1
  V  V68  1  0.24934182  0.62585040  0.37486103  1
  V  V69  1  0.74918611  0.00633636  0.25527741  1
  V  V70  1  0.50000240  0.62493283  0.12401581  1
  V  V71  1  0.74437490  0.87651121  0.64247252  1
  V  V72  1  0.12423536  0.75026703  0.37594104  1
  V  V73  1  0.25038128  0.50095715  0.25035829  1
  V  V74  1  -0.00865293  0.74645964  0.25125748  1
  V  V75  1  0.50398204  0.75325142  0.74895740  1
  V  V76  1  0.37532621  0.50060041  0.87356365  1
  V  V77  1  0.12419662  0.87462057  0.24958480  1
  V  V78  1  0.87741908  0.37768098  0.49906185  1
  V  V79  1  0.87650750  0.24721421  0.62657993  1
  V  V80  1  0.12498982  0.00006063  0.12507305  1
  V  V81  1  0.25073847  0.25076096  0.49898080  1
  V  V82  1  0.25103587  0.12318615  0.37339615  1
  V  V83  1  0.37533602  0.74947583  0.62498959  1
  V  V84  1  0.74964790  0.62453710  0.87539029  1
  V  V85  1  0.62588776  0.62381442  0.49825743  1
  V  V86  1  0.37009755  -0.00110291  0.87415646  1
  V  V87  1  0.37518407  0.62517266  0.74986054  1
  V  V88  1  0.37367704  0.12188210  0.74865557  1
  V  V89  1  0.24944865  0.87419237  0.12465127  1
  V  V90  1  0.12566351  0.25023881  0.87690370  1
  V  V91  1  0.75623422  0.50306695  0.25087437  1
  V  V92  1  0.62414444  0.12427070  -0.00121707  1
  Zn  Zn93  1  0.63197656  0.11883433  0.49463917  1
  Zn  Zn94  1  0.25252775  -0.00060949  0.25050456  1
  Zn  Zn95  1  0.25071911  0.50041979  0.75015518  1
  Zn  Zn96  1  0.12487479  0.12437414  -0.00005112  1
  Zn  Zn97  1  0.88088362  0.50310091  0.37250964  1
  Zn  Zn98  1  -0.00194672  -0.00067851  0.00283477  1
  Zn  Zn99  1  0.37576812  0.12237397  0.24867123  1
  Zn  Zn100  1  -0.00031524  0.50387869  0.49725870  1
  Zn  Zn101  1  0.86953820  0.12892147  0.25448132  1
  Zn  Zn102  1  0.62606143  0.74925940  0.37245014  1
  Zn  Zn103  1  0.37872769  0.25020294  0.62489659  1
  Zn  Zn104  1  0.12248434  0.62549663  0.50110125  1
  Zn  Zn105  1  0.75001910  0.25056066  0.00009414  1
  Zn  Zn106  1  0.37645354  0.50130923  0.37467053  1
  Zn  Zn107  1  0.00106389  0.37706095  0.37670003  1
  Zn  Zn108  1  0.87322152  0.87947257  0.50333828  1
  Zn  Zn109  1  0.87139202  0.74723812  0.12905375  1
  Zn  Zn110  1  0.37523061  0.87585715  -0.00119216  1
  Zn  Zn111  1  0.49949374  -0.00221395  -0.00021597  1
  Zn  Zn112  1  0.63141312  0.24125563  0.36945864  1
  Zn  Zn113  1  0.13210415  0.12064295  0.51139018  1
  Zn  Zn114  1  0.50126852  0.49932319  0.49897282  1
  Zn  Zn115  1  0.37466242  -0.00041921  0.37160962  1
  Zn  Zn116  1  0.01289027  0.11883480  0.63272659  1
  Zn  Zn117  1  0.62582694  0.50002130  0.12459470  1
  Zn  Zn118  1  0.00090782  0.62525297  0.62446080  1
  Zn  Zn119  1  0.00102310  0.74929041  0.74978361  1
  Zn  Zn120  1  0.12385226  0.62555716  -0.00016109  1
  Zn  Zn121  1  0.19240637  0.04352944  0.69163525  1
  Zn  Zn122  1  0.18729392  0.18721228  0.18927388  1
  Zn  Zn123  1  0.18885072  0.20252871  0.68653038  1
  Zn  Zn124  1  0.18296504  0.68725420  0.18807714  1
  Zn  Zn125  1  0.18796805  0.68985107  0.68928405  1
  Zn  Zn126  1  0.68560669  0.18851868  0.18591388  1
  Zn  Zn127  1  0.68734681  0.18228261  0.68369210  1
  Zn  Zn128  1  0.68637655  0.68639077  0.18689176  1
  Zn  Zn129  1  0.68832014  0.68647929  0.68761394  1
  Zn  Zn130  1  0.31401083  0.31127574  0.31278001  1
  Zn  Zn131  1  0.31462375  0.31148798  0.81130612  1
  Zn  Zn132  1  0.31252193  0.81312918  0.31182295  1
  Zn  Zn133  1  0.31301262  0.81290664  0.81121702  1
  Zn  Zn134  1  0.81534106  0.31564659  0.31244457  1
  Zn  Zn135  1  0.81283408  0.31066717  0.81244515  1
  Zn  Zn136  1  0.81135039  0.81834380  0.31583755  1
  Zn  Zn137  1  0.81285398  0.81060234  0.81438909  1
  Zn  Zn138  1  0.18785517  0.43822745  0.43693479  1
  Zn  Zn139  1  0.18795491  0.43890675  0.93781735  1
  Zn  Zn140  1  0.18706807  0.93631825  0.43848097  1
  Zn  Zn141  1  0.18744755  0.93709705  0.93833326  1
  Zn  Zn142  1  0.69011414  0.43554417  0.43743829  1
  Zn  Zn143  1  0.68734653  0.43702421  0.93840836  1
  Zn  Zn144  1  0.68446704  0.93724290  0.43684107  1
  Zn  Zn145  1  0.68664195  0.93729446  0.93632319  1
  Zn  Zn146  1  0.31238220  0.06248495  0.05941610  1
  Zn  Zn147  1  0.31969859  0.06424859  0.55740807  1
  Zn  Zn148  1  0.31222999  0.56356291  0.06144887  1
  Zn  Zn149  1  0.31097789  0.56168546  0.56133203  1
  Zn  Zn150  1  0.81080577  0.06252887  0.06191191  1
  Zn  Zn151  1  0.81338348  0.05756576  0.56559079  1
  Zn  Zn152  1  0.81227110  0.56125684  0.06305546  1
  Zn  Zn153  1  0.81186227  0.56314082  0.56153002  1
  Zn  Zn154  1  0.43780355  0.43835954  0.18685602  1
  Zn  Zn155  1  0.43886167  0.43849787  0.68674166  1
  Zn  Zn156  1  0.43592348  0.93908475  0.18788340  1
  Zn  Zn157  1  0.43773162  0.93747261  0.68654663  1
  Zn  Zn158  1  0.93818859  0.43607970  0.18795356  1
  Zn  Zn159  1  0.93766795  0.43644646  0.68628762  1
  Zn  Zn160  1  0.93489897  0.93638980  0.19010654  1
  Zn  Zn161  1  0.93525342  0.93245942  0.68989564  1
  Zn  Zn162  1  0.06289643  0.06290044  0.31517466  1
  Zn  Zn163  1  0.05703473  0.06204197  0.81889621  1
  Zn  Zn164  1  0.06217792  0.56278336  0.31376316  1
  Zn  Zn165  1  0.06232905  0.56450011  0.80957275  1
  Zn  Zn166  1  0.56412127  0.06516162  0.31360893  1
  Zn  Zn167  1  0.55915953  0.06420723  0.81388578  1
  Zn  Zn168  1  0.56601450  0.56049965  0.31150406  1
  Zn  Zn169  1  0.56220095  0.56535546  0.81136058  1
  Zn  Zn170  1  0.43831161  0.18741148  0.43553100  1
  Zn  Zn171  1  0.43803754  0.18663116  0.93711610  1
  Zn  Zn172  1  0.43711429  0.68844585  0.43619709  1
  Zn  Zn173  1  0.43696086  0.68965730  0.93686655  1
  Zn  Zn174  1  0.93917618  0.18559766  0.44099130  1
  Zn  Zn175  1  0.93793880  0.18729655  0.94001635  1
  Zn  Zn176  1  0.93931950  0.68768481  0.44187464  1
  Zn  Zn177  1  0.93824244  0.68761538  0.93975388  1
  Zn  Zn178  1  0.06253999  0.31259843  0.06345884  1
  Zn  Zn179  1  0.06267714  0.31108242  0.56388807  1
  Zn  Zn180  1  0.06091205  0.81102924  0.06244311  1
  Zn  Zn181  1  0.06285891  0.81655678  0.56210671  1
  Zn  Zn182  1  0.56427305  0.31232679  0.06032366  1
  Zn  Zn183  1  0.56464805  0.31191539  0.56250587  1
  Zn  Zn184  1  0.56112013  0.81335075  0.05865958  1
  Zn  Zn185  1  0.56465764  0.81408950  0.56354273  1
  O  O186  1  0.11703189  0.11698270  0.12551852  1
  O  O187  1  0.13039539  0.12091357  0.63045729  1
  O  O188  1  0.11377210  0.61811123  0.12366691  1
  O  O189  1  0.12591905  0.61467731  0.62642713  1
  O  O190  1  0.61976573  0.12046190  0.11802087  1
  O  O191  1  0.62102514  0.11411433  0.61726071  1
  O  O192  1  0.61756856  0.62375154  0.11669529  1
  O  O193  1  0.62256284  0.61755086  0.61591577  1
  O  O194  1  0.38385287  0.37626203  0.38278958  1
  O  O195  1  0.38154831  0.38001825  0.87989650  1
  O  O196  1  0.38116172  0.87458655  0.38243590  1
  O  O197  1  0.38091584  0.88476192  0.87338725  1
  O  O198  1  0.87670198  0.37714155  0.38801043  1
  O  O199  1  0.88028746  0.38021838  0.87910368  1
  O  O200  1  0.88163458  0.88647869  0.37896196  1
  O  O201  1  0.87734172  0.88205197  0.87902562  1
  O  O202  1  0.25010992  0.01023789  0.37591960  1
  O  O203  1  0.26107982  0.00652085  0.87881255  1
  O  O204  1  0.25126196  0.50717428  0.36747531  1
  O  O205  1  0.25755452  0.50628144  0.87375431  1
  O  O206  1  0.75851311  -0.00804589  0.36620319  1
  O  O207  1  0.75894045  0.01012143  0.87847887  1
  O  O208  1  0.75088132  0.50772834  0.36810071  1
  O  O209  1  0.75504590  0.50416100  0.87010324  1
  O  O210  1  0.24506890  0.49479059  0.12958912  1
  O  O211  1  0.24164412  0.49433880  0.62740408  1
  O  O212  1  0.23982957  0.99511990  0.12485196  1
  O  O213  1  0.25863817  0.98560575  0.61995079  1
  O  O214  1  0.74882062  0.49489285  0.13353115  1
  O  O215  1  0.74446090  0.49275700  0.62972031  1
  O  O216  1  0.74426992  0.99422250  0.13268335  1
  O  O217  1  0.73982102  0.98712122  0.61723760  1
  O  O218  1  0.00784302  0.36736854  0.25046772  1
  O  O219  1  0.00440806  0.36916776  0.75663715  1
  O  O220  1  0.00521262  0.86730020  0.25506295  1
  O  O221  1  0.00844655  0.87196430  0.75709640  1
  O  O222  1  0.50500919  0.37118842  0.25586398  1
  O  O223  1  0.49321129  0.36076350  0.75489717  1
  O  O224  1  0.50457361  0.86929869  0.25400864  1
  O  O225  1  0.49300982  0.86767144  0.76120440  1
  O  O226  1  0.49977242  0.13287870  0.24104522  1
  O  O227  1  0.49306610  0.13437822  0.74495313  1
  O  O228  1  0.49603402  0.62917192  0.24475195  1
  O  O229  1  0.49401939  0.63163843  0.74291407  1
  O  O230  1  0.99957168  0.13063302  0.23989171  1
  O  O231  1  0.98936669  0.12989337  0.75211730  1
  O  O232  1  1.00477515  0.63538657  0.24196572  1
  O  O233  1  0.99062678  0.62909080  0.74507130  1
  O  O234  1  0.37027338  0.25640124  0.00364003  1
  O  O235  1  0.37157696  0.26162687  0.50093305  1
  O  O236  1  0.36735884  0.75045065  0.00676193  1
  O  O237  1  0.36978530  0.75456931  0.50607453  1
  O  O238  1  0.87413671  0.25744445  0.00628284  1
  O  O239  1  0.86715337  0.25586493  0.50643957  1
  O  O240  1  0.86630920  0.75644870  0.00074141  1
  O  O241  1  0.86383895  0.75122529  0.50950775  1
  O  O242  1  0.13277862  0.24710734  0.49599577  1
  O  O243  1  0.13195847  0.25068913  0.99387507  1
  O  O244  1  0.13113898  0.75145398  0.49352512  1
  O  O245  1  0.13151277  0.74907230  0.99312971  1
  O  O246  1  0.64290259  0.25106908  0.50250686  1
  O  O247  1  0.62612000  0.24302862  0.98772997  1
  O  O248  1  0.63343993  0.73942665  0.50092013  1
  O  O249  1  0.63049592  0.74423170  0.99215420  1
  O  O250  1  0.49528108  0.24575230  0.12795138  1
  O  O251  1  0.50253732  0.24419643  0.63309910  1
  O  O252  1  0.49406489  0.74477375  0.12899586  1
  O  O253  1  0.49536754  0.74509864  0.62859418  1
  O  O254  1  0.99620696  0.24281748  0.13103666  1
  O  O255  1  0.99441297  0.24458515  0.63349827  1
  O  O256  1  0.99866242  0.74233872  0.13396794  1
  O  O257  1  0.98404966  0.75409408  0.62442685  1
  O  O258  1  0.00671033  0.24926163  0.36975365  1
  O  O259  1  0.00495994  0.25563201  0.87142549  1
  O  O260  1  0.00319839  0.75510064  0.36962159  1
  O  O261  1  0.00579955  0.75648422  0.87465688  1
  O  O262  1  0.49945625  0.26199300  0.36808004  1
  O  O263  1  0.50788467  0.25335484  0.86793996  1
  O  O264  1  0.50230998  0.75532774  0.36731938  1
  O  O265  1  0.50433947  0.75745018  0.86914392  1
  O  O266  1  0.25185507  0.13135704  0.49226941  1
  O  O267  1  0.24784334  0.13320210  0.99216566  1
  O  O268  1  0.24886441  0.63274918  0.49338827  1
  O  O269  1  0.24751124  0.63131379  0.99313444  1
  O  O270  1  0.75520017  0.14117361  0.50796195  1
  O  O271  1  0.74476589  0.12815296  0.98846654  1
  O  O272  1  0.74268647  0.63322505  0.49434000  1
  O  O273  1  0.74486954  0.62898447  0.99446374  1
  O  O274  1  0.25650763  0.37025175  0.00517161  1
  O  O275  1  0.25978332  0.37090400  0.50279500  1
  O  O276  1  0.25165365  0.86755512  0.00697815  1
  O  O277  1  0.25462592  0.86911865  0.50777537  1
  O  O278  1  0.75723121  0.37465068  0.00643615  1
  O  O279  1  0.75835087  0.36691678  0.51073528  1
  O  O280  1  0.75359425  0.86910958  0.00472424  1
  O  O281  1  0.74842500  0.86160041  0.50198700  1
  O  O282  1  0.13121062  0.49403130  0.24430533  1
  O  O283  1  0.12720134  0.49353207  0.74206122  1
  O  O284  1  0.12499886  0.99378767  0.23970762  1
  O  O285  1  0.12153353  0.98624505  0.75828942  1
  O  O286  1  0.63584472  0.49276269  0.24756490  1
  O  O287  1  0.63193351  0.50818785  0.73695153  1
  O  O288  1  0.63120318  0.99405850  0.24480143  1
  O  O289  1  0.61870335  1.00573817  0.73571391  1
  O  O290  1  0.37048639  0.00397087  0.25368109  1
  O  O291  1  0.38288944  0.01387182  0.75879561  1
  O  O292  1  0.36809772  0.50681405  0.25000501  1
  O  O293  1  0.37549329  0.50687940  0.75610545  1
  O  O294  1  0.86570607  0.00062399  0.25822543  1
  O  O295  1  0.88065424  0.00888968  0.76241992  1
  O  O296  1  0.86016706  0.49280599  0.25228669  1
  O  O297  1  0.86925574  0.50443967  0.75499772  1
  O  O298  1  0.12572795  0.36648148  0.36929512  1
  O  O299  1  0.11957202  0.37076950  0.87055369  1
  O  O300  1  0.11871310  0.86979985  0.36938818  1
  O  O301  1  0.12111802  0.86991488  0.86880658  1
  O  O302  1  0.61736169  0.37086902  0.37061412  1
  O  O303  1  0.62012442  0.36238023  0.87891486  1
  O  O304  1  0.61748829  0.87185960  0.36727769  1
  O  O305  1  0.61391735  0.86893431  0.87867794  1
  O  O306  1  0.38115643  0.13239552  0.12323012  1
  O  O307  1  0.38277884  0.12627654  0.63379647  1
  O  O308  1  0.38018381  0.63072670  0.13034774  1
  O  O309  1  0.38085232  0.62957350  0.62844496  1
  O  O310  1  0.88346987  0.12966937  0.12659629  1
  O  O311  1  0.87300581  0.12734280  0.63897207  1
  O  O312  1  0.88867584  0.62631615  0.12142693  1
  O  O313  1  0.87038190  0.63576944  0.63064716  1
  O  O314  1  0.25481709  0.25577744  0.11973336  1
  O  O315  1  0.25673349  0.26019818  0.61678366  1
  O  O316  1  0.25305646  0.75415111  0.12062245  1
  O  O317  1  0.25622951  0.75828369  0.61964487  1
  O  O318  1  0.75699281  0.25635304  0.12376786  1
  O  O319  1  0.75507397  0.25732872  0.62040640  1
  O  O320  1  0.75079972  0.75553994  0.11927720  1
  O  O321  1  0.75433228  0.75660931  0.61901923  1
  O  O322  1  0.24522593  0.24315632  0.37970814  1
  O  O323  1  0.24544971  0.24476689  0.87923610  1
  O  O324  1  0.24424124  0.74619703  0.37994689  1
  O  O325  1  0.24573125  0.74548983  0.88012085  1
  O  O326  1  0.75280834  0.25582868  0.39147449  1
  O  O327  1  0.74187456  0.24226933  0.87500084  1
  O  O328  1  0.74878389  0.74348831  0.38248065  1
  O  O329  1  0.74486058  0.74377177  0.88046173  1
  O  O330  1  0.00235385  0.12373643  0.01414055  1
  O  O331  1  0.00296864  0.11248397  0.50668591  1
  O  O332  1  0.00218110  0.61872616  0.00912289  1
  O  O333  1  0.00428095  0.62233809  0.50731478  1
  O  O334  1  0.50707546  0.12380738  0.00516010  1
  O  O335  1  0.49555280  0.11415980  0.50695744  1
  O  O336  1  0.50440563  0.62064387  0.00366171  1
  O  O337  1  0.51011916  0.62452472  0.50406033  1
  O  O338  1  0.49457729  0.37397310  0.49245582  1
  O  O339  1  0.49501825  0.38039680  0.99275491  1
  O  O340  1  0.49557107  0.88027989  0.49539791  1
  O  O341  1  0.49530241  0.87543061  0.98581697  1
  O  O342  1  0.98778912  0.37380363  0.50173665  1
  O  O343  1  0.99447734  0.38088882  0.99515515  1
  O  O344  1  0.99732721  0.88656275  0.49492378  1
  O  O345  1  0.99179776  0.87546483  0.99440308  1
  O  O346  1  0.49999858  0.48674065  0.37616054  1
  O  O347  1  0.49586451  0.49525991  0.87833351  1
  O  O348  1  0.49976986  0.99258380  0.38435005  1
  O  O349  1  0.49201185  0.99269898  0.87520563  1
  O  O350  1  0.99736253  0.49591080  0.37828071  1
  O  O351  1  0.99483492  0.49511511  0.87960436  1
  O  O352  1  0.99281214  0.99624029  0.38332093  1
  O  O353  1  0.98770345  0.99366154  0.88127759  1
  O  O354  1  0.00660731  0.00732462  0.12693983  1
  O  O355  1  -0.00833804  -0.00230564  0.61128247  1
  O  O356  1  0.00395203  0.50650735  0.12196268  1
  O  O357  1  0.01216174  0.49906811  0.62435015  1
  O  O358  1  0.50718293  0.00591936  0.12309940  1
  O  O359  1  0.50697764  0.00153944  0.61706797  1
  O  O360  1  0.50094505  0.50683656  0.11697090  1
  O  O361  1  0.51050799  0.50568763  0.62326882  1
  O  O362  1  0.24586875  0.37985887  0.24426668  1
  O  O363  1  0.24497235  0.37488940  0.74355297  1
  O  O364  1  0.24148605  0.87449980  0.24274971  1
  O  O365  1  0.24138037  0.87057101  0.74028040  1
  O  O366  1  0.74474481  0.38177219  0.24567722  1
  O  O367  1  0.75666726  0.37972187  0.73706542  1
  O  O368  1  0.74337400  0.88282059  0.24433338  1
  O  O369  1  0.74940032  0.87124546  0.74136761  1
  O  O370  1  0.25141201  0.12438854  0.26118027  1
  O  O371  1  0.25851675  0.12720795  0.75243580  1
  O  O372  1  0.25483139  0.62120170  0.25426392  1
  O  O373  1  0.25868758  0.62524633  0.75683814  1
  O  O374  1  0.74923392  0.11008163  0.24420257  1
  O  O375  1  0.76068554  0.13095640  0.76141576  1
  O  O376  1  0.74203185  0.61627485  0.26037289  1
  O  O377  1  0.75576885  0.61832898  0.75653927  1
  O  O378  1  0.36341550  0.12488728  0.37321799  1
  O  O379  1  0.37057031  0.11888597  0.86758016  1
  O  O380  1  0.36858327  0.62411139  0.36786490  1
  O  O381  1  0.37109377  0.62013026  0.86955481  1
  O  O382  1  0.88051827  0.11141176  0.37279331  1
  O  O383  1  0.86860611  0.11908676  0.87041480  1
  O  O384  1  0.86052605  0.62357308  0.38332287  1
  O  O385  1  0.86922584  0.61910805  0.87061057  1
  O  O386  1  0.13116665  0.38008179  0.13108833  1
  O  O387  1  0.13129522  0.38128394  0.63070584  1
  O  O388  1  0.12804433  0.88220453  0.12932612  1
  O  O389  1  0.13521298  0.87022184  0.63545318  1
  O  O390  1  0.63171724  0.37641830  0.13014542  1
  O  O391  1  0.63554086  0.38677491  0.61771686  1
  O  O392  1  0.62930741  0.88034292  0.12877174  1
  O  O393  1  0.63308656  0.88215855  0.62244620  1
  O  O394  1  0.12035072  0.25553636  0.25601970  1
  O  O395  1  0.11866418  0.25803482  0.75804408  1
  O  O396  1  0.11467857  0.75601452  0.25617034  1
  O  O397  1  0.12306257  0.76049744  0.75700777  1
  O  O398  1  0.61884507  0.25795995  0.24991362  1
  O  O399  1  0.61547966  0.24047361  0.75961495  1
  O  O400  1  0.61798335  0.75644960  0.24977237  1
  O  O401  1  0.61617484  0.74110744  0.75738080  1
  O  O402  1  0.38232261  0.24993010  0.24118240  1
  O  O403  1  0.38537298  0.23797189  0.75088595  1
  O  O404  1  0.38065743  0.74410690  0.24349094  1
  O  O405  1  0.38246008  0.74405131  0.74393866  1
  O  O406  1  0.88100037  0.24868193  0.24404905  1
  O  O407  1  0.88056941  0.24104618  0.74754201  1
  O  O408  1  0.88798833  0.75719182  0.25080055  1
  O  O409  1  0.87346506  0.74399929  0.74094326  1
  O  O410  1  0.37839494  0.48821679  0.49787169  1
  O  O411  1  0.38101341  0.49488020  0.99371019  1
  O  O412  1  0.38842584  0.99168562  0.49862387  1
  O  O413  1  0.37865122  0.99904231  0.98734443  1
  O  O414  1  0.87426794  0.48817952  0.50162196  1
  O  O415  1  0.88058722  0.49441723  0.99331787  1
  O  O416  1  0.88328461  0.99984235  0.49255715  1
  O  O417  1  0.87408598  0.99354118  0.99028618  1
  O  O418  1  0.12139606  0.00109727  0.01283229  1
  O  O419  1  0.10886439  -0.00009893  0.49700328  1
  O  O420  1  0.11772798  0.49995998  0.00718955  1
  O  O421  1  0.12537768  0.49962889  0.51239288  1
  O  O422  1  0.62443013  0.00699826  0.00612552  1
  O  O423  1  0.61306387  -0.00223593  0.50670452  1
  O  O424  1  0.61802742  0.50689959  -0.00052125  1
  O  O425  1  0.62816249  0.50938690  0.50932927  1
  O  O426  1  0.37017517  0.36996714  0.11836572  1
  O  O427  1  0.37240648  0.37492271  0.61506922  1
  O  O428  1  0.36796144  0.86816085  0.12357626  1
  O  O429  1  0.36826188  0.86840644  0.62103232  1
  O  O430  1  0.87051241  0.36938033  0.11935561  1
  O  O431  1  0.86740591  0.36823941  0.61924204  1
  O  O432  1  0.86740312  0.87392429  0.11863949  1
  O  O433  1  0.86261216  0.86698400  0.62437540  1
  O  O434  1  0.13537681  0.13078283  0.37800262  1
  O  O435  1  0.13028574  0.13161453  0.87581665  1
  O  O436  1  0.13258553  0.63303982  0.37570967  1
  O  O437  1  0.13145969  0.63165699  0.87468576  1
  O  O438  1  0.62013643  0.13038144  0.38330693  1
  O  O439  1  0.63198019  0.13097555  0.87784113  1
  O  O440  1  0.63341909  0.62533542  0.38511612  1
  O  O441  1  0.63060103  0.63073271  0.88041351  1
