# generated using pymatgen
data_V93Zn93O256
_symmetry_space_group_name_H-M   'P 1'
_cell_length_a   17.04624530
_cell_length_b   17.04331949
_cell_length_c   17.04479946
_cell_angle_alpha   89.97410870
_cell_angle_beta   89.94981676
_cell_angle_gamma   90.05843517
_symmetry_Int_Tables_number   1
_chemical_formula_structural   V93Zn93O256
_chemical_formula_sum   'V93 Zn93 O256'
_cell_volume   4951.92864226
_cell_formula_units_Z   1
loop_
 _symmetry_equiv_pos_site_id
 _symmetry_equiv_pos_as_xyz
  1  'x, y, z'
loop_
 _atom_site_type_symbol
 _atom_site_label
 _atom_site_symmetry_multiplicity
 _atom_site_fract_x
 _atom_site_fract_y
 _atom_site_fract_z
 _atom_site_occupancy
  V  V0  1  0.00439778  0.25398422  0.74831419  1
  V  V1  1  0.25376111  0.25058215  0.00193783  1
  V  V2  1  -0.00086287  0.49849209  0.50032587  1
  V  V3  1  0.12689820  0.25494482  0.87185295  1
  V  V4  1  0.61843541  0.24853782  0.36926952  1
  V  V5  1  0.37410920  0.75817389  0.62259786  1
  V  V6  1  0.37516779  0.75128649  0.12472214  1
  V  V7  1  0.12419523  0.87735477  0.75227526  1
  V  V8  1  0.12353698  0.75379833  0.87532110  1
  V  V9  1  0.12587455  0.62625201  0.00048616  1
  V  V10  1  0.62468932  0.49944330  0.12422296  1
  V  V11  1  0.37328959  0.49665676  0.37847303  1
  V  V12  1  0.75014688  0.37421554  0.12449514  1
  V  V13  1  0.75097945  0.87440188  0.12500169  1
  V  V14  1  0.12306280  0.49650014  0.62939461  1
  V  V15  1  0.75159556  0.62598635  0.87466817  1
  V  V16  1  0.25122774  0.25280607  0.50061593  1
  V  V17  1  0.49539103  0.87354758  0.38210081  1
  V  V18  1  0.49843366  0.49983229  -0.00258305  1
  V  V19  1  0.62559412  0.37534203  0.74926766  1
  V  V20  1  0.75077014  0.50073917  0.74860673  1
  V  V21  1  0.75096989  0.74995019  -0.00133601  1
  V  V22  1  0.00159726  0.50081062  -0.00130189  1
  V  V23  1  0.25029997  0.00077254  0.74989682  1
  V  V24  1  0.87621718  0.75422178  0.61763931  1
  V  V25  1  0.49973631  0.62526885  0.62428678  1
  V  V26  1  0.74880820  0.49803828  0.24968546  1
  V  V27  1  0.25095157  0.37456711  0.12510973  1
  V  V28  1  0.88233476  -0.00295257  0.87430230  1
  V  V29  1  0.12514503  0.12548480  0.00105282  1
  V  V30  1  0.74850421  0.12289538  0.37413106  1
  V  V31  1  0.87438748  0.62401802  0.24895296  1
  V  V32  1  0.12426101  -0.00024774  0.12527819  1
  V  V33  1  0.25182685  0.37708341  0.62245706  1
  V  V34  1  0.25265988  0.75678455  0.50186705  1
  V  V35  1  0.75160987  0.12495030  0.87443811  1
  V  V36  1  0.49409475  0.49464584  0.50000206  1
  V  V37  1  0.37364064  0.62511556  0.25127504  1
  V  V38  1  0.62518534  -0.00028158  0.62636776  1
  V  V39  1  0.49904560  0.74999490  0.25122701  1
  V  V40  1  0.62494184  0.62451271  0.49905390  1
  V  V41  1  0.87429194  -0.00786355  0.37944453  1
  V  V42  1  0.12274294  0.12417075  0.50277165  1
  V  V43  1  0.12385349  0.24941085  0.37537165  1
  V  V44  1  0.87503746  0.24906768  0.12431287  1
  V  V45  1  0.00036475  0.12390291  0.12364677  1
  V  V46  1  -0.00041995  0.62424237  0.12481779  1
  V  V47  1  0.24850959  -0.00064896  0.25077521  1
  V  V48  1  0.25125038  0.75053657  -0.00036514  1
  V  V49  1  0.24925001  0.12486136  0.37478576  1
  V  V50  1  -0.00091130  0.24932575  0.24960477  1
  V  V51  1  0.12417686  0.74976139  0.37603363  1
  V  V52  1  0.62608029  0.75229583  0.87338577  1
  V  V53  1  0.62520582  -0.00024230  0.12472130  1
  V  V54  1  0.24929185  0.62411198  0.37627956  1
  V  V55  1  0.75011051  0.25089158  0.50121198  1
  V  V56  1  0.37503772  0.87603161  0.00090523  1
  V  V57  1  -0.00217823  0.37399483  0.37543730  1
  V  V58  1  0.50073611  0.75114328  0.75034296  1
  V  V59  1  0.24667795  0.49737502  0.75097856  1
  V  V60  1  0.12446443  0.37436007  0.25022962  1
  V  V61  1  0.24859433  0.49912135  0.25159480  1
  V  V62  1  0.74796226  0.62382788  0.37503543  1
  V  V63  1  -0.00041349  0.75567043  0.75282997  1
  V  V64  1  0.12478379  0.62374791  0.50095852  1
  V  V65  1  0.37674767  0.00125040  0.87570523  1
  V  V66  1  0.88223541  0.87537412  -0.00512464  1
  V  V67  1  0.00276706  0.37570606  0.87184640  1
  V  V68  1  0.87622361  0.50026397  0.87347660  1
  V  V69  1  0.87465296  0.12317885  0.24935025  1
  V  V70  1  0.12145891  0.87356410  0.25143107  1
  V  V71  1  0.75001913  -0.00171736  0.24980359  1
  V  V72  1  0.62505014  0.50015579  0.62478571  1
  V  V73  1  0.50045095  0.62476043  0.12557811  1
  V  V74  1  0.87490981  0.74893969  0.12452453  1
  V  V75  1  0.87669196  0.62682766  0.74936220  1
  V  V76  1  0.38214410  0.12925956  0.24792842  1
  V  V77  1  0.37668642  0.25512565  0.62023641  1
  V  V78  1  0.62307640  0.74855032  0.37541339  1
  V  V79  1  0.50087461  0.00164152  0.00216194  1
  V  V80  1  -0.00302014  -0.00579622  0.50047545  1
  V  V81  1  0.49511127  0.37285363  0.37223224  1
  V  V82  1  0.75358597  0.87514983  0.61928090  1
  V  V83  1  0.87390779  0.49841928  0.37597801  1
  V  V84  1  0.75099005  0.24969876  -0.00172547  1
  V  V85  1  0.62444862  0.25042732  0.87358912  1
  V  V86  1  0.37387365  -0.00430626  0.38186947  1
  V  V87  1  0.62084932  0.12235308  0.50013595  1
  V  V88  1  0.62111186  0.37108581  0.24816756  1
  V  V89  1  0.87633678  0.12604320  0.74842164  1
  V  V90  1  0.37339787  0.62469804  0.75180139  1
  V  V91  1  0.37636623  0.12845965  0.74970206  1
  V  V92  1  0.87651685  0.37497095  -0.00118402  1
  Zn  Zn93  1  0.75185863  0.37555926  0.62262345  1
  Zn  Zn94  1  0.24958408  0.87494913  0.12550280  1
  Zn  Zn95  1  0.62587812  0.62534277  0.00033371  1
  Zn  Zn96  1  0.50203465  0.87611260  0.87430162  1
  Zn  Zn97  1  0.00483235  -0.00408748  -0.00386946  1
  Zn  Zn98  1  0.12493692  0.50098370  0.12484879  1
  Zn  Zn99  1  0.75346049  0.75226617  0.49712794  1
  Zn  Zn100  1  0.37417733  0.49743370  0.87550470  1
  Zn  Zn101  1  0.25322491  0.88022890  0.62138428  1
  Zn  Zn102  1  0.49932330  0.12563293  0.62434216  1
  Zn  Zn103  1  -0.00056687  0.62584806  0.62443189  1
  Zn  Zn104  1  0.12263529  -0.00051667  0.62638400  1
  Zn  Zn105  1  0.75129295  -0.00188484  0.75051334  1
  Zn  Zn106  1  0.50663471  0.13292544  0.12954045  1
  Zn  Zn107  1  0.49757391  0.37562342  0.87460740  1
  Zn  Zn108  1  0.62515698  0.12572881  -0.00086043  1
  Zn  Zn109  1  -0.00115529  0.74803687  0.25238371  1
  Zn  Zn110  1  0.87740227  0.25143369  0.62247606  1
  Zn  Zn111  1  0.37635183  0.37496604  -0.00242051  1
  Zn  Zn112  1  -0.00103052  0.12565506  0.62427770  1
  Zn  Zn113  1  -0.00591282  0.86942200  0.38033342  1
  Zn  Zn114  1  0.49241983  -0.00596436  0.50485213  1
  Zn  Zn115  1  0.25072742  0.12794379  0.87635545  1
  Zn  Zn116  1  0.62381757  0.87395872  0.25174433  1
  Zn  Zn117  1  0.62530853  0.87730175  0.74918728  1
  Zn  Zn118  1  0.25065547  0.62369624  0.87638477  1
  Zn  Zn119  1  0.38623184  0.25577402  0.13125443  1
  Zn  Zn120  1  0.49987230  0.25250593  0.74792083  1
  Zn  Zn121  1  0.87334543  0.37383835  0.50090375  1
  Zn  Zn122  1  0.18919757  0.18640879  0.18796817  1
  Zn  Zn123  1  0.18945570  0.18860178  0.68718640  1
  Zn  Zn124  1  0.18782054  0.68830754  0.18666989  1
  Zn  Zn125  1  0.18758522  0.68569113  0.68619761  1
  Zn  Zn126  1  0.68799968  0.18561457  0.18685455  1
  Zn  Zn127  1  0.68936790  0.18624398  0.68716000  1
  Zn  Zn128  1  0.68624252  0.68694024  0.18800537  1
  Zn  Zn129  1  0.68930091  0.68821746  0.68656101  1
  Zn  Zn130  1  0.31187328  0.31190347  0.31396913  1
  Zn  Zn131  1  0.31302212  0.31651507  0.81179348  1
  Zn  Zn132  1  0.31058210  0.81294098  0.31339415  1
  Zn  Zn133  1  0.31247051  0.81451138  0.81397619  1
  Zn  Zn134  1  0.80979167  0.31114366  0.31364586  1
  Zn  Zn135  1  0.81390523  0.31261618  0.81093477  1
  Zn  Zn136  1  0.80976802  0.81035839  0.31090246  1
  Zn  Zn137  1  0.81127842  0.81609511  0.80786563  1
  Zn  Zn138  1  0.18535853  0.43619949  0.44018165  1
  Zn  Zn139  1  0.18790937  0.43789921  0.93729552  1
  Zn  Zn140  1  0.18400733  0.93791529  0.43555982  1
  Zn  Zn141  1  0.19032965  0.93819658  0.93658267  1
  Zn  Zn142  1  0.68345807  0.43641343  0.43664064  1
  Zn  Zn143  1  0.68705038  0.43785828  0.93701099  1
  Zn  Zn144  1  0.68507817  0.93458796  0.43850115  1
  Zn  Zn145  1  0.69267802  0.93757679  0.93777844  1
  Zn  Zn146  1  0.31075369  0.06238989  0.06477809  1
  Zn  Zn147  1  0.30980493  0.06753974  0.56490598  1
  Zn  Zn148  1  0.31262703  0.56288388  0.06358687  1
  Zn  Zn149  1  0.31199213  0.56674674  0.56412069  1
  Zn  Zn150  1  0.81281003  0.06148062  0.05952960  1
  Zn  Zn151  1  0.81147680  0.06295548  0.56270650  1
  Zn  Zn152  1  0.81264250  0.56220827  0.06076045  1
  Zn  Zn153  1  0.81294869  0.56511591  0.56270623  1
  Zn  Zn154  1  0.43662389  0.43832128  0.18865419  1
  Zn  Zn155  1  0.43694683  0.43705765  0.68840261  1
  Zn  Zn156  1  0.43733245  0.93779699  0.19155758  1
  Zn  Zn157  1  0.44114528  0.93838037  0.69001787  1
  Zn  Zn158  1  0.93757533  0.43804354  0.18692084  1
  Zn  Zn159  1  0.93539876  0.43372519  0.68481994  1
  Zn  Zn160  1  0.93807912  0.93687013  0.18669375  1
  Zn  Zn161  1  0.93844490  0.93824997  0.68507823  1
  Zn  Zn162  1  0.05996595  0.06101618  0.31378941  1
  Zn  Zn163  1  0.06344203  0.06781760  0.81433950  1
  Zn  Zn164  1  0.06173848  0.56160295  0.31265200  1
  Zn  Zn165  1  0.06285413  0.56819674  0.81272070  1
  Zn  Zn166  1  0.56100383  0.05742218  0.31387405  1
  Zn  Zn167  1  0.56120753  0.06474466  0.81236667  1
  Zn  Zn168  1  0.56123786  0.55973382  0.31166230  1
  Zn  Zn169  1  0.56368581  0.56529990  0.81265050  1
  Zn  Zn170  1  0.43559435  0.18527836  0.43663971  1
  Zn  Zn171  1  0.43949491  0.18715629  0.93874822  1
  Zn  Zn172  1  0.43611103  0.68545540  0.43890556  1
  Zn  Zn173  1  0.43938150  0.68688902  0.93781591  1
  Zn  Zn174  1  0.93586283  0.18322344  0.43555704  1
  Zn  Zn175  1  0.93968664  0.18639536  0.93597025  1
  Zn  Zn176  1  0.93902830  0.68367759  0.43674019  1
  Zn  Zn177  1  0.93943440  0.68854595  0.93674287  1
  Zn  Zn178  1  0.06414150  0.31247942  0.06113192  1
  Zn  Zn179  1  0.06413119  0.31482645  0.56400008  1
  Zn  Zn180  1  0.06225696  0.81077409  0.06532243  1
  Zn  Zn181  1  0.06573632  0.81343224  0.56667831  1
  Zn  Zn182  1  0.56161649  0.31270263  0.06049244  1
  Zn  Zn183  1  0.56264181  0.31300339  0.56057292  1
  Zn  Zn184  1  0.56283696  0.81364224  0.06158699  1
  Zn  Zn185  1  0.56453661  0.81187100  0.56256214  1
  O  O186  1  0.11990574  0.11999002  0.12127186  1
  O  O187  1  0.12590131  0.12460653  0.61249145  1
  O  O188  1  0.11860379  0.62442773  0.11843435  1
  O  O189  1  0.12411142  0.61395618  0.61915974  1
  O  O190  1  0.62678002  0.11191593  0.12225420  1
  O  O191  1  0.62479315  0.11769946  0.61674344  1
  O  O192  1  0.61849871  0.61757623  0.12419288  1
  O  O193  1  0.61890291  0.61996850  0.62061027  1
  O  O194  1  0.38523068  0.38039871  0.36937525  1
  O  O195  1  0.38020871  0.37946782  0.87790467  1
  O  O196  1  0.38171238  0.88464777  0.36975617  1
  O  O197  1  0.37777357  0.88297437  0.88241374  1
  O  O198  1  0.87992582  0.38044749  0.37558366  1
  O  O199  1  0.88127181  0.38080444  0.87979463  1
  O  O200  1  0.87397307  0.88802469  0.37043891  1
  O  O201  1  0.86823025  0.88466141  0.88319034  1
  O  O202  1  0.25570930  0.00440229  0.37130879  1
  O  O203  1  0.25697868  0.00436522  0.86510179  1
  O  O204  1  0.25338798  0.50338655  0.37231242  1
  O  O205  1  0.25054676  0.50213790  0.86385445  1
  O  O206  1  0.75495407  0.00316348  0.37133639  1
  O  O207  1  0.76086665  0.00681613  0.87266244  1
  O  O208  1  0.75270775  0.50345101  0.36888493  1
  O  O209  1  0.75644243  0.50544246  0.86940348  1
  O  O210  1  0.24835601  0.49075887  0.13162824  1
  O  O211  1  0.24423075  0.49535559  0.62929006  1
  O  O212  1  0.24149148  0.99770070  0.13239551  1
  O  O213  1  0.24856992  0.99999043  0.63707116  1
  O  O214  1  0.74590743  0.49353227  0.12924731  1
  O  O215  1  0.74261222  0.50049069  0.63108729  1
  O  O216  1  0.74383541  0.99519613  0.12863543  1
  O  O217  1  0.74249576  0.99361861  0.62541812  1
  O  O218  1  0.00415407  0.36882698  0.25465730  1
  O  O219  1  -0.00597408  0.36220253  0.75685931  1
  O  O220  1  0.01116214  0.87262013  0.25227324  1
  O  O221  1  0.01015602  0.86565581  0.74571226  1
  O  O222  1  0.50659977  0.38206720  0.26256985  1
  O  O223  1  0.51365171  0.37553743  0.75199449  1
  O  O224  1  0.50086456  0.86784071  0.26153553  1
  O  O225  1  0.50453608  0.86707092  0.75435216  1
  O  O226  1  0.48509353  0.11882828  0.25173059  1
  O  O227  1  0.48757285  0.12818873  0.74726420  1
  O  O228  1  0.49291910  0.62889529  0.24597884  1
  O  O229  1  0.49232176  0.62967479  0.74369041  1
  O  O230  1  0.99470684  0.13033496  0.24439960  1
  O  O231  1  0.99250004  0.13517788  0.74978661  1
  O  O232  1  0.99210775  0.62359430  0.24349681  1
  O  O233  1  0.99548328  0.63794470  0.74760188  1
  O  O234  1  0.36191261  0.24966735  0.00102072  1
  O  O235  1  0.36642587  0.23993347  0.51194109  1
  O  O236  1  0.37181801  0.75512812  0.00461516  1
  O  O237  1  0.36431672  0.74097467  0.51091162  1
  O  O238  1  0.87131175  0.25537124  0.00402172  1
  O  O239  1  0.86185824  0.24653636  0.49752561  1
  O  O240  1  0.87068641  0.75673220  0.00288276  1
  O  O241  1  0.87569423  0.74309200  0.51383887  1
  O  O242  1  0.12910109  0.24260881  0.49496055  1
  O  O243  1  0.13412890  0.24582384  0.99355926  1
  O  O244  1  0.13217646  0.74354938  0.49734661  1
  O  O245  1  0.12912946  0.74788995  0.99273642  1
  O  O246  1  0.63058805  0.24151872  0.49124736  1
  O  O247  1  0.63309197  0.25031743  0.98858113  1
  O  O248  1  0.62493864  0.74057045  0.49317413  1
  O  O249  1  0.63180053  0.74969039  0.99101199  1
  O  O250  1  0.49707911  0.24427914  0.11843854  1
  O  O251  1  0.48993825  0.24965461  0.62508394  1
  O  O252  1  0.49540945  0.74520556  0.13037655  1
  O  O253  1  0.49285305  0.74507811  0.62876665  1
  O  O254  1  0.99449138  0.24531947  0.13002693  1
  O  O255  1  1.00133161  0.24827821  0.63524057  1
  O  O256  1  0.99214881  0.74147876  0.12706328  1
  O  O257  1  0.99361266  0.74985109  0.63410579  1
  O  O258  1  0.00364765  0.25320093  0.36864923  1
  O  O259  1  0.00824122  0.25486875  0.86871852  1
  O  O260  1  0.00680762  0.75159230  0.37348875  1
  O  O261  1  0.01113728  0.74722968  0.86483804  1
  O  O262  1  0.50882998  0.25941837  0.38388622  1
  O  O263  1  0.51372174  0.25094004  0.87403903  1
  O  O264  1  0.50140148  0.75458778  0.37106009  1
  O  O265  1  0.51082312  0.75021915  0.87067200  1
  O  O266  1  0.24002988  0.13097648  0.49448716  1
  O  O267  1  0.24455280  0.13489743  1.00052673  1
  O  O268  1  0.24388241  0.63269402  0.49511707  1
  O  O269  1  0.24444581  0.63201558  0.99894905  1
  O  O270  1  0.73941656  0.13062213  0.49403318  1
  O  O271  1  0.74972855  0.13239225  0.99241479  1
  O  O272  1  0.74204001  0.62460777  0.49212246  1
  O  O273  1  0.75016604  0.63174181  0.99253512  1
  O  O274  1  0.24953654  0.36791202  0.00956936  1
  O  O275  1  0.24582091  0.36920181  0.51289840  1
  O  O276  1  0.25709220  0.86887285  0.00203914  1
  O  O277  1  0.24229288  0.86080554  0.50133417  1
  O  O278  1  0.75697669  0.37035622  0.00463707  1
  O  O279  1  0.74747301  0.36280039  0.49795506  1
  O  O280  1  0.76073308  0.86925446  0.00594275  1
  O  O281  1  0.74569999  0.87163702  0.51370779  1
  O  O282  1  0.13127156  0.49256097  0.24941662  1
  O  O283  1  0.13500102  0.50991041  0.74069455  1
  O  O284  1  0.12810321  0.99278736  0.24717804  1
  O  O285  1  0.13225302  0.99540027  0.75337657  1
  O  O286  1  0.63000512  0.49250603  0.24401776  1
  O  O287  1  0.63028742  0.49451140  0.74551140  1
  O  O288  1  0.63084765  0.99843524  0.24116579  1
  O  O289  1  0.62687709  1.00299814  0.73772504  1
  O  O290  1  0.36822660  0.00779276  0.26014439  1
  O  O291  1  0.36937509  0.00808646  0.75383781  1
  O  O292  1  0.36761469  0.50602565  0.25733624  1
  O  O293  1  0.36665755  0.51007466  0.74716280  1
  O  O294  1  0.87004341  0.00452574  0.25698725  1
  O  O295  1  0.87683197  0.00941544  0.75673047  1
  O  O296  1  0.86807263  0.50372484  0.25517069  1
  O  O297  1  0.87150265  0.50554762  0.75466534  1
  O  O298  1  0.11873904  0.36852351  0.36996940  1
  O  O299  1  0.11928682  0.36266118  0.88035793  1
  O  O300  1  0.12271250  0.86892216  0.36551601  1
  O  O301  1  0.13053362  0.86546070  0.86446251  1
  O  O302  1  0.61650542  0.36667753  0.36850368  1
  O  O303  1  0.62697126  0.36680600  0.86566014  1
  O  O304  1  0.61528913  0.86807058  0.37325861  1
  O  O305  1  0.62798682  0.86316147  0.87319357  1
  O  O306  1  0.37390474  0.12211413  0.14186909  1
  O  O307  1  0.37473083  0.13512722  0.63403463  1
  O  O308  1  0.38047027  0.63091318  0.13210369  1
  O  O309  1  0.37981797  0.63391945  0.63454968  1
  O  O310  1  0.87907338  0.12972799  0.12952955  1
  O  O311  1  0.87542458  0.12808166  0.63658010  1
  O  O312  1  0.87889564  0.62913041  0.12911615  1
  O  O313  1  0.87623105  0.63505213  0.63281228  1
  O  O314  1  0.24984213  0.25827821  0.11760856  1
  O  O315  1  0.25560933  0.25915238  0.62241172  1
  O  O316  1  0.25776183  0.75145688  0.11819970  1
  O  O317  1  0.25739318  0.75025598  0.61833521  1
  O  O318  1  0.75548665  0.25459558  0.11940397  1
  O  O319  1  0.74870653  0.24994551  0.61133440  1
  O  O320  1  0.75495485  0.75374925  0.11930114  1
  O  O321  1  0.75879889  0.75668595  0.62383557  1
  O  O322  1  0.24339714  0.24562742  0.38102709  1
  O  O323  1  0.24259014  0.25245894  0.88290887  1
  O  O324  1  0.24578355  0.74392964  0.38356841  1
  O  O325  1  0.24043615  0.74825203  0.88000691  1
  O  O326  1  0.73935350  0.24325343  0.38166368  1
  O  O327  1  0.74363810  0.24606510  0.87830870  1
  O  O328  1  0.74294795  0.74251500  0.37627704  1
  O  O329  1  0.74496973  0.74582244  0.87774467  1
  O  O330  1  0.00737343  0.12549144  0.00720030  1
  O  O331  1  0.00927982  0.11794668  0.49907542  1
  O  O332  1  0.00508503  0.62019408  0.00456348  1
  O  O333  1  0.00737906  0.61596093  0.50194556  1
  O  O334  1  0.50212965  0.11092004  0.00241397  1
  O  O335  1  0.51240600  0.12251782  0.49963936  1
  O  O336  1  0.50217594  0.61723882  0.00753130  1
  O  O337  1  0.50509251  0.61541376  0.50440962  1
  O  O338  1  0.50693816  0.38661137  0.48856608  1
  O  O339  1  0.49867583  0.38843046  0.99871714  1
  O  O340  1  0.50197339  0.87405648  0.48658020  1
  O  O341  1  0.49452358  0.88645940  0.99942323  1
  O  O342  1  0.99947698  0.38002126  0.49224107  1
  O  O343  1  0.99542981  0.38012326  0.99355037  1
  O  O344  1  1.00956051  0.89006037  0.49911816  1
  O  O345  1  0.98605572  0.87471868  1.00450631  1
  O  O346  1  0.49442537  0.49284600  0.38182271  1
  O  O347  1  0.50110424  0.50240793  0.88629549  1
  O  O348  1  0.49158320  0.99034301  0.37780121  1
  O  O349  1  0.49648497  0.99943285  0.88485725  1
  O  O350  1  0.99410371  0.49362499  0.37999498  1
  O  O351  1  0.99609608  0.49632272  0.87797003  1
  O  O352  1  0.99019384  0.99900433  0.38230680  1
  O  O353  1  0.98680283  1.00634091  0.87713048  1
  O  O354  1  0.00624968  0.00715109  0.12292783  1
  O  O355  1  0.00211237  0.00516461  0.61523559  1
  O  O356  1  0.00103326  0.50539991  0.11683427  1
  O  O357  1  0.00871210  0.49943165  0.62143693  1
  O  O358  1  0.50939079  0.00039675  0.11952572  1
  O  O359  1  0.50939818  0.00181185  0.62115217  1
  O  O360  1  0.50459063  0.50465171  0.11846443  1
  O  O361  1  0.50390157  0.50423497  0.61771802  1
  O  O362  1  0.24423038  0.37816420  0.24410797  1
  O  O363  1  0.25406795  0.38851478  0.73798774  1
  O  O364  1  0.23813489  0.88004038  0.25015062  1
  O  O365  1  0.24368273  0.88611238  0.75025288  1
  O  O366  1  0.74325896  0.37852670  0.24393939  1
  O  O367  1  0.74067881  0.38142417  0.74907897  1
  O  O368  1  0.74751427  0.88090056  0.24242883  1
  O  O369  1  0.74550571  0.87831692  0.73618364  1
  O  O370  1  0.25513139  0.11816922  0.25691188  1
  O  O371  1  0.25917202  0.11813584  0.75120078  1
  O  O372  1  0.25380067  0.61937689  0.25652972  1
  O  O373  1  0.25861988  0.61667487  0.74883511  1
  O  O374  1  0.75548099  0.11792486  0.25489796  1
  O  O375  1  0.76185950  0.12543062  0.75561083  1
  O  O376  1  0.75425819  0.61725669  0.25467447  1
  O  O377  1  0.75669541  0.62005062  0.75539296  1
  O  O378  1  0.36965006  0.11775816  0.36568379  1
  O  O379  1  0.37371535  0.12155748  0.86511026  1
  O  O380  1  0.36829455  0.61827460  0.37018414  1
  O  O381  1  0.37432874  0.62489711  0.86157023  1
  O  O382  1  0.86801941  0.11499912  0.36770634  1
  O  O383  1  0.87139437  0.11881081  0.86759349  1
  O  O384  1  0.86819891  0.61816893  0.36903492  1
  O  O385  1  0.87155975  0.62001251  0.86929152  1
  O  O386  1  0.13443466  0.37560654  0.13110460  1
  O  O387  1  0.13459086  0.38799160  0.62381327  1
  O  O388  1  0.12547431  0.87984704  0.13473529  1
  O  O389  1  0.13110915  0.87771085  0.64019395  1
  O  O390  1  0.63169739  0.37920237  0.12910995  1
  O  O391  1  0.62648574  0.38071865  0.63351584  1
  O  O392  1  0.63144009  0.88463788  0.12584876  1
  O  O393  1  0.63141620  0.88465120  0.62479367  1
  O  O394  1  0.11897350  0.25378393  0.25572508  1
  O  O395  1  0.11704956  0.24256217  0.76052470  1
  O  O396  1  0.12517346  0.75757878  0.25638794  1
  O  O397  1  0.12059416  0.75639791  0.75545126  1
  O  O398  1  0.63057736  0.25251670  0.26266515  1
  O  O399  1  0.62654281  0.25765373  0.75647072  1
  O  O400  1  0.61685535  0.74969901  0.25704192  1
  O  O401  1  0.61967577  0.74896601  0.75823648  1
  O  O402  1  0.36794496  0.23256678  0.25182742  1
  O  O403  1  0.37402488  0.24328679  0.74125970  1
  O  O404  1  0.37870671  0.74409772  0.24578191  1
  O  O405  1  0.37841371  0.74265652  0.74340461  1
  O  O406  1  0.87855015  0.24352321  0.24470159  1
  O  O407  1  0.88498154  0.24070631  0.75231357  1
  O  O408  1  0.87488522  0.74212652  0.24289117  1
  O  O409  1  0.88375681  0.74740742  0.74482675  1
  O  O410  1  0.38622645  0.50721117  0.49578437  1
  O  O411  1  0.38562558  0.50082680  0.99901112  1
  O  O412  1  0.37360414  1.01033086  0.48621972  1
  O  O413  1  0.38172513  0.99729405  0.99699815  1
  O  O414  1  0.88078846  0.49954007  0.49337186  1
  O  O415  1  0.88106603  0.49457687  0.99293420  1
  O  O416  1  0.88417746  1.00930584  0.48997350  1
  O  O417  1  0.87664175  0.99178916  0.99218584  1
  O  O418  1  0.12490483  0.00578855  0.00470934  1
  O  O419  1  0.11819422  0.01010810  0.49925434  1
  O  O420  1  0.11898102  0.50750637  0.00010815  1
  O  O421  1  0.11979003  0.50430198  0.50863083  1
  O  O422  1  0.61901279  -0.00085921  0.00756821  1
  O  O423  1  0.62551760  0.00898684  0.50807571  1
  O  O424  1  0.61773397  0.50177330  0.00606651  1
  O  O425  1  0.61519737  0.50499858  0.50436435  1
  O  O426  1  0.36198030  0.37356595  0.12608554  1
  O  O427  1  0.36649826  0.36512932  0.62905414  1
  O  O428  1  0.37403509  0.86919490  0.12032809  1
  O  O429  1  0.37398518  0.86182740  0.63123515  1
  O  O430  1  0.87026980  0.36860225  0.11931904  1
  O  O431  1  0.86911902  0.36879275  0.61901043  1
  O  O432  1  0.86984678  0.86966305  0.11745449  1
  O  O433  1  0.86662608  0.86523552  0.63111736  1
  O  O434  1  0.12870125  0.12971432  0.38279001  1
  O  O435  1  0.12742543  0.13763628  0.88244617  1
  O  O436  1  0.13058722  0.62918615  0.38013378  1
  O  O437  1  0.12733136  0.63742095  0.88121971  1
  O  O438  1  0.62737539  0.12937457  0.38048452  1
  O  O439  1  0.63219567  0.13472163  0.87360754  1
  O  O440  1  0.62846682  0.62812265  0.37832786  1
  O  O441  1  0.63299028  0.63631396  0.87550924  1
