# generated using pymatgen
data_V93Zn93O256
_symmetry_space_group_name_H-M   'P 1'
_cell_length_a   17.04941783
_cell_length_b   17.04921878
_cell_length_c   17.04570381
_cell_angle_alpha   90.07283087
_cell_angle_beta   90.07724207
_cell_angle_gamma   90.00624735
_symmetry_Int_Tables_number   1
_chemical_formula_structural   V93Zn93O256
_chemical_formula_sum   'V93 Zn93 O256'
_cell_volume   4954.82394192
_cell_formula_units_Z   1
loop_
 _symmetry_equiv_pos_site_id
 _symmetry_equiv_pos_as_xyz
  1  'x, y, z'
loop_
 _atom_site_type_symbol
 _atom_site_label
 _atom_site_symmetry_multiplicity
 _atom_site_fract_x
 _atom_site_fract_y
 _atom_site_fract_z
 _atom_site_occupancy
  V  V0  1  0.62328708  0.12520825  -0.00210253  1
  V  V1  1  0.37469364  0.37522771  0.00105580  1
  V  V2  1  0.87185648  0.86760057  0.49743044  1
  V  V3  1  0.12561922  0.12451345  0.50019453  1
  V  V4  1  0.24787290  0.24833411  -0.00071948  1
  V  V5  1  -0.00031797  0.12430490  0.12465743  1
  V  V6  1  0.25187809  0.62585574  0.37711937  1
  V  V7  1  0.62403338  -0.00089948  0.12304282  1
  V  V8  1  0.37773030  0.14395681  0.74737915  1
  V  V9  1  0.36871623  0.75474900  0.12503454  1
  V  V10  1  0.62486107  0.00099085  0.62594681  1
  V  V11  1  0.12974472  0.87450369  0.24703411  1
  V  V12  1  0.38309565  0.62832123  0.75241027  1
  V  V13  1  0.25162946  0.12513093  0.37562919  1
  V  V14  1  0.87587913  0.62572182  0.24950389  1
  V  V15  1  0.87593710  0.62662952  0.75020593  1
  V  V16  1  0.00186930  0.87545998  0.37443341  1
  V  V17  1  0.74892997  0.37510698  0.12589059  1
  V  V18  1  0.49942019  0.25068603  0.25104063  1
  V  V19  1  0.00142820  0.50060365  0.50041750  1
  V  V20  1  0.24913739  0.12140914  0.86692567  1
  V  V21  1  0.62001540  0.36874076  0.75103266  1
  V  V22  1  0.87514517  0.37543570  0.50124165  1
  V  V23  1  0.87588605  0.50015654  0.37525086  1
  V  V24  1  0.37375658  0.24987354  0.12550687  1
  V  V25  1  0.12457951  0.62484490  -0.00031831  1
  V  V26  1  0.00049053  -0.00109973  0.49910172  1
  V  V27  1  0.50069308  0.75167989  0.25226751  1
  V  V28  1  0.49676014  0.13716038  0.63005564  1
  V  V29  1  0.12774866  0.88012489  0.74918580  1
  V  V30  1  0.87562348  0.75003980  0.12431581  1
  V  V31  1  0.24984231  0.49956833  0.25098216  1
  V  V32  1  0.12757479  0.50017012  0.62636963  1
  V  V33  1  0.87373988  0.87362629  -0.00217424  1
  V  V34  1  0.37549143  0.12494432  0.24998755  1
  V  V35  1  -0.00050452  0.24924144  0.75039896  1
  V  V36  1  0.61899494  0.74829635  0.87147761  1
  V  V37  1  0.37123993  -0.00109857  0.86281246  1
  V  V38  1  0.49732401  0.00043435  -0.00221599  1
  V  V39  1  0.62700252  0.25064230  0.37509195  1
  V  V40  1  0.12701221  0.75097068  0.37507644  1
  V  V41  1  0.49875510  0.36902489  0.87303263  1
  V  V42  1  0.87543580  0.24807749  0.12421933  1
  V  V43  1  0.49997773  0.62493158  0.12650297  1
  V  V44  1  0.75028078  0.49868788  0.75174520  1
  V  V45  1  0.62342006  0.62359482  0.00212504  1
  V  V46  1  -0.00158914  0.49828896  0.00110051  1
  V  V47  1  0.75159382  0.12366211  0.37303197  1
  V  V48  1  0.12379264  0.37441989  0.75182352  1
  V  V49  1  0.50110152  0.87659849  0.37387622  1
  V  V50  1  -0.00148712  0.87290651  0.87168007  1
  V  V51  1  0.37477839  0.50075953  0.87751386  1
  V  V52  1  0.12628582  0.62474015  0.50152939  1
  V  V53  1  0.50076538  0.37539206  0.37583100  1
  V  V54  1  0.37588577  0.00036720  0.37451331  1
  V  V55  1  0.49826781  0.87330842  0.87188788  1
  V  V56  1  -0.00071383  0.12369911  0.62350808  1
  V  V57  1  0.50097450  0.50259733  0.50200062  1
  V  V58  1  0.25034368  0.88110306  0.62898293  1
  V  V59  1  0.87433801  0.24974341  0.62398513  1
  V  V60  1  0.36802162  0.87582342  0.00200243  1
  V  V61  1  0.25061270  -0.00096189  0.24714625  1
  V  V62  1  0.49941126  0.12520866  0.12386472  1
  V  V63  1  0.25155522  0.75053467  0.50233758  1
  V  V64  1  0.75036763  0.86798788  0.61928929  1
  V  V65  1  0.62458046  0.50026770  0.62568075  1
  V  V66  1  0.38056014  0.75034677  0.63066062  1
  V  V67  1  0.12960705  -0.00464150  0.12221990  1
  V  V68  1  0.74835359  0.12386825  0.87384238  1
  V  V69  1  0.74874786  0.87584223  0.12401417  1
  V  V70  1  0.87350207  0.12330260  0.74859346  1
  V  V71  1  0.74789308  0.74996811  -0.00003142  1
  V  V72  1  0.75052863  0.37383774  0.62545590  1
  V  V73  1  0.87423424  0.49872740  0.87611791  1
  V  V74  1  0.37593097  0.37317406  0.50868124  1
  V  V75  1  0.00119769  0.37400009  0.37521787  1
  V  V76  1  0.62089978  0.86991552  0.74843076  1
  V  V77  1  0.25554675  0.25093685  0.50638155  1
  V  V78  1  0.74719297  0.24932341  -0.00116778  1
  V  V79  1  0.62459290  0.87571434  0.24787951  1
  V  V80  1  0.24997903  0.62579585  0.87596137  1
  V  V81  1  -0.00054322  -0.00159094  -0.00139144  1
  V  V82  1  0.37630444  0.62647644  0.25164936  1
  V  V83  1  0.37614784  0.50143618  0.37683086  1
  V  V84  1  0.12525509  0.25115785  0.37301137  1
  V  V85  1  -0.00063321  0.62517190  0.12515932  1
  V  V86  1  0.74943380  0.50153161  0.25157767  1
  V  V87  1  0.12604587  0.49971693  0.12700317  1
  V  V88  1  0.12385127  0.74975005  0.87412422  1
  V  V89  1  0.63132456  0.63250919  0.49880252  1
  V  V90  1  0.87360663  0.37451318  -0.00043776  1
  V  V91  1  0.87318412  -0.00149605  0.87241744  1
  V  V92  1  0.49961350  0.00157369  0.50053464  1
  Zn  Zn93  1  0.37452052  0.87421747  0.50153867  1
  Zn  Zn94  1  0.75194539  0.24904422  0.49845842  1
  Zn  Zn95  1  0.62620207  0.12749627  0.50223036  1
  Zn  Zn96  1  0.62303431  0.49866743  0.12713149  1
  Zn  Zn97  1  0.74993083  -0.00083925  0.74821194  1
  Zn  Zn98  1  0.12548951  0.37513913  0.24931555  1
  Zn  Zn99  1  -0.00056984  0.74958143  0.74583060  1
  Zn  Zn100  1  0.12509422  0.12329744  -0.00365911  1
  Zn  Zn101  1  0.49951812  0.49846490  0.00360674  1
  Zn  Zn102  1  0.87424586  0.74627203  0.62123630  1
  Zn  Zn103  1  -0.00090206  0.25044672  0.24887401  1
  Zn  Zn104  1  0.12241826  0.24739427  0.87524786  1
  Zn  Zn105  1  0.87457855  -0.00085086  0.37007157  1
  Zn  Zn106  1  0.00010690  0.62783373  0.62502730  1
  Zn  Zn107  1  0.75281534  0.00020161  0.24739857  1
  Zn  Zn108  1  0.75851495  0.63583270  0.38349388  1
  Zn  Zn109  1  0.63255589  0.75625722  0.37870116  1
  Zn  Zn110  1  0.61909684  0.24544296  0.87068322  1
  Zn  Zn111  1  0.13028805  0.00211099  0.62824127  1
  Zn  Zn112  1  0.24596031  0.75487030  0.00483919  1
  Zn  Zn113  1  -0.00077516  0.37125858  0.87707485  1
  Zn  Zn114  1  0.62386375  0.37732904  0.24910160  1
  Zn  Zn115  1  0.87530020  0.12330276  0.24969969  1
  Zn  Zn116  1  0.00099141  0.75094771  0.24881674  1
  Zn  Zn117  1  0.25587991  0.37097068  0.63083968  1
  Zn  Zn118  1  0.24907992  0.37412533  0.12791761  1
  Zn  Zn119  1  0.25049351  0.49863664  0.75058653  1
  Zn  Zn120  1  0.74831546  0.62491069  0.87538334  1
  Zn  Zn121  1  0.50402495  0.63051592  0.62914876  1
  Zn  Zn122  1  0.18696974  0.18351218  0.18584030  1
  Zn  Zn123  1  0.18655730  0.18655434  0.68840841  1
  Zn  Zn124  1  0.18780858  0.68557024  0.18897986  1
  Zn  Zn125  1  0.19077646  0.69046862  0.68993844  1
  Zn  Zn126  1  0.68737114  0.18747552  0.18794851  1
  Zn  Zn127  1  0.68762600  0.18728274  0.68659636  1
  Zn  Zn128  1  0.68868800  0.68911588  0.18970645  1
  Zn  Zn129  1  0.68996716  0.68585511  0.68697475  1
  Zn  Zn130  1  0.31296459  0.31457022  0.31610321  1
  Zn  Zn131  1  0.30878671  0.31393666  0.81662350  1
  Zn  Zn132  1  0.31310496  0.81432966  0.31331810  1
  Zn  Zn133  1  0.30987795  0.81086710  0.81223808  1
  Zn  Zn134  1  0.81477417  0.31171715  0.30978662  1
  Zn  Zn135  1  0.81058128  0.31060862  0.81286099  1
  Zn  Zn136  1  0.81163506  0.81222434  0.31193341  1
  Zn  Zn137  1  0.80594396  0.81133554  0.81015183  1
  Zn  Zn138  1  0.19009584  0.43667501  0.43895660  1
  Zn  Zn139  1  0.18711320  0.43756343  0.93850886  1
  Zn  Zn140  1  0.18938206  0.93683950  0.43863369  1
  Zn  Zn141  1  0.18700098  0.93871956  0.93390152  1
  Zn  Zn142  1  0.68877671  0.44006844  0.43810086  1
  Zn  Zn143  1  0.68675423  0.43717565  0.93665303  1
  Zn  Zn144  1  0.68811696  0.93894436  0.43637346  1
  Zn  Zn145  1  0.68669807  0.93790989  0.93661291  1
  Zn  Zn146  1  0.31221480  0.06308870  0.05872903  1
  Zn  Zn147  1  0.31634351  0.06465925  0.56473864  1
  Zn  Zn148  1  0.31202242  0.56354644  0.06389787  1
  Zn  Zn149  1  0.31325428  0.56274154  0.56559682  1
  Zn  Zn150  1  0.81208145  0.06146079  0.05984217  1
  Zn  Zn151  1  0.81167154  0.05938776  0.55766653  1
  Zn  Zn152  1  0.81026011  0.56232231  0.06394744  1
  Zn  Zn153  1  0.81228502  0.55969055  0.56573480  1
  Zn  Zn154  1  0.43682393  0.43788997  0.18767938  1
  Zn  Zn155  1  0.43983224  0.44285374  0.69107279  1
  Zn  Zn156  1  0.43787598  0.93751304  0.18611332  1
  Zn  Zn157  1  0.43911430  0.93744639  0.68564431  1
  Zn  Zn158  1  0.93803331  0.43551998  0.18882342  1
  Zn  Zn159  1  0.93970433  0.43866394  0.68813554  1
  Zn  Zn160  1  0.93822246  0.93825333  0.18811008  1
  Zn  Zn161  1  0.93835095  0.93594307  0.68513419  1
  Zn  Zn162  1  0.06344185  0.06237787  0.31118440  1
  Zn  Zn163  1  0.06079954  0.06150428  0.81186605  1
  Zn  Zn164  1  0.06240795  0.56297923  0.31269367  1
  Zn  Zn165  1  0.05965295  0.56049144  0.81404517  1
  Zn  Zn166  1  0.56536016  0.06317608  0.31093677  1
  Zn  Zn167  1  0.55876746  0.06112257  0.80928957  1
  Zn  Zn168  1  0.56366477  0.56422106  0.31547916  1
  Zn  Zn169  1  0.56173217  0.55657124  0.81607318  1
  Zn  Zn170  1  0.43949133  0.18776464  0.44038180  1
  Zn  Zn171  1  0.43359508  0.18665263  0.93564833  1
  Zn  Zn172  1  0.44157022  0.69005894  0.44139199  1
  Zn  Zn173  1  0.43787496  0.68880909  0.94040516  1
  Zn  Zn174  1  0.93678374  0.18759091  0.43722742  1
  Zn  Zn175  1  0.93608197  0.18639670  0.93696768  1
  Zn  Zn176  1  0.94201482  0.68777862  0.43519325  1
  Zn  Zn177  1  0.93727654  0.68618441  0.93573754  1
  Zn  Zn178  1  0.06378242  0.31332786  0.06322713  1
  Zn  Zn179  1  0.06359829  0.31236053  0.56316176  1
  Zn  Zn180  1  0.06100632  0.81203835  0.06094115  1
  Zn  Zn181  1  0.06126242  0.81042321  0.56492421  1
  Zn  Zn182  1  0.56244565  0.31303636  0.06199247  1
  Zn  Zn183  1  0.56533598  0.31562226  0.55995498  1
  Zn  Zn184  1  0.55723881  0.81183703  0.06135194  1
  Zn  Zn185  1  0.56066134  0.81438240  0.56211834  1
  O  O186  1  0.11622321  0.11451661  0.12150892  1
  O  O187  1  0.11861267  0.12235965  0.61883432  1
  O  O188  1  0.11978228  0.62046368  0.11954261  1
  O  O189  1  0.12726640  0.61622274  0.62125710  1
  O  O190  1  0.61826624  0.12004784  0.11810765  1
  O  O191  1  0.61755043  0.11498715  0.62679808  1
  O  O192  1  0.61887042  0.62768277  0.11621200  1
  O  O193  1  0.62404564  0.62000663  0.61757095  1
  O  O194  1  0.38124388  0.38201743  0.38559599  1
  O  O195  1  0.38037320  0.38032795  0.88015463  1
  O  O196  1  0.38250402  0.88333776  0.37617258  1
  O  O197  1  0.37812805  0.88045266  0.87931398  1
  O  O198  1  0.88124762  0.37978768  0.38116609  1
  O  O199  1  0.87453765  0.38047765  0.88205950  1
  O  O200  1  0.88273867  0.87693811  0.38126702  1
  O  O201  1  0.87723666  0.87822667  0.87812456  1
  O  O202  1  0.25565785  0.00626327  0.36955055  1
  O  O203  1  0.25995896  0.01176943  0.88140327  1
  O  O204  1  0.25636539  0.50704398  0.37241784  1
  O  O205  1  0.25489393  0.51102040  0.87627891  1
  O  O206  1  0.74946644  0.01186058  0.37223154  1
  O  O207  1  0.75557838  0.00571487  0.87316321  1
  O  O208  1  0.75773689  0.50229384  0.36605900  1
  O  O209  1  0.75614540  0.50138449  0.86925314  1
  O  O210  1  0.24414942  0.50060208  0.13285329  1
  O  O211  1  0.23803628  0.49655274  0.62653942  1
  O  O212  1  0.23751323  1.00866031  0.12967831  1
  O  O213  1  0.25011698  0.98531540  0.61740109  1
  O  O214  1  0.74941754  0.49408727  0.13558053  1
  O  O215  1  0.74408392  0.49171763  0.63240842  1
  O  O216  1  0.74132107  0.99319859  0.12100017  1
  O  O217  1  0.73810092  0.99240688  0.62364414  1
  O  O218  1  0.00409340  0.37128005  0.25905778  1
  O  O219  1  0.00797586  0.36848722  0.75123250  1
  O  O220  1  0.01338100  0.87527782  0.25536968  1
  O  O221  1  0.00731044  0.87190797  0.75494328  1
  O  O222  1  0.49959121  0.36862969  0.25805196  1
  O  O223  1  0.50959896  0.38258657  0.76012881  1
  O  O224  1  0.50472603  0.87173820  0.25444400  1
  O  O225  1  0.51364249  0.87929776  0.75459712  1
  O  O226  1  0.49446006  0.13024158  0.24411777  1
  O  O227  1  0.48993632  0.12088288  0.74120538  1
  O  O228  1  0.49483511  0.63134943  0.24756015  1
  O  O229  1  0.48686923  0.61945902  0.75122295  1
  O  O230  1  1.00104755  0.12600218  0.23599823  1
  O  O231  1  0.99359896  0.12867382  0.74306283  1
  O  O232  1  0.99393432  0.62619363  0.24304525  1
  O  O233  1  0.98787720  0.62443102  0.74975030  1
  O  O234  1  0.36607937  0.25377448  0.00541191  1
  O  O235  1  0.36649933  0.26067987  0.49284894  1
  O  O236  1  0.37446597  0.75886725  0.00809587  1
  O  O237  1  0.36917200  0.75091129  0.51056616  1
  O  O238  1  0.86722490  0.25432679  0.00443994  1
  O  O239  1  0.87556633  0.25786409  0.50699118  1
  O  O240  1  0.86847507  0.75432839  0.00345045  1
  O  O241  1  0.88182464  0.76428571  0.49931531  1
  O  O242  1  0.13273450  0.24525394  0.49099069  1
  O  O243  1  0.13612027  0.24738474  0.99832477  1
  O  O244  1  0.13163918  0.74448712  0.49516362  1
  O  O245  1  0.12664149  0.74376677  0.99412610  1
  O  O246  1  0.62775995  0.24935150  0.48630515  1
  O  O247  1  0.63007729  0.24196381  0.99798589  1
  O  O248  1  0.62035052  0.73528051  0.50342532  1
  O  O249  1  0.62749940  0.74284426  0.99337714  1
  O  O250  1  0.49387566  0.24429800  0.13051187  1
  O  O251  1  0.50733685  0.23496439  0.61646956  1
  O  O252  1  0.48915420  0.74505753  0.13121867  1
  O  O253  1  0.48487571  0.75086214  0.62205957  1
  O  O254  1  0.99620377  0.23897450  0.12253095  1
  O  O255  1  0.99435998  0.24316631  0.62929655  1
  O  O256  1  0.99351847  0.74293266  0.12473511  1
  O  O257  1  0.99380559  0.74528372  0.62829466  1
  O  O258  1  0.01118469  0.25378359  0.37577952  1
  O  O259  1  0.00193846  0.25007150  0.86720244  1
  O  O260  1  0.01040760  0.75706073  0.37169181  1
  O  O261  1  0.00634715  0.75612994  0.87368503  1
  O  O262  1  0.50770497  0.25391977  0.37105568  1
  O  O263  1  0.49929718  0.26456165  0.88037399  1
  O  O264  1  0.50321686  0.75849740  0.36978139  1
  O  O265  1  0.51213735  0.75658218  0.88084949  1
  O  O266  1  0.24780725  0.13192574  0.49523845  1
  O  O267  1  0.25126265  0.13381074  0.98877287  1
  O  O268  1  0.24583636  0.63019846  0.49568703  1
  O  O269  1  0.24433165  0.62664060  0.99033426  1
  O  O270  1  0.74675184  0.12750996  0.48882746  1
  O  O271  1  0.74295977  0.12907957  0.99371625  1
  O  O272  1  0.73508812  0.61781328  0.50235527  1
  O  O273  1  0.73950418  0.63142538  1.00011136  1
  O  O274  1  0.25558930  0.36341231  -0.00087372  1
  O  O275  1  0.25960650  0.36778999  0.50119188  1
  O  O276  1  0.26407744  0.87404664  -0.00723157  1
  O  O277  1  0.25171575  0.86797893  0.50879555  1
  O  O278  1  0.75381610  0.36960300  0.00560030  1
  O  O279  1  0.75755100  0.37538495  0.50732316  1
  O  O280  1  0.75403200  0.86941829  0.00404984  1
  O  O281  1  0.76062803  0.88322351  0.50728144  1
  O  O282  1  0.13254311  0.50126862  0.24501392  1
  O  O283  1  0.12441482  0.49223363  0.74314911  1
  O  O284  1  0.13020732  0.99348150  0.24210862  1
  O  O285  1  0.11930004  0.98499046  0.74743824  1
  O  O286  1  0.63671085  0.50028960  0.25122423  1
  O  O287  1  0.63044790  0.49181892  0.74599741  1
  O  O288  1  0.62419290  0.99337636  0.23962834  1
  O  O289  1  0.62509367  0.99067282  0.73970475  1
  O  O290  1  0.37087793  0.00553589  0.25374453  1
  O  O291  1  0.37632570  -0.00029489  0.76174737  1
  O  O292  1  0.37080269  0.50713079  0.25732708  1
  O  O293  1  0.37039451  0.50961678  0.75812456  1
  O  O294  1  0.87186765  0.00391185  0.25214550  1
  O  O295  1  0.87383667  0.00542660  0.75439843  1
  O  O296  1  0.86849185  0.50501617  0.25511212  1
  O  O297  1  0.87045704  0.50566275  0.75538700  1
  O  O298  1  0.12059064  0.36558847  0.37721225  1
  O  O299  1  0.12319765  0.37410657  0.86328833  1
  O  O300  1  0.12211348  0.87068836  0.36739753  1
  O  O301  1  0.12029202  0.87074640  0.86763699  1
  O  O302  1  0.61995472  0.36685738  0.37438630  1
  O  O303  1  0.61632515  0.37460363  0.86795367  1
  O  O304  1  0.61780634  0.87757077  0.36746537  1
  O  O305  1  0.61998938  0.86878658  0.86766221  1
  O  O306  1  0.38025860  0.12937877  0.13006692  1
  O  O307  1  0.38405800  0.11957897  0.63698211  1
  O  O308  1  0.38053867  0.63330828  0.13150706  1
  O  O309  1  0.37415341  0.63250164  0.63580404  1
  O  O310  1  0.88512079  0.12859840  0.12138838  1
  O  O311  1  0.87927694  0.12861482  0.62809746  1
  O  O312  1  0.88017391  0.63028910  0.12884016  1
  O  O313  1  0.87515199  0.62438892  0.63604346  1
  O  O314  1  0.25510448  0.24717262  0.11559249  1
  O  O315  1  0.24382014  0.25101533  0.60938104  1
  O  O316  1  0.26472369  0.74452765  0.12475284  1
  O  O317  1  0.25887544  0.75832627  0.62094025  1
  O  O318  1  0.75486775  0.25412679  0.11873982  1
  O  O319  1  0.75637088  0.25598130  0.62247183  1
  O  O320  1  0.75573753  0.75622890  0.11878281  1
  O  O321  1  0.75120256  0.76467865  0.62701177  1
  O  O322  1  0.24374167  0.24509172  0.38403806  1
  O  O323  1  0.24888044  0.23964486  0.88416756  1
  O  O324  1  0.24673988  0.74522519  0.38134527  1
  O  O325  1  0.24375080  0.73976819  0.87840203  1
  O  O326  1  0.74230496  0.24366656  0.37349242  1
  O  O327  1  0.74676042  0.24175623  0.88147374  1
  O  O328  1  0.74438368  0.74621594  0.36991605  1
  O  O329  1  0.73568748  0.74918916  0.88205390  1
  O  O330  1  0.00144094  0.11713158  0.00744793  1
  O  O331  1  0.00475650  0.11723552  0.50319876  1
  O  O332  1  0.00469718  0.61842816  0.00539088  1
  O  O333  1  0.00899730  0.61748808  0.50019445  1
  O  O334  1  0.50231996  0.12033564  0.00412790  1
  O  O335  1  0.50066698  0.11460835  0.50834066  1
  O  O336  1  0.50856184  0.62486637  0.00684443  1
  O  O337  1  0.51080688  0.61876949  0.50390168  1
  O  O338  1  0.49343603  0.38104956  0.49545833  1
  O  O339  1  0.49309492  0.37699480  0.99304728  1
  O  O340  1  0.49862756  0.88695394  0.49427766  1
  O  O341  1  0.48957976  0.88072993  0.99196170  1
  O  O342  1  0.99539500  0.38077091  0.49547928  1
  O  O343  1  0.99193130  0.38047210  1.00036522  1
  O  O344  1  0.99553112  0.88241949  0.49507745  1
  O  O345  1  0.99305743  0.87913049  0.99230336  1
  O  O346  1  0.49520321  0.49522077  0.38140263  1
  O  O347  1  0.49233382  0.48902870  0.88061314  1
  O  O348  1  0.49647851  0.99839588  0.38246819  1
  O  O349  1  0.48968722  0.99422920  0.87924193  1
  O  O350  1  0.99597098  0.49421433  0.38103672  1
  O  O351  1  0.99245987  0.49663153  0.88430681  1
  O  O352  1  1.00213419  0.99546587  0.38465451  1
  O  O353  1  0.99288620  0.99329515  0.87932383  1
  O  O354  1  0.00823137  0.00605984  0.11839792  1
  O  O355  1  0.00178785  0.00476948  0.61311065  1
  O  O356  1  0.00469683  0.50572291  0.12027869  1
  O  O357  1  0.01188756  0.50176267  0.61904729  1
  O  O358  1  0.50362434  0.00624501  0.11764093  1
  O  O359  1  0.50771894  0.00377532  0.61732960  1
  O  O360  1  0.50223377  0.50895571  0.12483865  1
  O  O361  1  0.50761907  0.50362108  0.61937937  1
  O  O362  1  0.24857419  0.38379826  0.25055154  1
  O  O363  1  0.23951713  0.37614122  0.74840427  1
  O  O364  1  0.23756536  0.88246789  0.25544894  1
  O  O365  1  0.23974671  0.86948047  0.74117487  1
  O  O366  1  0.75092303  0.38595416  0.24511838  1
  O  O367  1  0.74204768  0.37974908  0.74540260  1
  O  O368  1  0.74243051  0.87719705  0.23980001  1
  O  O369  1  0.73840951  0.87881192  0.74021498  1
  O  O370  1  0.25622949  0.11933186  0.25618612  1
  O  O371  1  0.25921049  0.13119791  0.75974169  1
  O  O372  1  0.25712057  0.62047408  0.25824577  1
  O  O373  1  0.25736575  0.62373305  0.76332107  1
  O  O374  1  0.75052273  0.12294383  0.25937861  1
  O  O375  1  0.75588025  0.12250123  0.75516056  1
  O  O376  1  0.75744611  0.61454169  0.24802021  1
  O  O377  1  0.75771291  0.61677459  0.75205781  1
  O  O378  1  0.37148987  0.12032367  0.36957051  1
  O  O379  1  0.37034850  0.11788014  0.86529574  1
  O  O380  1  0.37176374  0.62160903  0.37195255  1
  O  O381  1  0.36899369  0.62310962  0.87166796  1
  O  O382  1  0.86471326  0.12502128  0.37335046  1
  O  O383  1  0.86873969  0.11813005  0.86881801  1
  O  O384  1  0.87703066  0.61778302  0.36913329  1
  O  O385  1  0.87161285  0.61760101  0.86775964  1
  O  O386  1  0.12857512  0.38310882  0.12849280  1
  O  O387  1  0.12529118  0.38326020  0.63414509  1
  O  O388  1  0.11850175  0.88528555  0.13312041  1
  O  O389  1  0.13356248  0.87416383  0.63246782  1
  O  O390  1  0.63244295  0.37713977  0.12824241  1
  O  O391  1  0.62914871  0.38010760  0.63231476  1
  O  O392  1  0.62772554  0.87967960  0.12649508  1
  O  O393  1  0.62938957  0.88059596  0.62927175  1
  O  O394  1  0.12724166  0.24910742  0.26375137  1
  O  O395  1  0.11838790  0.25895967  0.74926580  1
  O  O396  1  0.12659829  0.75914158  0.25462855  1
  O  O397  1  0.12339356  0.75917086  0.75706621  1
  O  O398  1  0.61833184  0.25180555  0.25962547  1
  O  O399  1  0.62920143  0.26508580  0.75077167  1
  O  O400  1  0.61574991  0.75836201  0.24778848  1
  O  O401  1  0.63081704  0.75813103  0.75957742  1
  O  O402  1  0.37910195  0.24412852  0.24691867  1
  O  O403  1  0.37506300  0.24268427  0.75407288  1
  O  O404  1  0.37994618  0.74700714  0.24407505  1
  O  O405  1  0.36921289  0.73974516  0.74275922  1
  O  O406  1  0.87870459  0.24579405  0.23929738  1
  O  O407  1  0.87941919  0.24362436  0.74352179  1
  O  O408  1  0.87817801  0.74437139  0.24113881  1
  O  O409  1  0.87242354  0.73713740  0.75114307  1
  O  O410  1  0.37981937  0.49471476  0.49551176  1
  O  O411  1  0.37440030  0.49356033  0.99521563  1
  O  O412  1  0.38523617  0.99944248  0.49400429  1
  O  O413  1  0.37888083  0.99340395  0.99196438  1
  O  O414  1  0.88133708  0.49516970  0.49567631  1
  O  O415  1  0.87816569  0.49464503  0.99661862  1
  O  O416  1  0.88690679  0.99129116  0.49646633  1
  O  O417  1  0.87968950  0.99250545  0.99260405  1
  O  O418  1  0.11914899  -0.00202107  0.00735153  1
  O  O419  1  0.11613252  0.00555957  0.50035590  1
  O  O420  1  0.11919070  0.50534698  0.00623041  1
  O  O421  1  0.12222698  0.50412698  0.50752084  1
  O  O422  1  0.61664664  0.00499356  0.00295418  1
  O  O423  1  0.61553205  0.00076352  0.50932891  1
  O  O424  1  0.62497154  0.51332934  0.00145995  1
  O  O425  1  0.61991314  0.50656396  0.50631871  1
  O  O426  1  0.37247171  0.36729533  0.11949459  1
  O  O427  1  0.37599293  0.38315893  0.61222455  1
  O  O428  1  0.38119635  0.86691790  0.11436325  1
  O  O429  1  0.36755612  0.86747212  0.62715792  1
  O  O430  1  0.86927604  0.36860606  0.11878489  1
  O  O431  1  0.87068386  0.37031401  0.62142017  1
  O  O432  1  0.87074661  0.87015873  0.11707694  1
  O  O433  1  0.86580529  0.87581389  0.61602727  1
  O  O434  1  0.13108176  0.13207060  0.38006580  1
  O  O435  1  0.13537627  0.12383807  0.87477302  1
  O  O436  1  0.13207256  0.63057978  0.38078301  1
  O  O437  1  0.13171362  0.62818576  0.87945706  1
  O  O438  1  0.63166797  0.13436276  0.37553267  1
  O  O439  1  0.62803491  0.12434151  0.87912950  1
  O  O440  1  0.62602170  0.62542731  0.39170544  1
  O  O441  1  0.62327087  0.63212972  0.88320674  1
