# generated using pymatgen
data_V93Zn93O256
_symmetry_space_group_name_H-M   'P 1'
_cell_length_a   17.05153229
_cell_length_b   17.04848668
_cell_length_c   17.04810027
_cell_angle_alpha   90.07118954
_cell_angle_beta   89.98162967
_cell_angle_gamma   90.02755861
_symmetry_Int_Tables_number   1
_chemical_formula_structural   V93Zn93O256
_chemical_formula_sum   'V93 Zn93 O256'
_cell_volume   4955.92619059
_cell_formula_units_Z   1
loop_
 _symmetry_equiv_pos_site_id
 _symmetry_equiv_pos_as_xyz
  1  'x, y, z'
loop_
 _atom_site_type_symbol
 _atom_site_label
 _atom_site_symmetry_multiplicity
 _atom_site_fract_x
 _atom_site_fract_y
 _atom_site_fract_z
 _atom_site_occupancy
  V  V0  1  -0.00012449  0.37499827  0.87653015  1
  V  V1  1  0.62426893  0.00015966  0.62342903  1
  V  V2  1  0.50023679  0.62793831  0.62949296  1
  V  V3  1  0.38003575  0.74688644  0.12387779  1
  V  V4  1  0.62489610  0.50113140  0.62683150  1
  V  V5  1  0.87550244  0.50077855  0.87725610  1
  V  V6  1  0.37921820  0.62905377  0.75164138  1
  V  V7  1  -0.00027497  0.74988347  0.75146384  1
  V  V8  1  0.74844576  0.00069856  0.74926426  1
  V  V9  1  0.49917110  0.37481907  0.37607816  1
  V  V10  1  0.25069344  0.50197544  0.75107690  1
  V  V11  1  0.12560340  0.62587930  0.50075450  1
  V  V12  1  0.12842278  0.75126605  0.87983558  1
  V  V13  1  0.37552359  0.50163417  0.87641378  1
  V  V14  1  0.74951260  0.50030837  0.75095711  1
  V  V15  1  0.87535583  0.62622848  0.75126280  1
  V  V16  1  0.87516623  0.25733707  0.62076239  1
  V  V17  1  0.12592508  0.74923550  0.37605423  1
  V  V18  1  0.74986812  0.25103388  -0.00063745  1
  V  V19  1  0.12599591  0.36964616  0.25623716  1
  V  V20  1  -0.00063761  0.24962328  0.74910929  1
  V  V21  1  0.12312864  0.87500198  0.75059058  1
  V  V22  1  0.87478773  0.49537031  0.38140220  1
  V  V23  1  0.12606745  0.87374388  0.24950645  1
  V  V24  1  0.00074764  0.49905053  0.00122293  1
  V  V25  1  0.12520771  0.25046790  0.87558254  1
  V  V26  1  0.49992427  0.25038291  0.74953176  1
  V  V27  1  0.75094758  -0.00258592  0.24520438  1
  V  V28  1  0.50053741  0.24879353  0.24853705  1
  V  V29  1  0.61972915  0.75014991  0.87086150  1
  V  V30  1  0.87508300  0.12452848  0.24912369  1
  V  V31  1  0.75385032  0.25643090  0.49911778  1
  V  V32  1  0.25024118  0.62482639  0.37525497  1
  V  V33  1  0.00005652  0.62500375  0.62703130  1
  V  V34  1  0.62332282  0.50351536  0.12679555  1
  V  V35  1  0.25081607  0.37585478  0.62526281  1
  V  V36  1  0.49971483  0.49966097  0.50097128  1
  V  V37  1  0.86913487  0.75408742  0.12324009  1
  V  V38  1  0.00072297  0.74810994  0.25091550  1
  V  V39  1  0.37495254  -0.00130333  0.37362604  1
  V  V40  1  0.62453036  0.62622657  0.50053832  1
  V  V41  1  0.00202259  0.24820325  0.25293656  1
  V  V42  1  0.25056730  -0.00227407  0.24848682  1
  V  V43  1  0.50063041  0.00106984  0.49819342  1
  V  V44  1  0.25055434  0.49994597  0.25150907  1
  V  V45  1  0.62494029  0.74924825  0.37507637  1
  V  V46  1  0.12116010  0.00213770  0.62296568  1
  V  V47  1  0.74985302  0.12484176  0.37391874  1
  V  V48  1  0.62528522  0.25019234  0.87432524  1
  V  V49  1  0.49987707  -0.00145258  -0.00178639  1
  V  V50  1  0.37567512  0.24873976  0.12349127  1
  V  V51  1  0.12468927  0.49981663  0.12627977  1
  V  V52  1  0.24942569  0.00130222  0.74902788  1
  V  V53  1  0.87694348  0.62212981  0.25113606  1
  V  V54  1  0.74946148  0.37401169  0.12533928  1
  V  V55  1  -0.00149580  0.49746994  0.50203281  1
  V  V56  1  0.25055171  0.62731878  0.87786360  1
  V  V57  1  0.74991782  0.12565722  0.87316986  1
  V  V58  1  0.87491261  0.87589572  0.50000535  1
  V  V59  1  0.24718189  0.13155380  0.37392616  1
  V  V60  1  0.25020225  0.24972711  -0.00067927  1
  V  V61  1  0.74958025  0.62686184  0.87682606  1
  V  V62  1  0.24933774  0.12658067  0.87518499  1
  V  V63  1  0.61762088  0.87125406  0.74973548  1
  V  V64  1  0.36923329  0.86910314  -0.00142762  1
  V  V65  1  0.37465525  -0.00093655  0.87376347  1
  V  V66  1  0.74990158  0.62398418  0.37712167  1
  V  V67  1  0.37524977  0.12542776  0.74867246  1
  V  V68  1  0.24835319  0.86985744  0.12288686  1
  V  V69  1  0.38149664  0.62483714  0.24705902  1
  V  V70  1  0.00021512  0.87496342  0.37597220  1
  V  V71  1  0.87446841  0.25055559  0.12576220  1
  V  V72  1  0.12590064  0.13091720  0.49593265  1
  V  V73  1  0.62470686  0.37348093  0.24865077  1
  V  V74  1  0.12598175  0.50145437  0.62666331  1
  V  V75  1  0.62793214  0.87333352  0.24614524  1
  V  V76  1  0.62777419  -0.00462517  0.12133660  1
  V  V77  1  0.62592578  0.12447714  0.49898511  1
  V  V78  1  0.12957213  0.62863509  0.00242232  1
  V  V79  1  0.74977474  0.87540453  0.62380100  1
  V  V80  1  0.49975586  0.50295626  0.00396301  1
  V  V81  1  0.50014845  0.87350399  0.37265251  1
  V  V82  1  0.62403667  0.62708596  0.00409719  1
  V  V83  1  0.25058272  0.37351612  0.12551032  1
  V  V84  1  0.37951387  0.75116643  0.63004548  1
  V  V85  1  0.87692452  -0.00191157  0.87440464  1
  V  V86  1  0.49985215  0.37611459  0.87519615  1
  V  V87  1  -0.00059730  0.37264560  0.37971945  1
  V  V88  1  0.37600566  0.12334021  0.24836545  1
  V  V89  1  0.62630063  0.37622178  0.74915506  1
  V  V90  1  0.24980888  0.87510329  0.62348206  1
  V  V91  1  0.37433694  0.87444347  0.49911961  1
  V  V92  1  0.37406038  0.25060012  0.62216349  1
  Zn  Zn93  1  0.87508091  0.37632101  0.00212583  1
  Zn  Zn94  1  0.49485850  0.86936464  0.86947899  1
  Zn  Zn95  1  0.12233116  0.12225552  0.00190162  1
  Zn  Zn96  1  0.37397195  0.37676552  0.49830461  1
  Zn  Zn97  1  0.00219785  0.12238378  0.12231953  1
  Zn  Zn98  1  -0.00178875  0.87557617  0.87913851  1
  Zn  Zn99  1  0.25065355  0.74931889  0.50057570  1
  Zn  Zn100  1  0.75040181  0.75014055  0.50138486  1
  Zn  Zn101  1  0.00102312  0.62426689  0.12524421  1
  Zn  Zn102  1  0.37502996  0.50217905  0.37666366  1
  Zn  Zn103  1  0.00048726  -0.00021903  0.00292194  1
  Zn  Zn104  1  0.12521109  0.37661954  0.75125400  1
  Zn  Zn105  1  0.12177775  0.00054926  0.12206064  1
  Zn  Zn106  1  0.87373991  0.75054010  0.62647641  1
  Zn  Zn107  1  0.62345110  0.12476375  0.00023443  1
  Zn  Zn108  1  0.87463660  0.12545904  0.74530523  1
  Zn  Zn109  1  0.50031048  0.12413659  0.12399364  1
  Zn  Zn110  1  0.87565622  -0.00093883  0.37365366  1
  Zn  Zn111  1  0.50399104  0.74375027  0.24600408  1
  Zn  Zn112  1  -0.00228397  0.12780213  0.61978303  1
  Zn  Zn113  1  0.37494472  0.37571570  0.00049277  1
  Zn  Zn114  1  0.50015726  0.12596309  0.62300569  1
  Zn  Zn115  1  0.62564800  0.24944091  0.37509705  1
  Zn  Zn116  1  0.87000604  0.88193491  0.00539410  1
  Zn  Zn117  1  0.24712644  0.25471003  0.49383781  1
  Zn  Zn118  1  0.75132802  0.49703116  0.25103633  1
  Zn  Zn119  1  -0.00089083  0.00311426  0.49570985  1
  Zn  Zn120  1  0.74340255  0.76000730  0.00686659  1
  Zn  Zn121  1  0.75290507  0.37897673  0.62008657  1
  Zn  Zn122  1  0.18770491  0.18560106  0.18560445  1
  Zn  Zn123  1  0.18612577  0.18808331  0.68742739  1
  Zn  Zn124  1  0.19183838  0.68823855  0.18781458  1
  Zn  Zn125  1  0.19006156  0.68906905  0.68955345  1
  Zn  Zn126  1  0.68574162  0.18455600  0.18540136  1
  Zn  Zn127  1  0.68792598  0.18851581  0.68444276  1
  Zn  Zn128  1  0.69011592  0.68416911  0.19137921  1
  Zn  Zn129  1  0.68886935  0.68939853  0.68748021  1
  Zn  Zn130  1  0.31639768  0.31217350  0.30954221  1
  Zn  Zn131  1  0.31354386  0.31423984  0.81191529  1
  Zn  Zn132  1  0.31266955  0.80893059  0.31054818  1
  Zn  Zn133  1  0.30870301  0.81307319  0.81109388  1
  Zn  Zn134  1  0.81313742  0.31186909  0.31243792  1
  Zn  Zn135  1  0.81457544  0.31432576  0.81094240  1
  Zn  Zn136  1  0.81194338  0.81082195  0.31315854  1
  Zn  Zn137  1  0.80705804  0.81267039  0.81380774  1
  Zn  Zn138  1  0.18641571  0.43957323  0.43867456  1
  Zn  Zn139  1  0.18694211  0.43718862  0.93877828  1
  Zn  Zn140  1  0.18797722  0.93985058  0.43684105  1
  Zn  Zn141  1  0.18633646  0.93925790  0.93799233  1
  Zn  Zn142  1  0.68494283  0.43841410  0.43674936  1
  Zn  Zn143  1  0.68796600  0.43747707  0.93812177  1
  Zn  Zn144  1  0.68876777  0.93733364  0.43431954  1
  Zn  Zn145  1  0.69197708  0.93294765  0.93685017  1
  Zn  Zn146  1  0.31058670  0.06052063  0.06171828  1
  Zn  Zn147  1  0.31069513  0.06299569  0.56002909  1
  Zn  Zn148  1  0.31082168  0.56237003  0.06480727  1
  Zn  Zn149  1  0.31446053  0.56348074  0.56208883  1
  Zn  Zn150  1  0.81364822  0.06551744  0.06097523  1
  Zn  Zn151  1  0.81323230  0.06546807  0.56248504  1
  Zn  Zn152  1  0.81041089  0.56431506  0.06335395  1
  Zn  Zn153  1  0.81211880  0.56374290  0.56368885  1
  Zn  Zn154  1  0.43710200  0.43693225  0.18806904  1
  Zn  Zn155  1  0.43759711  0.43951875  0.68872034  1
  Zn  Zn156  1  0.43922139  0.93507888  0.18493383  1
  Zn  Zn157  1  0.43795563  0.93906926  0.68442511  1
  Zn  Zn158  1  0.93912255  0.43597977  0.18916844  1
  Zn  Zn159  1  0.93680617  0.43685253  0.68960278  1
  Zn  Zn160  1  0.93991089  0.93657825  0.18833172  1
  Zn  Zn161  1  0.93666411  0.93698660  0.68983490  1
  Zn  Zn162  1  0.06411018  0.05979902  0.31106529  1
  Zn  Zn163  1  0.06208111  0.06577843  0.81251236  1
  Zn  Zn164  1  0.06315203  0.55985206  0.31465040  1
  Zn  Zn165  1  0.06319799  0.56322358  0.81438691  1
  Zn  Zn166  1  0.56348813  0.06211531  0.31178903  1
  Zn  Zn167  1  0.56158705  0.06183761  0.81150540  1
  Zn  Zn168  1  0.56229707  0.56029241  0.31394391  1
  Zn  Zn169  1  0.56185415  0.56391654  0.81409423  1
  Zn  Zn170  1  0.43657232  0.18733844  0.43610221  1
  Zn  Zn171  1  0.43648571  0.18639920  0.93733906  1
  Zn  Zn172  1  0.43760553  0.68829657  0.43802372  1
  Zn  Zn173  1  0.43949476  0.68686926  0.93937193  1
  Zn  Zn174  1  0.93611725  0.18629148  0.43645853  1
  Zn  Zn175  1  0.93684784  0.18587421  0.93932720  1
  Zn  Zn176  1  0.93803029  0.68773913  0.43969375  1
  Zn  Zn177  1  0.94231185  0.68604071  0.93911115  1
  Zn  Zn178  1  0.06344267  0.31086545  0.06408480  1
  Zn  Zn179  1  0.06418412  0.31303073  0.56351030  1
  Zn  Zn180  1  0.05356421  0.81479928  0.06214540  1
  Zn  Zn181  1  0.06036856  0.81200775  0.56268405  1
  Zn  Zn182  1  0.56264343  0.31384347  0.06147364  1
  Zn  Zn183  1  0.56527086  0.31217574  0.56187920  1
  Zn  Zn184  1  0.55855205  0.81377392  0.06051298  1
  Zn  Zn185  1  0.56146654  0.81287704  0.56098288  1
  O  O186  1  0.12281290  0.12064061  0.12268865  1
  O  O187  1  0.12656178  0.11602244  0.61661538  1
  O  O188  1  0.12667605  0.62030443  0.11836791  1
  O  O189  1  0.12059509  0.62047503  0.62149863  1
  O  O190  1  0.62128704  0.11009270  0.12150687  1
  O  O191  1  0.62351856  0.11779049  0.61763450  1
  O  O192  1  0.63083197  0.61501907  0.11711855  1
  O  O193  1  0.61997104  0.62098212  0.62127772  1
  O  O194  1  0.38716756  0.37715091  0.37530095  1
  O  O195  1  0.38171290  0.38377219  0.87631459  1
  O  O196  1  0.37938174  0.87882633  0.37851926  1
  O  O197  1  0.37357814  0.87852917  0.88157927  1
  O  O198  1  0.88576576  0.38645412  0.36735944  1
  O  O199  1  0.88135267  0.38330974  0.87764368  1
  O  O200  1  0.88040399  0.87453322  0.38285647  1
  O  O201  1  0.87339493  0.88920207  0.86964367  1
  O  O202  1  0.25698001  0.00695786  0.36823674  1
  O  O203  1  0.25593182  0.00532423  0.86769722  1
  O  O204  1  0.25162727  0.50580181  0.36874922  1
  O  O205  1  0.25589943  0.50626521  0.87132359  1
  O  O206  1  0.74953602  0.00617666  0.36145860  1
  O  O207  1  0.75461053  0.00901023  0.86883887  1
  O  O208  1  0.75933118  0.50370977  0.37512565  1
  O  O209  1  0.75465938  0.50664690  0.87102108  1
  O  O210  1  0.24416803  0.49294362  0.13189324  1
  O  O211  1  0.24708182  0.49398375  0.63037683  1
  O  O212  1  0.25235191  0.98554086  0.13128704  1
  O  O213  1  0.24146237  0.99567668  0.62948905  1
  O  O214  1  0.73889085  0.49384927  0.12587667  1
  O  O215  1  0.74369980  0.49968750  0.63193114  1
  O  O216  1  0.74082833  1.00559222  0.13505087  1
  O  O217  1  0.74351180  0.99556956  0.62948416  1
  O  O218  1  0.00785053  0.36899599  0.25868035  1
  O  O219  1  0.00157594  0.36565287  0.75663157  1
  O  O220  1  0.00628900  0.86673707  0.25685766  1
  O  O221  1  0.00707603  0.86807946  0.75258650  1
  O  O222  1  0.50449099  0.37002368  0.25722861  1
  O  O223  1  0.50568360  0.37085435  0.75602505  1
  O  O224  1  0.51213925  0.87530370  0.25538282  1
  O  O225  1  0.51331005  0.88061853  0.74998943  1
  O  O226  1  0.49344298  0.13014357  0.24937803  1
  O  O227  1  0.49322329  0.13189266  0.74747703  1
  O  O228  1  0.48582795  0.62297132  0.25381810  1
  O  O229  1  0.49171669  0.61938084  0.74271944  1
  O  O230  1  0.99527067  0.13581852  0.25399318  1
  O  O231  1  0.99937859  0.14022803  0.74662676  1
  O  O232  1  0.99130225  0.62886667  0.25311364  1
  O  O233  1  0.99501602  0.62930166  0.74627499  1
  O  O234  1  0.36952734  0.25246875  0.00531509  1
  O  O235  1  0.37223049  0.25213735  0.51165192  1
  O  O236  1  0.38142064  0.76076751  0.00662605  1
  O  O237  1  0.37275577  0.75631302  0.51003561  1
  O  O238  1  0.86735487  0.25282388  0.00735170  1
  O  O239  1  0.86496490  0.24487285  0.50782587  1
  O  O240  1  0.87698014  0.74038447  0.01864829  1
  O  O241  1  0.87384591  0.76249667  0.50238909  1
  O  O242  1  0.12934352  0.23542368  0.50751729  1
  O  O243  1  0.13308459  0.24988073  0.99288289  1
  O  O244  1  0.12591254  0.74331170  0.49442081  1
  O  O245  1  0.11712066  0.74031252  0.99116492  1
  O  O246  1  0.63449590  0.24214183  0.49922838  1
  O  O247  1  0.63045994  0.24863611  0.99222075  1
  O  O248  1  0.62561050  0.74358494  0.49310700  1
  O  O249  1  0.62334446  0.74131711  0.99603051  1
  O  O250  1  0.49442170  0.24844375  0.12964189  1
  O  O251  1  0.48984472  0.25071834  0.63029135  1
  O  O252  1  0.48518244  0.75543320  0.12821030  1
  O  O253  1  0.48745880  0.74493340  0.61990429  1
  O  O254  1  0.99342225  0.25321084  0.13928838  1
  O  O255  1  0.99336032  0.25241310  0.63200579  1
  O  O256  1  0.98970204  0.74394832  0.13411157  1
  O  O257  1  0.99910829  0.74259243  0.63369634  1
  O  O258  1  -0.00864717  0.26113105  0.36383547  1
  O  O259  1  0.00341584  0.25520144  0.86728335  1
  O  O260  1  0.00617758  0.75461675  0.37052329  1
  O  O261  1  0.01159177  0.74911648  0.86881104  1
  O  O262  1  0.50083795  0.25913903  0.36893131  1
  O  O263  1  0.50464761  0.25529616  0.86969548  1
  O  O264  1  0.50714901  0.75607642  0.37195313  1
  O  O265  1  0.51497613  0.75084202  0.87934058  1
  O  O266  1  0.24385584  0.12566345  0.48988634  1
  O  O267  1  0.25176796  0.13205897  0.99113944  1
  O  O268  1  0.24303358  0.62490070  0.49404897  1
  O  O269  1  0.23689872  0.61912799  0.99460570  1
  O  O270  1  0.74483247  0.13184768  0.49305395  1
  O  O271  1  0.74680500  0.13164587  0.98830653  1
  O  O272  1  0.74260598  0.62618668  0.49446200  1
  O  O273  1  0.73728824  0.62627729  0.99501636  1
  O  O274  1  0.25193367  0.36933227  0.00758281  1
  O  O275  1  0.25115515  0.37424225  0.51074489  1
  O  O276  1  0.26172910  0.88022745  0.00833030  1
  O  O277  1  0.25691557  0.87529389  0.50598888  1
  O  O278  1  0.75080063  0.36889684  0.00669194  1
  O  O279  1  0.74297793  0.36092403  0.49938109  1
  O  O280  1  0.75814440  0.87076225  -0.00005569  1
  O  O281  1  0.75816339  0.87521875  0.50430201  1
  O  O282  1  0.12989373  0.49127459  0.24591648  1
  O  O283  1  0.13248257  0.50058906  0.74431879  1
  O  O284  1  0.13384566  0.98987185  0.24865222  1
  O  O285  1  0.12990040  0.99667368  0.74206980  1
  O  O286  1  0.62509138  0.49498096  0.24050521  1
  O  O287  1  0.63008965  0.49643544  0.74647389  1
  O  O288  1  0.63085663  0.99284620  0.24168102  1
  O  O289  1  0.62916978  0.99241848  0.74431122  1
  O  O290  1  0.37099840  0.00301139  0.25413502  1
  O  O291  1  0.36959284  0.00452480  0.75317914  1
  O  O292  1  0.36865288  0.50824626  0.24937524  1
  O  O293  1  0.36999604  0.50779620  0.75691428  1
  O  O294  1  0.86383910  0.00377750  0.24847771  1
  O  O295  1  0.86650964  0.00411393  0.75523956  1
  O  O296  1  0.87683453  0.50788720  0.26088051  1
  O  O297  1  0.86988893  0.50644705  0.75705230  1
  O  O298  1  0.11569832  0.38152006  0.36422049  1
  O  O299  1  0.11861802  0.36925904  0.87290513  1
  O  O300  1  0.12111517  0.86896278  0.37039825  1
  O  O301  1  0.12577124  0.86596801  0.86929862  1
  O  O302  1  0.61431847  0.37430929  0.36790840  1
  O  O303  1  0.61974389  0.37030720  0.86908229  1
  O  O304  1  0.62004632  0.86980959  0.36634861  1
  O  O305  1  0.62411334  0.86711049  0.86571430  1
  O  O306  1  0.37542095  0.12984268  0.13128094  1
  O  O307  1  0.37360527  0.13476982  0.62965157  1
  O  O308  1  0.36495345  0.63579390  0.13443231  1
  O  O309  1  0.37926702  0.63339775  0.63085653  1
  O  O310  1  0.87538422  0.13367035  0.13329269  1
  O  O311  1  0.87786098  0.13788162  0.62657015  1
  O  O312  1  0.87711839  0.62739359  0.13872169  1
  O  O313  1  0.88216111  0.62580583  0.63290207  1
  O  O314  1  0.25617313  0.25504578  0.12009811  1
  O  O315  1  0.25863930  0.25991025  0.62755608  1
  O  O316  1  0.26175867  0.76280646  0.13003586  1
  O  O317  1  0.25950897  0.75657464  0.62328063  1
  O  O318  1  0.75349992  0.25425126  0.11964882  1
  O  O319  1  0.75751007  0.25234923  0.61682057  1
  O  O320  1  0.76581642  0.74147418  0.12725003  1
  O  O321  1  0.75280426  0.75919962  0.62228837  1
  O  O322  1  0.25757936  0.23590194  0.37430654  1
  O  O323  1  0.24609390  0.24682283  0.87845411  1
  O  O324  1  0.24310332  0.74316699  0.37684539  1
  O  O325  1  0.23630165  0.74349886  0.86985907  1
  O  O326  1  0.74993511  0.24393962  0.38241111  1
  O  O327  1  0.74568271  0.24393616  0.87759688  1
  O  O328  1  0.74266009  0.74181281  0.37652928  1
  O  O329  1  0.73770935  0.74289795  0.87841929  1
  O  O330  1  0.00299869  0.12242851  0.00316476  1
  O  O331  1  0.01062604  0.12264005  0.49862083  1
  O  O332  1  0.01368333  0.61693039  0.00173480  1
  O  O333  1  0.00570415  0.61854797  0.50679872  1
  O  O334  1  0.50057707  0.11058042  -0.00048854  1
  O  O335  1  0.50658386  0.11867714  0.49890581  1
  O  O336  1  0.51198727  0.61323720  -0.00446141  1
  O  O337  1  0.50560911  0.61954080  0.50706348  1
  O  O338  1  0.50126589  0.37962678  0.49090285  1
  O  O339  1  0.49987292  0.38676037  0.99340889  1
  O  O340  1  0.49426079  0.88139573  0.49264041  1
  O  O341  1  0.48894106  0.88462786  0.99667758  1
  O  O342  1  1.00936308  0.38033468  0.48736689  1
  O  O343  1  0.99918431  0.38133000  0.99485956  1
  O  O344  1  0.99171441  0.87698900  0.49479591  1
  O  O345  1  0.98719190  0.87884610  0.99542395  1
  O  O346  1  0.49977822  0.48991702  0.38153980  1
  O  O347  1  0.49571501  0.49600465  0.88416263  1
  O  O348  1  0.49452276  0.99377618  0.37874470  1
  O  O349  1  0.49330652  0.99708226  0.88221109  1
  O  O350  1  0.99346469  0.49247017  0.38119607  1
  O  O351  1  0.99549166  0.49530968  0.88057411  1
  O  O352  1  0.99715210  0.98957674  0.37425640  1
  O  O353  1  0.98640840  1.00143693  0.86991192  1
  O  O354  1  0.00215435  0.00300712  0.12460456  1
  O  O355  1  0.01254388  0.00258288  0.62557496  1
  O  O356  1  0.00736532  0.50085397  0.12066183  1
  O  O357  1  0.00527658  0.50418478  0.62193992  1
  O  O358  1  0.50751929  -0.00053684  0.11466956  1
  O  O359  1  0.50596511  0.00235833  0.61567898  1
  O  O360  1  0.51158168  0.49268249  0.11524094  1
  O  O361  1  0.50571650  0.50647781  0.62073661  1
  O  O362  1  0.24287949  0.37807901  0.24739339  1
  O  O363  1  0.25017654  0.38286773  0.74048301  1
  O  O364  1  0.24614900  0.87823958  0.24288814  1
  O  O365  1  0.24298243  0.88222503  0.74307834  1
  O  O366  1  0.74270969  0.37593748  0.24435186  1
  O  O367  1  0.74320685  0.38311573  0.74958796  1
  O  O368  1  0.73787932  0.88410945  0.25623845  1
  O  O369  1  0.73918933  0.88144345  0.74364749  1
  O  O370  1  0.25557447  0.11910441  0.25672823  1
  O  O371  1  0.25581832  0.12047152  0.75455366  1
  O  O372  1  0.25752601  0.61915385  0.25629180  1
  O  O373  1  0.25778024  0.62019525  0.75712682  1
  O  O374  1  0.75408126  0.11741655  0.25420081  1
  O  O375  1  0.74769114  0.12049535  0.75888339  1
  O  O376  1  0.76090121  0.61973108  0.25884808  1
  O  O377  1  0.75493878  0.61962501  0.75647949  1
  O  O378  1  0.36777997  0.11796667  0.36909105  1
  O  O379  1  0.36937639  0.11937612  0.86754204  1
  O  O380  1  0.36870995  0.62526167  0.36601989  1
  O  O381  1  0.37049354  0.62198136  0.87237372  1
  O  O382  1  0.86749737  0.12147905  0.36702375  1
  O  O383  1  0.86266494  0.11996186  0.87026568  1
  O  O384  1  0.87189934  0.61720195  0.36914052  1
  O  O385  1  0.87022721  0.62065677  0.87126465  1
  O  O386  1  0.13064624  0.37959749  0.13604286  1
  O  O387  1  0.13571495  0.38200842  0.62678252  1
  O  O388  1  0.13456442  0.86960495  0.13048680  1
  O  O389  1  0.12924137  0.88318049  0.62898656  1
  O  O390  1  0.62996859  0.38328359  0.12932113  1
  O  O391  1  0.62594450  0.38328609  0.63221036  1
  O  O392  1  0.61922627  0.88405875  0.13409462  1
  O  O393  1  0.62885511  0.87977145  0.63049053  1
  O  O394  1  0.11656528  0.26111290  0.24614728  1
  O  O395  1  0.11599511  0.25333010  0.75463528  1
  O  O396  1  0.12079044  0.75343313  0.25620006  1
  O  O397  1  0.11999524  0.75418685  0.75829673  1
  O  O398  1  0.61837215  0.25553601  0.25006660  1
  O  O399  1  0.61953919  0.25573211  0.75399406  1
  O  O400  1  0.62475816  0.75694875  0.25346309  1
  O  O401  1  0.62990820  0.75964298  0.75870264  1
  O  O402  1  0.38132668  0.24320671  0.24265646  1
  O  O403  1  0.37998485  0.24595640  0.74173103  1
  O  O404  1  0.37785480  0.74140785  0.24254206  1
  O  O405  1  0.36952660  0.74579327  0.73872818  1
  O  O406  1  0.88221127  0.24479437  0.24532623  1
  O  O407  1  0.88317498  0.24961783  0.74178428  1
  O  O408  1  0.87910384  0.73980327  0.24521277  1
  O  O409  1  0.88073653  0.74339990  0.75211836  1
  O  O410  1  0.38439698  0.49766841  0.49839532  1
  O  O411  1  0.38485088  0.50211765  0.99685605  1
  O  O412  1  0.38013615  0.99452230  0.49400310  1
  O  O413  1  0.38131519  0.99092586  0.99447152  1
  O  O414  1  0.88167561  0.50611339  0.48885215  1
  O  O415  1  0.88182725  0.50167091  0.99495641  1
  O  O416  1  0.87638431  0.98880249  0.49800516  1
  O  O417  1  0.87363291  1.00326070  0.98548151  1
  O  O418  1  0.12141847  0.00266568  0.00230157  1
  O  O419  1  0.12510859  0.00829191  0.50913148  1
  O  O420  1  0.12053673  0.50744957  0.00616656  1
  O  O421  1  0.11848980  0.50662113  0.50728817  1
  O  O422  1  0.61693678  -0.00424464  0.00559521  1
  O  O423  1  0.62051791  0.00395246  0.50343742  1
  O  O424  1  0.61902786  0.50699525  0.00645188  1
  O  O425  1  0.61952788  0.50659101  0.50667267  1
  O  O426  1  0.36809040  0.36787414  0.12493537  1
  O  O427  1  0.36716895  0.36806036  0.62566244  1
  O  O428  1  0.36842055  0.86799500  0.11814315  1
  O  O429  1  0.37068635  0.86904770  0.62048467  1
  O  O430  1  0.86729748  0.36940730  0.12643190  1
  O  O431  1  0.87255593  0.36311134  0.62765254  1
  O  O432  1  0.87737191  0.85550347  0.13150510  1
  O  O433  1  0.86916474  0.87536184  0.61687991  1
  O  O434  1  0.13689244  0.11678993  0.38339536  1
  O  O435  1  0.13385812  0.13357571  0.87333487  1
  O  O436  1  0.12964154  0.62914501  0.38063603  1
  O  O437  1  0.13020055  0.63157787  0.88284024  1
  O  O438  1  0.63216778  0.12612202  0.38026139  1
  O  O439  1  0.63416099  0.13044899  0.87492164  1
  O  O440  1  0.62959957  0.62843119  0.37974902  1
  O  O441  1  0.62922037  0.63121953  0.88261480  1
