# generated using pymatgen
data_V93Zn93O256
_symmetry_space_group_name_H-M   'P 1'
_cell_length_a   17.05894498
_cell_length_b   17.05759044
_cell_length_c   17.05633619
_cell_angle_alpha   89.97500935
_cell_angle_beta   89.93627611
_cell_angle_gamma   89.94636897
_symmetry_Int_Tables_number   1
_chemical_formula_structural   V93Zn93O256
_chemical_formula_sum   'V93 Zn93 O256'
_cell_volume   4963.12369037
_cell_formula_units_Z   1
loop_
 _symmetry_equiv_pos_site_id
 _symmetry_equiv_pos_as_xyz
  1  'x, y, z'
loop_
 _atom_site_type_symbol
 _atom_site_label
 _atom_site_symmetry_multiplicity
 _atom_site_fract_x
 _atom_site_fract_y
 _atom_site_fract_z
 _atom_site_occupancy
  V  V0  1  0.37470669  0.49924071  0.37400196  1
  V  V1  1  0.49956270  0.87423733  0.37401094  1
  V  V2  1  0.37425284  0.87595377  0.49937412  1
  V  V3  1  0.37090007  0.00414253  0.37525173  1
  V  V4  1  0.00010645  0.49856857  0.50116732  1
  V  V5  1  0.87532329  0.87387890  0.50008087  1
  V  V6  1  0.25124685  0.24841392  0.49575468  1
  V  V7  1  0.24444327  0.37775096  0.12445838  1
  V  V8  1  0.74498777  0.38012589  0.63425587  1
  V  V9  1  0.62456613  0.00025535  0.12670691  1
  V  V10  1  0.87530648  0.37434443  0.00036277  1
  V  V11  1  0.87487276  -0.00051171  0.37662808  1
  V  V12  1  0.37425678  0.75052446  0.62431667  1
  V  V13  1  0.12478351  0.74890747  0.87420410  1
  V  V14  1  0.87282239  0.62286534  0.75175919  1
  V  V15  1  -0.00023685  0.87423569  0.37542344  1
  V  V16  1  0.74860798  0.62121922  0.87141855  1
  V  V17  1  0.12552512  0.37587677  0.75008897  1
  V  V18  1  0.75009209  0.87381848  0.12609808  1
  V  V19  1  0.87328463  0.49927966  0.87382831  1
  V  V20  1  0.74584409  0.24754767  0.50335893  1
  V  V21  1  0.74999715  0.74980274  0.50062292  1
  V  V22  1  0.49933683  0.49407934  -0.00216644  1
  V  V23  1  0.37684633  0.25205363  0.12878723  1
  V  V24  1  0.49926790  0.74892059  0.25034262  1
  V  V25  1  0.25068016  0.49932656  0.74874969  1
  V  V26  1  0.49963979  0.12903387  0.12975256  1
  V  V27  1  0.62461056  0.12598397  0.00194132  1
  V  V28  1  0.25021658  0.62405499  0.37491115  1
  V  V29  1  0.87436035  0.12421094  0.25240164  1
  V  V30  1  0.50168237  0.49887253  0.50154820  1
  V  V31  1  0.12485534  0.87365146  0.74939631  1
  V  V32  1  -0.00027422  0.37437662  0.87572347  1
  V  V33  1  0.62380546  0.62562532  0.50100517  1
  V  V34  1  0.74965533  0.12470159  0.87608321  1
  V  V35  1  0.37541446  0.87584436  -0.00025454  1
  V  V36  1  0.12831917  0.12504496  0.49664318  1
  V  V37  1  -0.00080041  0.12658985  0.62589610  1
  V  V38  1  0.74954379  0.37399735  0.12729711  1
  V  V39  1  0.62180603  0.24625405  0.37729080  1
  V  V40  1  0.75073876  0.74844308  0.00061967  1
  V  V41  1  0.12733574  0.24828839  0.37288531  1
  V  V42  1  0.37491698  0.62577901  0.75006548  1
  V  V43  1  0.12662190  0.24923130  0.87542990  1
  V  V44  1  0.49953659  0.75266255  0.74865946  1
  V  V45  1  0.62345623  0.74940286  0.37499789  1
  V  V46  1  0.49974538  0.62542707  0.62453979  1
  V  V47  1  0.74941590  0.62297242  0.37565335  1
  V  V48  1  0.37246720  0.12782155  0.25170447  1
  V  V49  1  0.87464521  0.87429323  0.00051181  1
  V  V50  1  0.37728675  0.12573508  0.74936030  1
  V  V51  1  0.62533126  0.87880467  0.74719979  1
  V  V52  1  0.24966566  0.74879893  0.49905765  1
  V  V53  1  0.12565074  0.74984487  0.37573465  1
  V  V54  1  0.74967200  0.49852525  0.25191475  1
  V  V55  1  0.87516418  -0.00035182  0.87588851  1
  V  V56  1  0.00039744  0.12351973  0.12498248  1
  V  V57  1  0.37663336  0.75012695  0.12455290  1
  V  V58  1  0.25064194  0.74983642  -0.00035393  1
  V  V59  1  0.00210197  -0.00128658  0.00072403  1
  V  V60  1  0.62479373  0.62525351  0.00028155  1
  V  V61  1  0.25172653  0.00116582  0.74959661  1
  V  V62  1  0.49928778  0.37140703  0.37174687  1
  V  V63  1  0.87283115  0.37309829  0.50155634  1
  V  V64  1  -0.00067876  0.62196020  0.62491120  1
  V  V65  1  0.74600537  0.12359156  0.37993942  1
  V  V66  1  0.00046414  0.24949121  0.75010021  1
  V  V67  1  0.24939446  0.00255309  0.25132940  1
  V  V68  1  0.75052101  0.00054378  0.75034616  1
  V  V69  1  0.87464846  0.24902372  0.12587245  1
  V  V70  1  0.24430622  0.49918106  0.24661172  1
  V  V71  1  0.74986699  0.24933384  0.00100077  1
  V  V72  1  0.12563221  0.00028471  0.62421176  1
  V  V73  1  -0.00033783  0.24946618  0.25103684  1
  V  V74  1  0.37973858  0.49315904  0.87496607  1
  V  V75  1  0.25114752  0.12545725  0.87457643  1
  V  V76  1  0.50101075  0.25717282  0.75398959  1
  V  V77  1  0.87341065  0.49914228  0.37503323  1
  V  V78  1  0.00007727  0.74899661  0.75026759  1
  V  V79  1  0.24991072  0.37438720  0.62448809  1
  V  V80  1  0.25123541  0.24912800  0.00014337  1
  V  V81  1  0.25005487  0.62461587  0.87394018  1
  V  V82  1  -0.00175121  0.37293887  0.37590241  1
  V  V83  1  0.24946846  0.87468837  0.62460191  1
  V  V84  1  0.50021835  0.62471845  0.12463803  1
  V  V85  1  0.50594872  0.00725729  0.50175756  1
  V  V86  1  0.12488618  0.87435337  0.24887471  1
  V  V87  1  0.87437790  0.74917628  0.62514681  1
  V  V88  1  0.62238885  0.37080889  0.25096804  1
  V  V89  1  0.12310849  0.61796016  0.00839505  1
  V  V90  1  0.62060485  0.25735009  0.87595528  1
  V  V91  1  0.50041698  0.87720516  0.87516270  1
  V  V92  1  0.37610738  0.24914216  0.62481105  1
  Zn  Zn93  1  0.12509063  0.50005977  0.62382392  1
  Zn  Zn94  1  0.87523775  0.12529397  0.75062114  1
  Zn  Zn95  1  0.50922842  0.13116484  0.62204014  1
  Zn  Zn96  1  -0.00000173  0.87416096  0.87506548  1
  Zn  Zn97  1  0.37425307  0.62423031  0.24835606  1
  Zn  Zn98  1  0.62494133  0.87444624  0.25011705  1
  Zn  Zn99  1  0.62381723  0.49878427  0.12538598  1
  Zn  Zn100  1  0.24968161  0.87512518  0.12444966  1
  Zn  Zn101  1  0.62243228  0.38622266  0.76160601  1
  Zn  Zn102  1  -0.00246435  0.74551125  0.24824245  1
  Zn  Zn103  1  0.11953649  0.37968295  0.24448500  1
  Zn  Zn104  1  0.75102153  0.87590420  0.62503188  1
  Zn  Zn105  1  0.74949479  -0.00082388  0.25166705  1
  Zn  Zn106  1  0.37522604  0.00216951  0.87550651  1
  Zn  Zn107  1  0.62667840  0.75039323  0.87418469  1
  Zn  Zn108  1  0.63105891  0.50653354  0.63635261  1
  Zn  Zn109  1  0.49863215  0.00161247  -0.00011743  1
  Zn  Zn110  1  0.87983052  0.74559092  0.12657753  1
  Zn  Zn111  1  0.63380143  0.00987963  0.61616161  1
  Zn  Zn112  1  0.37556052  0.37328633  0.49952510  1
  Zn  Zn113  1  0.12473623  0.62242910  0.50066417  1
  Zn  Zn114  1  0.87221551  0.24993124  0.62854742  1
  Zn  Zn115  1  0.12709389  0.12304903  0.00115766  1
  Zn  Zn116  1  0.37889409  0.37178117  -0.00321511  1
  Zn  Zn117  1  0.87517039  0.62696500  0.24833083  1
  Zn  Zn118  1  -0.00006448  -0.00006251  0.50052308  1
  Zn  Zn119  1  0.00603079  0.49380093  0.00771685  1
  Zn  Zn120  1  0.12733741  0.00029564  0.12433579  1
  Zn  Zn121  1  -0.00302697  0.61666124  0.13254702  1
  Zn  Zn122  1  0.18777880  0.18671723  0.18577328  1
  Zn  Zn123  1  0.18820177  0.18818809  0.68633405  1
  Zn  Zn124  1  0.19062164  0.68893964  0.18804321  1
  Zn  Zn125  1  0.18574469  0.68514351  0.68562617  1
  Zn  Zn126  1  0.68785015  0.18775220  0.19220272  1
  Zn  Zn127  1  0.68298484  0.18714794  0.68901552  1
  Zn  Zn128  1  0.68673933  0.68590035  0.18837939  1
  Zn  Zn129  1  0.68691687  0.68948453  0.68863307  1
  Zn  Zn130  1  0.31087024  0.31468861  0.31081864  1
  Zn  Zn131  1  0.31282384  0.31175645  0.81080566  1
  Zn  Zn132  1  0.31258074  0.81343515  0.31184545  1
  Zn  Zn133  1  0.31207554  0.81309749  0.81311193  1
  Zn  Zn134  1  0.81111070  0.31121580  0.31423413  1
  Zn  Zn135  1  0.81320771  0.30948467  0.81317212  1
  Zn  Zn136  1  0.81227341  0.81098562  0.31130196  1
  Zn  Zn137  1  0.81319777  0.81114724  0.81477509  1
  Zn  Zn138  1  0.18568069  0.43591699  0.43586966  1
  Zn  Zn139  1  0.19225260  0.43578813  0.93649897  1
  Zn  Zn140  1  0.18772426  0.93749532  0.43636574  1
  Zn  Zn141  1  0.18754916  0.93697581  0.93458859  1
  Zn  Zn142  1  0.68626954  0.43536805  0.44105316  1
  Zn  Zn143  1  0.68949546  0.44031660  0.94117928  1
  Zn  Zn144  1  0.68811201  0.93398073  0.43583293  1
  Zn  Zn145  1  0.68659562  0.93766368  0.93860660  1
  Zn  Zn146  1  0.31209157  0.06135481  0.06364531  1
  Zn  Zn147  1  0.31475767  0.06478315  0.56393673  1
  Zn  Zn148  1  0.31319783  0.56277877  0.06185549  1
  Zn  Zn149  1  0.31385086  0.56141182  0.56111684  1
  Zn  Zn150  1  0.81324940  0.06150717  0.06287603  1
  Zn  Zn151  1  0.81363068  0.06200742  0.56263524  1
  Zn  Zn152  1  0.81366682  0.56005193  0.06371731  1
  Zn  Zn153  1  0.81397766  0.56172525  0.56149706  1
  Zn  Zn154  1  0.43518147  0.43931903  0.18730329  1
  Zn  Zn155  1  0.43683790  0.43646695  0.68619895  1
  Zn  Zn156  1  0.43882361  0.93789975  0.18741061  1
  Zn  Zn157  1  0.43648227  0.93935275  0.68550400  1
  Zn  Zn158  1  0.93839490  0.44041276  0.18702049  1
  Zn  Zn159  1  0.93442713  0.43605308  0.68811580  1
  Zn  Zn160  1  0.93688925  0.93706193  0.18878813  1
  Zn  Zn161  1  0.93821282  0.93680975  0.68650970  1
  Zn  Zn162  1  0.06082298  0.06158898  0.31383071  1
  Zn  Zn163  1  0.06466163  0.06212170  0.81310010  1
  Zn  Zn164  1  0.06205380  0.56331096  0.31410408  1
  Zn  Zn165  1  0.06136169  0.56083087  0.81605055  1
  Zn  Zn166  1  0.55949946  0.06251776  0.31197270  1
  Zn  Zn167  1  0.56280859  0.06682999  0.81162264  1
  Zn  Zn168  1  0.56276289  0.56127300  0.31184384  1
  Zn  Zn169  1  0.56193341  0.56351681  0.81332891  1
  Zn  Zn170  1  0.43649643  0.18743549  0.43527055  1
  Zn  Zn171  1  0.43816075  0.18722967  0.93890403  1
  Zn  Zn172  1  0.43512517  0.68580372  0.43624060  1
  Zn  Zn173  1  0.43894623  0.68643577  0.93629158  1
  Zn  Zn174  1  0.93594793  0.18744542  0.43986303  1
  Zn  Zn175  1  0.93770470  0.18571201  0.93726689  1
  Zn  Zn176  1  0.93830999  0.68629634  0.43550334  1
  Zn  Zn177  1  0.93810897  0.68830009  0.93959974  1
  Zn  Zn178  1  0.06294711  0.30965707  0.06127527  1
  Zn  Zn179  1  0.06375672  0.31296574  0.56308328  1
  Zn  Zn180  1  0.06153366  0.80784470  0.06525841  1
  Zn  Zn181  1  0.06115266  0.81027996  0.56168230  1
  Zn  Zn182  1  0.56216218  0.31161325  0.06391615  1
  Zn  Zn183  1  0.56395218  0.31262318  0.56400122  1
  Zn  Zn184  1  0.56380119  0.81065846  0.06190740  1
  Zn  Zn185  1  0.56238103  0.81691990  0.56196121  1
  O  O186  1  0.11642545  0.12140906  0.12277544  1
  O  O187  1  0.11814447  0.12112320  0.61712999  1
  O  O188  1  0.13090387  0.62791745  0.10902831  1
  O  O189  1  0.11557696  0.62097264  0.62223827  1
  O  O190  1  0.61848278  0.12125783  0.12371191  1
  O  O191  1  0.62107639  0.12036608  0.62651516  1
  O  O192  1  0.61863397  0.62191142  0.11784068  1
  O  O193  1  0.61766903  0.62617487  0.61885846  1
  O  O194  1  0.38495406  0.37800163  0.37550827  1
  O  O195  1  0.37041598  0.38925836  0.87537351  1
  O  O196  1  0.37971444  0.88459524  0.37942384  1
  O  O197  1  0.38348301  0.87563225  0.88247088  1
  O  O198  1  0.87876874  0.37804555  0.38181248  1
  O  O199  1  0.87812566  0.38059683  0.87964840  1
  O  O200  1  0.87910841  0.88004415  0.38062377  1
  O  O201  1  0.87655227  0.88195331  0.88249423  1
  O  O202  1  0.26234682  -0.00358732  0.36652326  1
  O  O203  1  0.25134272  0.00668153  0.86672596  1
  O  O204  1  0.25574345  0.50239687  0.36889782  1
  O  O205  1  0.26004334  0.50541711  0.86815488  1
  O  O206  1  0.75336084  0.00895922  0.37558520  1
  O  O207  1  0.75411672  0.00463199  0.86938495  1
  O  O208  1  0.75314746  0.50281407  0.37311241  1
  O  O209  1  0.75933934  0.51119168  0.88096851  1
  O  O210  1  0.25987842  0.48881348  0.13395805  1
  O  O211  1  0.25121234  0.49313101  0.63110144  1
  O  O212  1  0.24958562  0.99566384  0.13725040  1
  O  O213  1  0.24554225  0.99453664  0.62926010  1
  O  O214  1  0.74651506  0.48987405  0.13202263  1
  O  O215  1  0.74942312  0.48367561  0.61807336  1
  O  O216  1  0.74082185  0.99284819  0.12509119  1
  O  O217  1  0.75176079  0.99728917  0.63666450  1
  O  O218  1  0.00086194  0.36666279  0.25683768  1
  O  O219  1  0.00522633  0.36932317  0.75600562  1
  O  O220  1  0.01163629  0.87692813  0.25671761  1
  O  O221  1  0.00745597  0.86795750  0.75020003  1
  O  O222  1  0.50870386  0.38172425  0.26216306  1
  O  O223  1  0.50057113  0.36062215  0.74635700  1
  O  O224  1  0.50111252  0.86838000  0.25635623  1
  O  O225  1  0.50578399  0.87389324  0.75571902  1
  O  O226  1  0.48750177  0.11912456  0.23857312  1
  O  O227  1  0.49364624  0.13678954  0.74986940  1
  O  O228  1  0.49819233  0.62987352  0.24359698  1
  O  O229  1  0.49372758  0.63352071  0.74423549  1
  O  O230  1  0.99364117  0.12971449  0.24573784  1
  O  O231  1  1.00232856  0.12957234  0.74018810  1
  O  O232  1  0.99582493  0.62666104  0.25130357  1
  O  O233  1  0.99330466  0.62936380  0.74587963  1
  O  O234  1  0.37054002  0.25126195  0.01059699  1
  O  O235  1  0.36514693  0.24818170  0.50319146  1
  O  O236  1  0.37152916  0.75800856  0.00305993  1
  O  O237  1  0.36996602  0.75605381  0.50469371  1
  O  O238  1  0.86910282  0.25403141  0.00548847  1
  O  O239  1  0.86285359  0.25477386  0.50185499  1
  O  O240  1  0.86796780  0.75748349  0.00161400  1
  O  O241  1  0.86927052  0.75408583  0.50498100  1
  O  O242  1  0.13172611  0.24376381  0.49333736  1
  O  O243  1  0.13304538  0.24710681  0.99242992  1
  O  O244  1  0.13307624  0.74948347  0.49359644  1
  O  O245  1  0.13202036  0.74191800  0.99352409  1
  O  O246  1  0.63508078  0.25553096  0.48864881  1
  O  O247  1  0.62946877  0.24537040  0.99515717  1
  O  O248  1  0.62881180  0.74576391  0.49539990  1
  O  O249  1  0.63163416  0.74331411  0.99670541  1
  O  O250  1  0.48953972  0.24043420  0.12204542  1
  O  O251  1  0.49419318  0.25023779  0.63205505  1
  O  O252  1  0.49616959  0.74471211  0.13000434  1
  O  O253  1  0.49345672  0.74669037  0.62846281  1
  O  O254  1  0.99378556  0.24426950  0.13081089  1
  O  O255  1  1.00107567  0.24098819  0.63060380  1
  O  O256  1  0.99845528  0.74095761  0.12904979  1
  O  O257  1  0.99381463  0.74240218  0.63047725  1
  O  O258  1  0.00612984  0.25335256  0.37125152  1
  O  O259  1  0.00579585  0.25425387  0.87019758  1
  O  O260  1  0.00807828  0.75743209  0.37451767  1
  O  O261  1  0.00606172  0.75098045  0.86761949  1
  O  O262  1  0.50919481  0.26031062  0.38358457  1
  O  O263  1  0.51013165  0.24594091  0.86891322  1
  O  O264  1  0.50334299  0.75426930  0.37114495  1
  O  O265  1  0.50053734  0.76131557  0.86750227  1
  O  O266  1  0.23880326  0.13602340  0.50694449  1
  O  O267  1  0.25036107  0.13042412  0.99390950  1
  O  O268  1  0.25029056  0.63124720  0.49376979  1
  O  O269  1  0.24299968  0.63007548  0.99388939  1
  O  O270  1  0.75471610  0.13373098  0.48966203  1
  O  O271  1  0.74451956  0.13048465  0.99695193  1
  O  O272  1  0.74326371  0.62961889  0.49591512  1
  O  O273  1  0.74435060  0.62889145  0.99208167  1
  O  O274  1  0.25512153  0.36912361  0.00862571  1
  O  O275  1  0.25047094  0.36339415  0.50459747  1
  O  O276  1  0.26033498  0.86977893  -0.00145279  1
  O  O277  1  0.25520062  0.87005743  0.50515751  1
  O  O278  1  0.75518145  0.36827689  0.00740159  1
  O  O279  1  0.75329344  0.36502735  0.50736870  1
  O  O280  1  0.75369563  0.87042665  0.00696197  1
  O  O281  1  0.75634769  0.86769643  0.50189621  1
  O  O282  1  0.14040218  0.49688346  0.25740302  1
  O  O283  1  0.13275402  0.49317772  0.75097401  1
  O  O284  1  0.13434007  0.99307172  0.25403970  1
  O  O285  1  0.13147158  0.99421005  0.74352777  1
  O  O286  1  0.63067032  0.48657975  0.25121609  1
  O  O287  1  0.61945366  0.49687135  0.74768454  1
  O  O288  1  0.62585136  0.99958273  0.23780067  1
  O  O289  1  0.63483430  0.99271466  0.75357988  1
  O  O290  1  0.36861926  0.00536013  0.25619441  1
  O  O291  1  0.36902263  0.00664860  0.75032798  1
  O  O292  1  0.36453084  0.50072005  0.25721504  1
  O  O293  1  0.37233087  0.50590923  0.75640988  1
  O  O294  1  0.87274464  0.00655048  0.25844087  1
  O  O295  1  0.86568134  -0.00092966  0.75632329  1
  O  O296  1  0.86498267  0.49671536  0.25985639  1
  O  O297  1  0.88073663  0.50554336  0.76586549  1
  O  O298  1  0.11715465  0.36154389  0.37442792  1
  O  O299  1  0.12085068  0.36899920  0.87014185  1
  O  O300  1  0.12103988  0.87092376  0.36820615  1
  O  O301  1  0.12414298  0.86704318  0.86690671  1
  O  O302  1  0.61862575  0.36731523  0.36974231  1
  O  O303  1  0.63441192  0.36083539  0.87804243  1
  O  O304  1  0.61793628  0.86722223  0.37279067  1
  O  O305  1  0.61659438  0.87464794  0.86678915  1
  O  O306  1  0.38109150  0.13147229  0.13129379  1
  O  O307  1  0.37912719  0.13249291  0.63183714  1
  O  O308  1  0.38185760  0.63320664  0.12467410  1
  O  O309  1  0.38033005  0.63130715  0.62999793  1
  O  O310  1  0.87915924  0.13026685  0.13139757  1
  O  O311  1  0.88829177  0.12652682  0.62572776  1
  O  O312  1  0.87351986  0.62773742  0.12875777  1
  O  O313  1  0.87850043  0.62917230  0.63166816  1
  O  O314  1  0.25889702  0.25557359  0.12056185  1
  O  O315  1  0.25500577  0.25476609  0.61637642  1
  O  O316  1  0.25886046  0.75369249  0.11772883  1
  O  O317  1  0.25516019  0.75502256  0.61974940  1
  O  O318  1  0.75481592  0.25336104  0.12099898  1
  O  O319  1  0.74885023  0.25736196  0.61698567  1
  O  O320  1  0.74565831  0.76204070  0.11932076  1
  O  O321  1  0.75662751  0.75131268  0.61878028  1
  O  O322  1  0.24037665  0.25531517  0.38426599  1
  O  O323  1  0.24660074  0.24546544  0.88006136  1
  O  O324  1  0.24678455  0.74534755  0.38024738  1
  O  O325  1  0.24579218  0.74414206  0.87917843  1
  O  O326  1  0.74246322  0.24313304  0.38345554  1
  O  O327  1  0.74302339  0.24357331  0.88173406  1
  O  O328  1  0.74307787  0.74388172  0.38176920  1
  O  O329  1  0.75012203  0.73941458  0.88244278  1
  O  O330  1  -0.00023262  0.11429917  0.00576557  1
  O  O331  1  0.01027666  0.12617634  0.50939259  1
  O  O332  1  0.01805558  0.62526957  -0.00280962  1
  O  O333  1  -0.00104862  0.61672813  0.50682836  1
  O  O334  1  0.50514430  0.12318443  0.01226653  1
  O  O335  1  0.49497645  0.10937117  0.49705044  1
  O  O336  1  0.50530958  0.61855411  0.00499635  1
  O  O337  1  0.50360616  0.61797910  0.50417105  1
  O  O338  1  0.50113460  0.38337432  0.49077444  1
  O  O339  1  0.49840846  0.38941654  1.00697144  1
  O  O340  1  0.49205870  0.88350460  0.49369252  1
  O  O341  1  0.49290770  0.87409990  0.99108955  1
  O  O342  1  0.99292470  0.37719029  0.49629229  1
  O  O343  1  0.99299728  0.37140173  0.99291973  1
  O  O344  1  0.99371004  0.87640930  0.49397864  1
  O  O345  1  0.99470369  0.88416647  1.00022249  1
  O  O346  1  0.49631265  0.49206350  0.38292357  1
  O  O347  1  0.48917913  0.50864724  0.88577363  1
  O  O348  1  0.49096297  0.99550578  0.38230918  1
  O  O349  1  0.49908074  0.98896326  0.87671211  1
  O  O350  1  0.99388740  0.49137851  0.38123437  1
  O  O351  1  0.99148317  0.49249906  0.88186967  1
  O  O352  1  0.99307084  0.99357975  0.37864210  1
  O  O353  1  0.99515667  0.99942745  0.88442885  1
  O  O354  1  -0.00075275  0.00469911  0.11560844  1
  O  O355  1  0.00714075  0.00970394  0.62385019  1
  O  O356  1  -0.00021006  0.50224394  0.11923281  1
  O  O357  1  -0.00186509  0.50439075  0.61907323  1
  O  O358  1  0.50830327  0.00873234  0.12344570  1
  O  O359  1  0.49681104  -0.00049105  0.60745490  1
  O  O360  1  0.49945243  0.50661923  0.11634637  1
  O  O361  1  0.49759784  0.50589577  0.61404775  1
  O  O362  1  0.24764327  0.38190413  0.24168672  1
  O  O363  1  0.24509072  0.37952012  0.74428520  1
  O  O364  1  0.24221531  0.88471171  0.25052670  1
  O  O365  1  0.24525131  0.87984074  0.74353318  1
  O  O366  1  0.74154080  0.37803142  0.24753962  1
  O  O367  1  0.74864138  0.36806871  0.73607813  1
  O  O368  1  0.74593144  0.87810556  0.23890122  1
  O  O369  1  0.74155352  0.88275592  0.75228730  1
  O  O370  1  0.26075422  0.11397694  0.24413220  1
  O  O371  1  0.25642030  0.12100566  0.75371481  1
  O  O372  1  0.25180114  0.61599444  0.25529759  1
  O  O373  1  0.25611351  0.61974681  0.75334876  1
  O  O374  1  0.75643616  0.12512140  0.26274791  1
  O  O375  1  0.75097048  0.11494143  0.75703527  1
  O  O376  1  0.74609883  0.61551101  0.25951440  1
  O  O377  1  0.75617236  0.63288771  0.76324447  1
  O  O378  1  0.38200031  0.11548929  0.36286833  1
  O  O379  1  0.36923868  0.12414350  0.86857493  1
  O  O380  1  0.36807910  0.61741615  0.37251298  1
  O  O381  1  0.36940019  0.61847739  0.86882945  1
  O  O382  1  0.86650984  0.12051760  0.37233653  1
  O  O383  1  0.86761382  0.11761064  0.87448116  1
  O  O384  1  0.86542455  0.61599635  0.37698581  1
  O  O385  1  0.86855178  0.61776466  0.87319804  1
  O  O386  1  0.14018530  0.36605349  0.12657606  1
  O  O387  1  0.13186168  0.37589942  0.63246494  1
  O  O388  1  0.12687868  0.87749957  0.13756244  1
  O  O389  1  0.13039941  0.87979928  0.62893001  1
  O  O390  1  0.62940257  0.37221186  0.13627770  1
  O  O391  1  0.63861723  0.37570397  0.62604795  1
  O  O392  1  0.63183119  0.88455031  0.12340161  1
  O  O393  1  0.62546763  0.88255043  0.63684766  1
  O  O394  1  0.11988764  0.24739574  0.26008167  1
  O  O395  1  0.12101558  0.25594377  0.75578119  1
  O  O396  1  0.12952149  0.76186213  0.25734728  1
  O  O397  1  0.12023740  0.75414980  0.75371527  1
  O  O398  1  0.62997015  0.26158065  0.26270684  1
  O  O399  1  0.61724570  0.25268220  0.76129196  1
  O  O400  1  0.61712353  0.75034639  0.25770974  1
  O  O401  1  0.61862696  0.76270869  0.75084028  1
  O  O402  1  0.36620352  0.23892223  0.24087596  1
  O  O403  1  0.38215191  0.24555927  0.74570765  1
  O  O404  1  0.38140237  0.74954977  0.24324156  1
  O  O405  1  0.37924985  0.74635276  0.74356676  1
  O  O406  1  0.87979854  0.24431289  0.24611873  1
  O  O407  1  0.88416027  0.24511990  0.74856356  1
  O  O408  1  0.87733851  0.74741140  0.24676336  1
  O  O409  1  0.88044531  0.74412268  0.74534269  1
  O  O410  1  0.38599458  0.49743845  0.49323307  1
  O  O411  1  0.38223035  0.49980416  0.99136936  1
  O  O412  1  0.37956999  0.99671824  0.49154641  1
  O  O413  1  0.37697647  0.98820123  0.99870552  1
  O  O414  1  0.88007802  0.49216644  0.49401850  1
  O  O415  1  0.87429110  0.49147440  0.98830774  1
  O  O416  1  0.87629132  0.99258609  0.49417749  1
  O  O417  1  0.88265739  0.99480203  0.99566037  1
  O  O418  1  0.11456928  -0.00052881  0.00104175  1
  O  O419  1  0.12657806  0.00996435  0.50433599  1
  O  O420  1  0.12941755  0.51543755  -0.00776019  1
  O  O421  1  0.11583540  0.50002272  0.50169006  1
  O  O422  1  0.62414202  0.00708240  0.01125016  1
  O  O423  1  0.60866055  -0.00666986  0.49679956  1
  O  O424  1  0.61533335  0.50595182  0.00092877  1
  O  O425  1  0.61405118  0.50604943  0.50157651  1
  O  O426  1  0.36830949  0.36361433  0.12728556  1
  O  O427  1  0.36812108  0.36674187  0.62157462  1
  O  O428  1  0.37738381  0.86963801  0.11377298  1
  O  O429  1  0.36877123  0.86966286  0.61969042  1
  O  O430  1  0.86872092  0.36687261  0.12058817  1
  O  O431  1  0.86237264  0.37185689  0.62074157  1
  O  O432  1  0.86249882  0.87790711  0.11906541  1
  O  O433  1  0.87482929  0.86692645  0.61882979  1
  O  O434  1  0.11761000  0.13567214  0.38620299  1
  O  O435  1  0.13328009  0.13194402  0.87563851  1
  O  O436  1  0.13322631  0.63264192  0.37803440  1
  O  O437  1  0.13227418  0.63108879  0.88022350  1
  O  O438  1  0.63293288  0.13493052  0.36642629  1
  O  O439  1  0.63026270  0.13374317  0.88250597  1
  O  O440  1  0.62851965  0.62974954  0.38227933  1
  O  O441  1  0.63369580  0.62744262  0.88061783  1
