# generated using pymatgen
data_V93Zn93O256
_symmetry_space_group_name_H-M   'P 1'
_cell_length_a   17.04092239
_cell_length_b   17.03819242
_cell_length_c   17.03891526
_cell_angle_alpha   90.08519786
_cell_angle_beta   90.00358345
_cell_angle_gamma   89.94556382
_symmetry_Int_Tables_number   1
_chemical_formula_structural   V93Zn93O256
_chemical_formula_sum   'V93 Zn93 O256'
_cell_volume   4947.18194735
_cell_formula_units_Z   1
loop_
 _symmetry_equiv_pos_site_id
 _symmetry_equiv_pos_as_xyz
  1  'x, y, z'
loop_
 _atom_site_type_symbol
 _atom_site_label
 _atom_site_symmetry_multiplicity
 _atom_site_fract_x
 _atom_site_fract_y
 _atom_site_fract_z
 _atom_site_occupancy
  V  V0  1  0.49440136  0.88350446  0.37601143  1
  V  V1  1  -0.00049215  -0.00299063  -0.00393877  1
  V  V2  1  0.12579255  0.37266994  0.74858307  1
  V  V3  1  0.12544168  0.49997144  0.12482960  1
  V  V4  1  0.37668998  0.49850434  0.87445090  1
  V  V5  1  0.36953113  0.75584672  0.62543539  1
  V  V6  1  0.75129160  0.37531669  0.12508147  1
  V  V7  1  -0.00170342  0.62961311  0.62935648  1
  V  V8  1  0.00029844  0.24919275  0.24938050  1
  V  V9  1  0.24959261  0.62391728  0.87670333  1
  V  V10  1  0.74746850  0.62827154  0.37828382  1
  V  V11  1  0.75075915  -0.00405575  0.74348517  1
  V  V12  1  0.62199623  0.12754401  0.50561802  1
  V  V13  1  0.00274025  0.11879630  0.62252222  1
  V  V14  1  0.86634845  0.87972315  0.50421635  1
  V  V15  1  0.87767564  0.62962327  0.75230133  1
  V  V16  1  0.37507412  -0.00055772  0.87448732  1
  V  V17  1  0.87517848  0.37479491  0.50068973  1
  V  V18  1  0.12549859  0.37491771  0.24915964  1
  V  V19  1  0.25335883  0.00125025  0.25535271  1
  V  V20  1  0.37434788  0.50197370  0.37578296  1
  V  V21  1  0.12677353  -0.00041437  0.12386514  1
  V  V22  1  0.24822804  0.74779438  -0.00009908  1
  V  V23  1  0.74963384  0.12087229  0.37188622  1
  V  V24  1  0.50018855  0.74984666  0.75063219  1
  V  V25  1  0.62937929  0.87453609  0.74305336  1
  V  V26  1  -0.00004429  0.62452106  0.12531527  1
  V  V27  1  0.87582832  0.12276519  0.74968379  1
  V  V28  1  0.87565448  0.25013775  0.62378948  1
  V  V29  1  0.00231478  0.24741523  0.74907158  1
  V  V30  1  0.37425292  0.62640783  0.25155524  1
  V  V31  1  0.87571255  0.49892475  0.87508492  1
  V  V32  1  -0.00011054  0.12465545  0.12357458  1
  V  V33  1  0.62548689  0.75021212  0.87682735  1
  V  V34  1  0.75138489  0.37570424  0.62497155  1
  V  V35  1  -0.00044465  0.50129771  0.50099041  1
  V  V36  1  0.62524748  0.50185229  0.12562938  1
  V  V37  1  0.13075534  0.86736266  0.74344446  1
  V  V38  1  0.37562595  0.12198873  0.25555400  1
  V  V39  1  0.50124239  0.37384684  0.87400340  1
  V  V40  1  0.24921693  0.87597626  0.12469469  1
  V  V41  1  0.87380071  0.62633649  0.25203820  1
  V  V42  1  0.49811725  0.50092669  0.50050184  1
  V  V43  1  0.00082207  0.49912018  0.00059025  1
  V  V44  1  0.75049414  0.87796021  0.12944319  1
  V  V45  1  0.25268157  0.12190096  0.86783091  1
  V  V46  1  0.86758317  0.75245873  0.62680413  1
  V  V47  1  0.62470873  0.50003551  0.62683028  1
  V  V48  1  0.37365703  0.75065821  0.12624265  1
  V  V49  1  0.74892285  0.75052898  0.00220476  1
  V  V50  1  0.74987463  0.50070145  0.25163609  1
  V  V51  1  0.50107116  0.25127445  0.24982274  1
  V  V52  1  0.37672524  0.24937409  0.12334612  1
  V  V53  1  -0.00056058  0.75131393  0.25127040  1
  V  V54  1  0.37203603  0.88187922  0.49884610  1
  V  V55  1  0.62491262  0.37590402  0.25030848  1
  V  V56  1  0.25039262  0.49967752  0.74913735  1
  V  V57  1  0.75118911  0.12378402  0.87485890  1
  V  V58  1  0.25190289  0.24869960  -0.00224686  1
  V  V59  1  0.50011102  0.87485004  0.87567661  1
  V  V60  1  -0.00026432  0.86606903  0.86806084  1
  V  V61  1  0.24746438  0.75498021  0.50331002  1
  V  V62  1  0.12388910  0.50042809  0.62450451  1
  V  V63  1  0.12511020  0.12460264  0.49615083  1
  V  V64  1  0.37491656  0.87408971  -0.00017588  1
  V  V65  1  0.87450448  0.50124194  0.37613469  1
  V  V66  1  0.87141757  0.11848131  0.24973598  1
  V  V67  1  0.50115402  0.24246944  0.74554205  1
  V  V68  1  0.87593242  0.37292143  0.00011536  1
  V  V69  1  0.62617620  0.24945737  0.87464221  1
  V  V70  1  0.37668844  0.37442334  -0.00172242  1
  V  V71  1  0.50030191  0.62617360  0.12639813  1
  V  V72  1  0.62851943  0.00122783  0.12784077  1
  V  V73  1  0.87408905  0.75072405  0.12648931  1
  V  V74  1  0.12222244  0.75218896  0.37465827  1
  V  V75  1  0.00063963  0.37576233  0.37425127  1
  V  V76  1  0.24993809  0.62652314  0.37530731  1
  V  V77  1  0.49860147  0.75364325  0.25236316  1
  V  V78  1  0.62645875  0.87982939  0.25295249  1
  V  V79  1  0.49822668  0.00535297  0.50717880  1
  V  V80  1  0.62517279  0.62589038  0.00197605  1
  V  V81  1  0.25247994  0.37303902  0.62083437  1
  V  V82  1  0.12608866  0.12389965  -0.00314032  1
  V  V83  1  0.37950538  0.24304872  0.62311500  1
  V  V84  1  0.62723183  0.12506449  0.00061476  1
  V  V85  1  0.49872395  0.62452704  0.62561631  1
  V  V86  1  0.12717039  0.24810212  0.87175174  1
  V  V87  1  0.75069041  0.49951076  0.75077681  1
  V  V88  1  0.50198282  0.12520152  0.12448193  1
  V  V89  1  0.25067814  0.37469363  0.12449598  1
  V  V90  1  0.37463878  0.62486219  0.75017344  1
  V  V91  1  0.49998662  0.37768955  0.37365484  1
  V  V92  1  0.62436886  0.62752537  0.50080696  1
  Zn  Zn93  1  0.62388593  0.75452676  0.37984122  1
  Zn  Zn94  1  0.75218213  0.24885008  0.00007931  1
  Zn  Zn95  1  0.38103636  0.11776862  0.74127362  1
  Zn  Zn96  1  0.25000894  0.49987198  0.25050762  1
  Zn  Zn97  1  0.87339353  -0.00255390  0.37138007  1
  Zn  Zn98  1  0.12300946  0.87788434  0.25046713  1
  Zn  Zn99  1  0.62570305  0.37424531  0.74991001  1
  Zn  Zn100  1  0.62274635  0.00405377  0.62673508  1
  Zn  Zn101  1  0.25147967  0.12556830  0.37483894  1
  Zn  Zn102  1  0.87505500  0.87386054  -0.00097650  1
  Zn  Zn103  1  0.74330970  0.75701735  0.50430178  1
  Zn  Zn104  1  0.87461961  -0.00195285  0.87408504  1
  Zn  Zn105  1  0.25394722  -0.00965559  0.74040779  1
  Zn  Zn106  1  0.87379912  0.24870752  0.12392187  1
  Zn  Zn107  1  0.74994574  0.62464583  0.87657363  1
  Zn  Zn108  1  -0.00374688  0.87789801  0.37499086  1
  Zn  Zn109  1  0.74834129  0.25080810  0.49847645  1
  Zn  Zn110  1  0.50108422  -0.00022198  0.00024808  1
  Zn  Zn111  1  0.50118575  0.50012853  0.00004723  1
  Zn  Zn112  1  0.13328750  -0.00875285  0.62149714  1
  Zn  Zn113  1  0.37561319  0.37348365  0.49739434  1
  Zn  Zn114  1  0.25296133  0.24821173  0.49490947  1
  Zn  Zn115  1  0.00214780  0.37327172  0.87414752  1
  Zn  Zn116  1  0.12399695  0.62464853  -0.00118319  1
  Zn  Zn117  1  0.12907162  0.25088606  0.37551628  1
  Zn  Zn118  1  0.12282216  0.62695208  0.50134591  1
  Zn  Zn119  1  0.00205123  -0.00409203  0.49559823  1
  Zn  Zn120  1  0.12116602  0.74381140  0.87294210  1
  Zn  Zn121  1  0.62658785  0.25146394  0.37557808  1
  Zn  Zn122  1  0.18830518  0.18661895  0.18569069  1
  Zn  Zn123  1  0.18983513  0.18521227  0.68199448  1
  Zn  Zn124  1  0.18641717  0.68717852  0.18833113  1
  Zn  Zn125  1  0.18536339  0.68787200  0.68997763  1
  Zn  Zn126  1  0.68971293  0.19097104  0.18777154  1
  Zn  Zn127  1  0.69011869  0.18817533  0.68798319  1
  Zn  Zn128  1  0.68616048  0.69108726  0.19087816  1
  Zn  Zn129  1  0.68861620  0.68595306  0.68963470  1
  Zn  Zn130  1  0.31300943  0.31133042  0.31199076  1
  Zn  Zn131  1  0.31569517  0.31083590  0.80834981  1
  Zn  Zn132  1  0.31003835  0.81521117  0.31403049  1
  Zn  Zn133  1  0.31108331  0.80986247  0.81490147  1
  Zn  Zn134  1  0.81273099  0.30893886  0.31372637  1
  Zn  Zn135  1  0.81306478  0.31114043  0.81164947  1
  Zn  Zn136  1  0.80982591  0.81304476  0.31654298  1
  Zn  Zn137  1  0.81191729  0.81212068  0.81424481  1
  Zn  Zn138  1  0.18597709  0.43928810  0.43704422  1
  Zn  Zn139  1  0.18797213  0.43688098  0.93740833  1
  Zn  Zn140  1  0.18579117  0.93868940  0.43862426  1
  Zn  Zn141  1  0.18636510  0.93431056  0.93326051  1
  Zn  Zn142  1  0.68652543  0.43965268  0.43950824  1
  Zn  Zn143  1  0.68809167  0.43761010  0.93747455  1
  Zn  Zn144  1  0.68626766  0.94388141  0.43856528  1
  Zn  Zn145  1  0.68838097  0.93795593  0.93695157  1
  Zn  Zn146  1  0.31339028  0.06240773  0.06220327  1
  Zn  Zn147  1  0.30731229  0.06145201  0.56122497  1
  Zn  Zn148  1  0.31313839  0.56111405  0.06258004  1
  Zn  Zn149  1  0.31144130  0.56501113  0.56133061  1
  Zn  Zn150  1  0.81377449  0.06153147  0.06308922  1
  Zn  Zn151  1  0.80870480  0.06537027  0.56155375  1
  Zn  Zn152  1  0.81280389  0.56222780  0.06267722  1
  Zn  Zn153  1  0.81127051  0.56411596  0.56349018  1
  Zn  Zn154  1  0.43682712  0.43973182  0.18748848  1
  Zn  Zn155  1  0.43856836  0.43302308  0.68831515  1
  Zn  Zn156  1  0.43811302  0.93985084  0.18614939  1
  Zn  Zn157  1  0.43906861  0.93625589  0.68693399  1
  Zn  Zn158  1  0.93741072  0.43800955  0.18742145  1
  Zn  Zn159  1  0.93831588  0.43824868  0.68903169  1
  Zn  Zn160  1  0.93966753  0.93677448  0.18697699  1
  Zn  Zn161  1  0.93838146  0.93623969  0.68661325  1
  Zn  Zn162  1  0.06047525  0.05982873  0.31350359  1
  Zn  Zn163  1  0.06549546  0.05509741  0.80842050  1
  Zn  Zn164  1  0.06318209  0.56398938  0.31216851  1
  Zn  Zn165  1  0.06220559  0.55986591  0.81369291  1
  Zn  Zn166  1  0.56230473  0.06422449  0.31623996  1
  Zn  Zn167  1  0.56473911  0.06095137  0.81320554  1
  Zn  Zn168  1  0.56192494  0.56433903  0.31370006  1
  Zn  Zn169  1  0.56330558  0.56263735  0.81368281  1
  Zn  Zn170  1  0.43964342  0.19077772  0.43696060  1
  Zn  Zn171  1  0.44073840  0.18608221  0.93556196  1
  Zn  Zn172  1  0.43772457  0.69146906  0.43760755  1
  Zn  Zn173  1  0.43745445  0.68680622  0.93882476  1
  Zn  Zn174  1  0.93783077  0.18769801  0.43579714  1
  Zn  Zn175  1  0.93843097  0.18681090  0.93466160  1
  Zn  Zn176  1  0.93495941  0.69090603  0.44212815  1
  Zn  Zn177  1  0.93505301  0.68655159  0.94094739  1
  Zn  Zn178  1  0.06388740  0.31121516  0.06234550  1
  Zn  Zn179  1  0.06248821  0.30941706  0.56135281  1
  Zn  Zn180  1  0.06393675  0.81162206  0.06144961  1
  Zn  Zn181  1  0.05346376  0.81163306  0.56097503  1
  Zn  Zn182  1  0.56426766  0.31299800  0.06149727  1
  Zn  Zn183  1  0.56291949  0.31376072  0.56144001  1
  Zn  Zn184  1  0.56129181  0.81317037  0.06354456  1
  Zn  Zn185  1  0.55738088  0.81302817  0.56282622  1
  O  O186  1  0.12021520  0.11955222  0.11597588  1
  O  O187  1  0.11511215  0.12641238  0.61566833  1
  O  O188  1  0.11754574  0.61828570  0.12478003  1
  O  O189  1  0.11460465  0.62011649  0.62659285  1
  O  O190  1  0.62321959  0.11780739  0.12289151  1
  O  O191  1  0.63024891  0.12628578  0.60979846  1
  O  O192  1  0.61996579  0.62195757  0.12284009  1
  O  O193  1  0.61760214  0.62039432  0.62200180  1
  O  O194  1  0.38140209  0.38362397  0.37438601  1
  O  O195  1  0.37980775  0.37887369  0.87884084  1
  O  O196  1  0.38344568  0.87005602  0.38677139  1
  O  O197  1  0.37945438  0.88119314  0.87929655  1
  O  O198  1  0.88066690  0.38177432  0.37968102  1
  O  O199  1  0.87745702  0.37947401  0.88417163  1
  O  O200  1  0.87308552  0.87589990  0.38904391  1
  O  O201  1  0.88820306  0.87646255  0.87660795  1
  O  O202  1  0.24493816  0.00127035  0.35851922  1
  O  O203  1  0.25934543  0.00626736  0.87397059  1
  O  O204  1  0.25552973  0.50840706  0.37467838  1
  O  O205  1  0.25663828  0.50340764  0.86863036  1
  O  O206  1  0.75358350  0.01574360  0.37730083  1
  O  O207  1  0.75222821  0.00560510  0.86575875  1
  O  O208  1  0.75541420  0.50702538  0.37045847  1
  O  O209  1  0.75765067  0.50183270  0.86929027  1
  O  O210  1  0.24464098  0.49237803  0.12617918  1
  O  O211  1  0.24558735  0.49396225  0.62936848  1
  O  O212  1  0.24525220  0.99545787  0.12967450  1
  O  O213  1  0.24595225  1.00157572  0.62952426  1
  O  O214  1  0.74543527  0.49574776  0.13248578  1
  O  O215  1  0.74504094  0.49562734  0.63108274  1
  O  O216  1  0.73977082  0.99014898  0.12131420  1
  O  O217  1  0.74667610  1.00487141  0.64039093  1
  O  O218  1  0.00407597  0.36778461  0.25333057  1
  O  O219  1  0.00782297  0.36643814  0.74937340  1
  O  O220  1  0.00182851  0.86625309  0.25303703  1
  O  O221  1  0.00538206  0.87714625  0.76421531  1
  O  O222  1  0.50514288  0.37156286  0.25340292  1
  O  O223  1  0.50233946  0.36409367  0.75723003  1
  O  O224  1  0.50383826  0.87402918  0.25798728  1
  O  O225  1  0.50767097  0.86873781  0.75655943  1
  O  O226  1  0.49446266  0.12926483  0.24413615  1
  O  O227  1  0.50024901  0.13745972  0.75387354  1
  O  O228  1  0.49466577  0.63360650  0.24621200  1
  O  O229  1  0.49386865  0.63099272  0.74583532  1
  O  O230  1  0.99403917  0.13272072  0.24385694  1
  O  O231  1  0.99756544  0.12721537  0.74189805  1
  O  O232  1  0.99281867  0.63084949  0.24505881  1
  O  O233  1  0.98819003  0.61666249  0.74115756  1
  O  O234  1  0.37148116  0.25421266  0.00365826  1
  O  O235  1  0.37514843  0.25382012  0.50880064  1
  O  O236  1  0.36907930  0.75444586  0.00701076  1
  O  O237  1  0.36778660  0.75805957  0.50738398  1
  O  O238  1  0.87640465  0.26108929  0.00059969  1
  O  O239  1  0.87633226  0.25820825  0.50659819  1
  O  O240  1  0.86760788  0.75193561  0.00955972  1
  O  O241  1  0.86972214  0.76061762  0.50846050  1
  O  O242  1  0.12671773  0.23876645  0.49814592  1
  O  O243  1  0.13164130  0.24401608  0.99281932  1
  O  O244  1  0.13174228  0.75042318  0.49423306  1
  O  O245  1  0.13423207  0.74615888  0.99745070  1
  O  O246  1  0.62427756  0.24166655  0.49586291  1
  O  O247  1  0.62778731  0.24290232  0.99326745  1
  O  O248  1  0.62448581  0.74424326  0.50116163  1
  O  O249  1  0.62922795  0.74567710  0.99725741  1
  O  O250  1  0.49648952  0.24514673  0.13023685  1
  O  O251  1  0.49045774  0.25916936  0.63427496  1
  O  O252  1  0.49304570  0.74679183  0.13217391  1
  O  O253  1  0.48911199  0.74403373  0.63105999  1
  O  O254  1  1.00015578  0.24313088  0.13261381  1
  O  O255  1  0.99533820  0.24033230  0.63036854  1
  O  O256  1  0.99402612  0.74529039  0.13043282  1
  O  O257  1  0.98692625  0.73527318  0.62106892  1
  O  O258  1  0.00161862  0.25704113  0.36406008  1
  O  O259  1  0.00984300  0.24892768  0.86695003  1
  O  O260  1  0.00832400  0.74780729  0.37057488  1
  O  O261  1  -0.00003900  0.76336609  0.88348563  1
  O  O262  1  0.50126480  0.25996193  0.36620320  1
  O  O263  1  0.50563418  0.25411565  0.86631177  1
  O  O264  1  0.50185804  0.76381907  0.37087949  1
  O  O265  1  0.50436096  0.75454664  0.86944454  1
  O  O266  1  0.23865149  0.12619895  0.49482731  1
  O  O267  1  0.24620442  0.12908203  0.98947744  1
  O  O268  1  0.24852209  0.63829285  0.49428139  1
  O  O269  1  0.25011479  0.62996077  0.99472377  1
  O  O270  1  0.74119106  0.12790209  0.49144606  1
  O  O271  1  0.74573846  0.12532100  0.99370869  1
  O  O272  1  0.74160915  0.62503400  0.49474240  1
  O  O273  1  0.74345471  0.63216714  1.00094299  1
  O  O274  1  0.25663382  0.36770932  0.00386303  1
  O  O275  1  0.25011958  0.37493926  0.51178718  1
  O  O276  1  0.25560953  0.86893165  0.00412999  1
  O  O277  1  0.25870370  0.86408163  0.49287069  1
  O  O278  1  0.76131720  0.37554529  0.00573383  1
  O  O279  1  0.75730568  0.37586845  0.50664815  1
  O  O280  1  0.75008713  0.86963465  0.01190223  1
  O  O281  1  0.76108800  0.87684702  0.49938779  1
  O  O282  1  0.12554012  0.49312379  0.24298545  1
  O  O283  1  0.13089530  0.49313714  0.74366118  1
  O  O284  1  0.13413258  1.00110282  0.24111674  1
  O  O285  1  0.12765410  0.98190673  0.74790516  1
  O  O286  1  0.63068328  0.49634230  0.24472057  1
  O  O287  1  0.63195776  0.49953017  0.74427290  1
  O  O288  1  0.61797122  0.99002945  0.24019233  1
  O  O289  1  0.63150007  0.99174871  0.74909577  1
  O  O290  1  0.36569409  0.01095800  0.24028263  1
  O  O291  1  0.37542447  -0.00073043  0.76090013  1
  O  O292  1  0.37362413  0.50889558  0.25710514  1
  O  O293  1  0.36998583  0.50485101  0.75412125  1
  O  O294  1  0.88024460  0.01507663  0.24825344  1
  O  O295  1  0.86728369  0.00397626  0.75033600  1
  O  O296  1  0.86984810  0.50633383  0.25626371  1
  O  O297  1  0.87058332  0.50758729  0.75532774  1
  O  O298  1  0.11754346  0.37550700  0.36741309  1
  O  O299  1  0.12714048  0.36644576  0.86679512  1
  O  O300  1  0.12356980  0.86141342  0.37415103  1
  O  O301  1  0.11288165  0.87180851  0.86751664  1
  O  O302  1  0.61851732  0.37788187  0.36741093  1
  O  O303  1  0.61971918  0.36791345  0.87413699  1
  O  O304  1  0.61750416  0.87821545  0.36691171  1
  O  O305  1  0.61891913  0.86937500  0.86816032  1
  O  O306  1  0.38171277  0.13087488  0.12970858  1
  O  O307  1  0.36952241  0.13918282  0.62456198  1
  O  O308  1  0.37988712  0.63099100  0.13131545  1
  O  O309  1  0.37907581  0.63408468  0.63066220  1
  O  O310  1  0.88114575  0.12698461  0.13174509  1
  O  O311  1  0.88341938  0.12943565  0.62909832  1
  O  O312  1  0.87917077  0.63025835  0.13252357  1
  O  O313  1  0.88017081  0.62973328  0.63333019  1
  O  O314  1  0.25626173  0.25397945  0.11686561  1
  O  O315  1  0.25924499  0.25952595  0.62450008  1
  O  O316  1  0.25508434  0.75550862  0.12066886  1
  O  O317  1  0.25921812  0.74326583  0.61563846  1
  O  O318  1  0.75357571  0.26024119  0.12090988  1
  O  O319  1  0.75883053  0.25743188  0.62353008  1
  O  O320  1  0.75344979  0.75913699  0.12211998  1
  O  O321  1  0.76272967  0.74395744  0.62340923  1
  O  O322  1  0.24671135  0.24571055  0.37634403  1
  O  O323  1  0.24800783  0.24114714  0.87803246  1
  O  O324  1  0.24201283  0.74649062  0.38256507  1
  O  O325  1  0.25160533  0.74058840  0.88380864  1
  O  O326  1  0.74764915  0.24010171  0.37844496  1
  O  O327  1  0.74404909  0.24190918  0.87487988  1
  O  O328  1  0.74404935  0.74209394  0.37920688  1
  O  O329  1  0.74333223  0.74910873  0.88428484  1
  O  O330  1  0.00597058  0.11626189  0.00177818  1
  O  O331  1  0.00538173  0.12396510  0.50840285  1
  O  O332  1  -0.00068619  0.61704869  0.00796417  1
  O  O333  1  -0.00182518  0.61880091  0.51120245  1
  O  O334  1  0.50856850  0.12387030  0.00705024  1
  O  O335  1  0.50891460  0.11415868  0.48836899  1
  O  O336  1  0.50668172  0.62505827  0.00867365  1
  O  O337  1  0.50347164  0.62117244  0.50617041  1
  O  O338  1  0.49958061  0.38451326  0.49250903  1
  O  O339  1  0.49381519  0.37544149  0.99275546  1
  O  O340  1  0.49253656  0.88312314  0.49403853  1
  O  O341  1  0.49290190  0.87513231  0.99351810  1
  O  O342  1  0.99534376  0.38132808  0.49513933  1
  O  O343  1  0.99180543  0.37987981  0.99934980  1
  O  O344  1  0.98516774  0.87599995  0.49643948  1
  O  O345  1  1.00155433  0.88347099  0.99140305  1
  O  O346  1  0.49370287  0.49739817  0.38021789  1
  O  O347  1  0.49380778  0.49297452  0.87544865  1
  O  O348  1  0.50256309  0.98870514  0.38478050  1
  O  O349  1  0.49101422  0.99447163  0.87693872  1
  O  O350  1  0.99391495  0.49637202  0.37993182  1
  O  O351  1  0.99382039  0.49563978  0.88167550  1
  O  O352  1  0.99180197  0.99637904  0.37789693  1
  O  O353  1  1.00006668  0.99054618  0.88326248  1
  O  O354  1  0.00635094  0.00377811  0.11475586  1
  O  O355  1  0.00322560  0.01175416  0.62431292  1
  O  O356  1  0.00511084  0.50540613  0.12087187  1
  O  O357  1  0.00399195  0.50767241  0.62053099  1
  O  O358  1  0.51108701  0.00561093  0.12225981  1
  O  O359  1  0.50116246  -0.00208691  0.61204435  1
  O  O360  1  0.50697492  0.50847541  0.12481498  1
  O  O361  1  0.50331593  0.50561849  0.62198542  1
  O  O362  1  0.24397227  0.37524489  0.24141236  1
  O  O363  1  0.24624646  0.37949396  0.73977539  1
  O  O364  1  0.24998745  0.88452239  0.24292728  1
  O  O365  1  0.23511434  0.87286006  0.75726081  1
  O  O366  1  0.74614244  0.38116531  0.24597193  1
  O  O367  1  0.75087804  0.38202775  0.74286186  1
  O  O368  1  0.73898818  0.87021318  0.24032233  1
  O  O369  1  0.74024762  0.88373236  0.75798830  1
  O  O370  1  0.25899782  0.11795245  0.24689231  1
  O  O371  1  0.25263457  0.12419677  0.76217063  1
  O  O372  1  0.25696095  0.62505144  0.25728795  1
  O  O373  1  0.25589579  0.61904154  0.75511453  1
  O  O374  1  0.76163875  0.13433398  0.25753181  1
  O  O375  1  0.75553700  0.11694167  0.75556513  1
  O  O376  1  0.75399434  0.62062974  0.25674722  1
  O  O377  1  0.76063741  0.61757874  0.75300826  1
  O  O378  1  0.37645593  0.12961991  0.35803816  1
  O  O379  1  0.36841581  0.11555945  0.87484374  1
  O  O380  1  0.37047295  0.62290380  0.37076929  1
  O  O381  1  0.37101908  0.61914236  0.86896675  1
  O  O382  1  0.86819251  0.12535317  0.36677757  1
  O  O383  1  0.87007871  0.12255181  0.86706833  1
  O  O384  1  0.86887759  0.62087631  0.37143118  1
  O  O385  1  0.87529273  0.61922985  0.86754310  1
  O  O386  1  0.13113941  0.37952596  0.12908277  1
  O  O387  1  0.13324593  0.37903553  0.62893897  1
  O  O388  1  0.13204898  0.88176034  0.12573467  1
  O  O389  1  0.11303896  0.86992367  0.64073375  1
  O  O390  1  0.63079884  0.38189969  0.13011356  1
  O  O391  1  0.63257085  0.38295009  0.62589288  1
  O  O392  1  0.63010615  0.88195826  0.13236710  1
  O  O393  1  0.61830665  0.87409226  0.64093940  1
  O  O394  1  0.11427456  0.25461844  0.24764743  1
  O  O395  1  0.12222309  0.25279089  0.75251705  1
  O  O396  1  0.11906330  0.75123838  0.25933742  1
  O  O397  1  0.12629257  0.76103460  0.75491442  1
  O  O398  1  0.61784979  0.25841814  0.25019272  1
  O  O399  1  0.61799657  0.25080698  0.75513379  1
  O  O400  1  0.61641052  0.76476654  0.25048589  1
  O  O401  1  0.62095815  0.75559673  0.75604149  1
  O  O402  1  0.38121192  0.24236428  0.24128881  1
  O  O403  1  0.38449668  0.24644136  0.74169695  1
  O  O404  1  0.37890625  0.74696338  0.24582611  1
  O  O405  1  0.37886772  0.74613401  0.74305288  1
  O  O406  1  0.88733814  0.24383349  0.24753757  1
  O  O407  1  0.88215822  0.24277623  0.74399831  1
  O  O408  1  0.87846217  0.74510316  0.24596058  1
  O  O409  1  0.86879110  0.73775548  0.74435501  1
  O  O410  1  0.38084562  0.50012080  0.49410143  1
  O  O411  1  0.37746858  0.49249715  0.99275323  1
  O  O412  1  0.38133307  0.98865897  0.50566545  1
  O  O413  1  0.37588840  0.99333872  0.99012796  1
  O  O414  1  0.87990587  0.49507786  0.49543015  1
  O  O415  1  0.88025746  0.49190674  0.99604788  1
  O  O416  1  0.87467665  0.98633585  0.50613821  1
  O  O417  1  0.88786605  0.99681982  0.99876350  1
  O  O418  1  0.11818129  0.00410012  0.00227559  1
  O  O419  1  0.12210953  0.00926980  0.50260959  1
  O  O420  1  0.11855757  0.49914898  0.00685967  1
  O  O421  1  0.11786216  0.50386074  0.50710441  1
  O  O422  1  0.62399090  0.00527341  0.01056008  1
  O  O423  1  0.61637761  0.00778154  0.50431138  1
  O  O424  1  0.62460532  0.50719436  0.00782578  1
  O  O425  1  0.61766172  0.50751670  0.50757483  1
  O  O426  1  0.37127475  0.36911408  0.11905670  1
  O  O427  1  0.36532678  0.36802199  0.62399434  1
  O  O428  1  0.37003156  0.87007254  0.11967108  1
  O  O429  1  0.38068298  0.86242107  0.61582688  1
  O  O430  1  0.87030581  0.37587902  0.11567109  1
  O  O431  1  0.87179030  0.37081350  0.62021238  1
  O  O432  1  0.86459422  0.87044456  0.12652123  1
  O  O433  1  0.88168180  0.86396093  0.61607052  1
  O  O434  1  0.12260941  0.12692011  0.38534223  1
  O  O435  1  0.13433259  0.12726942  0.87707433  1
  O  O436  1  0.12957766  0.63603374  0.37724737  1
  O  O437  1  0.13266492  0.62474394  0.87689635  1
  O  O438  1  0.63307316  0.12676753  0.38161095  1
  O  O439  1  0.63117432  0.12887923  0.88120177  1
  O  O440  1  0.62921669  0.62729081  0.38262650  1
  O  O441  1  0.62587474  0.63255283  0.88269489  1
