# generated using pymatgen
data_V93Zn93O256
_symmetry_space_group_name_H-M   'P 1'
_cell_length_a   17.05110887
_cell_length_b   17.05024604
_cell_length_c   17.04838947
_cell_angle_alpha   90.05133161
_cell_angle_beta   90.06726318
_cell_angle_gamma   90.00421604
_symmetry_Int_Tables_number   1
_chemical_formula_structural   V93Zn93O256
_chemical_formula_sum   'V93 Zn93 O256'
_cell_volume   4956.39786582
_cell_formula_units_Z   1
loop_
 _symmetry_equiv_pos_site_id
 _symmetry_equiv_pos_as_xyz
  1  'x, y, z'
loop_
 _atom_site_type_symbol
 _atom_site_label
 _atom_site_symmetry_multiplicity
 _atom_site_fract_x
 _atom_site_fract_y
 _atom_site_fract_z
 _atom_site_occupancy
  V  V0  1  0.87444804  0.62422517  0.25105465  1
  V  V1  1  0.37211485  0.25940021  0.62488789  1
  V  V2  1  0.37691015  0.75159630  0.62460760  1
  V  V3  1  0.24953681  0.12534323  0.37386492  1
  V  V4  1  0.50031943  0.25219236  0.75028616  1
  V  V5  1  0.62846642  0.00121067  0.62737509  1
  V  V6  1  0.50700495  0.62593421  0.61910827  1
  V  V7  1  0.37503402  0.87587495  -0.00105982  1
  V  V8  1  0.37507336  0.87615715  0.50098837  1
  V  V9  1  0.62364117  0.00029721  0.12468792  1
  V  V10  1  0.62456712  0.12636200  0.50082119  1
  V  V11  1  0.12586042  0.62419416  -0.00008147  1
  V  V12  1  0.74897248  0.12423164  0.37522901  1
  V  V13  1  0.37417044  0.00066261  0.87493046  1
  V  V14  1  0.12531538  0.49991382  0.12579789  1
  V  V15  1  0.24244925  0.25050835  -0.00395017  1
  V  V16  1  0.86560118  -0.00330257  0.86960145  1
  V  V17  1  0.87401173  0.12408959  0.24965976  1
  V  V18  1  0.62488560  0.74793017  0.37977993  1
  V  V19  1  0.00360365  0.62192178  0.62567260  1
  V  V20  1  0.49992394  0.12690116  0.62508711  1
  V  V21  1  0.88078918  0.49327742  0.87464371  1
  V  V22  1  0.25242838  0.62104536  0.87415198  1
  V  V23  1  0.86946167  0.86598663  -0.00159047  1
  V  V24  1  0.24057653  0.12937327  0.87507380  1
  V  V25  1  0.12504911  0.37525718  0.25007974  1
  V  V26  1  0.24547633  0.49632745  0.73172653  1
  V  V27  1  0.87528308  0.74946266  0.62558476  1
  V  V28  1  0.87504947  -0.00224939  0.37600989  1
  V  V29  1  0.12413161  0.75168064  0.37437010  1
  V  V30  1  0.25020577  0.74947807  -0.00017601  1
  V  V31  1  0.49917974  0.62503631  0.12396649  1
  V  V32  1  0.12473736  0.24989673  0.37485222  1
  V  V33  1  0.24821939  0.87561085  0.12442265  1
  V  V34  1  0.75001936  0.37387541  0.12471281  1
  V  V35  1  0.00321483  0.49891097  0.50247658  1
  V  V36  1  0.74885989  0.86632036  0.12189758  1
  V  V37  1  0.74953787  -0.00120545  0.25026599  1
  V  V38  1  0.63030693  0.88064195  0.75059016  1
  V  V39  1  0.87531227  0.49996859  0.37551158  1
  V  V40  1  0.63278964  0.63273207  -0.00156766  1
  V  V41  1  0.12272604  0.12472798  0.50117661  1
  V  V42  1  0.37617588  0.62495040  0.74958438  1
  V  V43  1  0.75161577  0.50109587  0.75168565  1
  V  V44  1  0.49872074  0.12450088  0.12481601  1
  V  V45  1  0.74551787  0.62433084  0.38075330  1
  V  V46  1  0.12507528  0.75060045  0.87332759  1
  V  V47  1  0.75166353  0.25063253  0.50150199  1
  V  V48  1  0.24936600  0.50010414  0.25014527  1
  V  V49  1  -0.00042141  0.37536770  0.37560210  1
  V  V50  1  0.75089979  0.87898605  0.62794107  1
  V  V51  1  0.37460992  0.75081853  0.12515641  1
  V  V52  1  -0.00044863  0.62461210  0.12533672  1
  V  V53  1  0.62509937  0.49901939  0.12398272  1
  V  V54  1  0.49908880  0.75141972  0.25064465  1
  V  V55  1  0.12490097  0.00009653  0.62389902  1
  V  V56  1  0.87541269  0.87509370  0.50020460  1
  V  V57  1  0.62430422  0.25108382  0.37583188  1
  V  V58  1  0.86822438  0.11959293  0.74898267  1
  V  V59  1  -0.00135582  0.24892102  0.24965842  1
  V  V60  1  0.12607807  0.62283127  0.50294617  1
  V  V61  1  0.87798341  0.62282215  0.74916095  1
  V  V62  1  0.12340982  0.00119871  0.12235734  1
  V  V63  1  0.37300584  0.24996634  0.12499184  1
  V  V64  1  0.74886805  0.24897168  -0.00026888  1
  V  V65  1  0.37363713  0.00113242  0.37445794  1
  V  V66  1  -0.00215739  0.75108192  0.24906659  1
  V  V67  1  0.74661718  0.74773269  0.50181521  1
  V  V68  1  0.25045498  0.62575896  0.37410724  1
  V  V69  1  0.37435179  0.12697404  0.75021968  1
  V  V70  1  0.50233594  0.75124099  0.75107843  1
  V  V71  1  0.62429658  0.37401346  0.25012018  1
  V  V72  1  0.37639516  0.37633195  -0.00098521  1
  V  V73  1  0.37724680  0.49928492  0.37567221  1
  V  V74  1  0.49955537  0.87561457  0.87436228  1
  V  V75  1  0.49984565  0.00131006  0.50054553  1
  V  V76  1  0.87942318  0.25013933  0.62788903  1
  V  V77  1  0.87281448  0.24849205  0.12539103  1
  V  V78  1  0.49989120  0.87514192  0.37592577  1
  V  V79  1  0.62542942  0.37655860  0.75073135  1
  V  V80  1  0.25053230  0.25892424  0.50329884  1
  V  V81  1  0.62357245  0.12576226  0.00000148  1
  V  V82  1  0.25187900  0.87532148  0.62516715  1
  V  V83  1  0.12550877  0.36742194  0.74167818  1
  V  V84  1  0.49907717  0.25061419  0.25177768  1
  V  V85  1  0.00063356  0.49893100  -0.00170409  1
  V  V86  1  0.62734995  0.50523208  0.61982501  1
  V  V87  1  0.62499103  0.25104574  0.87468876  1
  V  V88  1  0.37273699  0.12545280  0.25027488  1
  V  V89  1  0.12513699  0.87382340  0.75018298  1
  V  V90  1  -0.00315181  -0.00206385  -0.00138577  1
  V  V91  1  0.62442770  0.87550105  0.25099232  1
  V  V92  1  0.24958899  0.00091600  0.75013411  1
  Zn  Zn93  1  0.25043836  0.75121264  0.49933062  1
  Zn  Zn94  1  0.87827067  0.37105424  -0.00168883  1
  Zn  Zn95  1  0.00139752  0.74976617  0.74953441  1
  Zn  Zn96  1  0.37682097  0.49765270  0.87261817  1
  Zn  Zn97  1  0.12390971  0.87762063  0.24998370  1
  Zn  Zn98  1  0.75029975  0.49952958  0.25194781  1
  Zn  Zn99  1  0.87662684  0.37373696  0.50229948  1
  Zn  Zn100  1  0.02407998  0.35569024  0.88606273  1
  Zn  Zn101  1  0.63287887  0.75668892  0.87997184  1
  Zn  Zn102  1  0.74529351  0.12070893  0.87079574  1
  Zn  Zn103  1  0.50056685  0.37646440  0.37819865  1
  Zn  Zn104  1  0.50004395  0.37772431  0.87532581  1
  Zn  Zn105  1  0.00000582  -0.00277074  0.49921831  1
  Zn  Zn106  1  0.11479880  0.13349428  -0.00594513  1
  Zn  Zn107  1  -0.00028185  0.12315878  0.62802763  1
  Zn  Zn108  1  0.24957912  0.37448886  0.12446165  1
  Zn  Zn109  1  0.37437315  0.62560172  0.25011959  1
  Zn  Zn110  1  0.24682625  -0.00020796  0.24883028  1
  Zn  Zn111  1  0.49842907  0.00112188  -0.00045936  1
  Zn  Zn112  1  0.37678311  0.37974458  0.50297026  1
  Zn  Zn113  1  -0.00181709  0.12394467  0.12431290  1
  Zn  Zn114  1  -0.00061349  0.87595010  0.37560260  1
  Zn  Zn115  1  0.75896865  0.62979477  0.88345495  1
  Zn  Zn116  1  0.00570620  0.24301050  0.76159710  1
  Zn  Zn117  1  0.75225312  0.37650617  0.62361581  1
  Zn  Zn118  1  0.86888187  0.74411740  0.11891696  1
  Zn  Zn119  1  0.49926413  0.50119481  -0.00467430  1
  Zn  Zn120  1  0.50547798  0.50113713  0.49723477  1
  Zn  Zn121  1  -0.00316376  0.87164433  0.87209931  1
  Zn  Zn122  1  0.18618158  0.18625888  0.18357643  1
  Zn  Zn123  1  0.18990133  0.18807429  0.68536195  1
  Zn  Zn124  1  0.18707727  0.68705595  0.18830761  1
  Zn  Zn125  1  0.18979294  0.68817976  0.68734811  1
  Zn  Zn126  1  0.68626561  0.18724604  0.18765153  1
  Zn  Zn127  1  0.68986901  0.18923962  0.68699752  1
  Zn  Zn128  1  0.68534101  0.68543601  0.19318194  1
  Zn  Zn129  1  0.68963471  0.69072143  0.69295435  1
  Zn  Zn130  1  0.31158692  0.31415723  0.31365741  1
  Zn  Zn131  1  0.30880975  0.31513204  0.81261954  1
  Zn  Zn132  1  0.31078889  0.81429107  0.31036199  1
  Zn  Zn133  1  0.31278834  0.81141751  0.81159549  1
  Zn  Zn134  1  0.81162742  0.31326440  0.31284296  1
  Zn  Zn135  1  0.81276573  0.30967046  0.81130440  1
  Zn  Zn136  1  0.81163995  0.81124013  0.31264479  1
  Zn  Zn137  1  0.81106465  0.80770052  0.81314417  1
  Zn  Zn138  1  0.18789454  0.43907361  0.43630495  1
  Zn  Zn139  1  0.18912566  0.43557780  0.93420877  1
  Zn  Zn140  1  0.18871802  0.93772048  0.43766452  1
  Zn  Zn141  1  0.18656374  0.93838664  0.93689106  1
  Zn  Zn142  1  0.69019962  0.43532501  0.43850312  1
  Zn  Zn143  1  0.68992959  0.43853213  0.93745472  1
  Zn  Zn144  1  0.68831256  0.93610767  0.44089137  1
  Zn  Zn145  1  0.68598616  0.93722221  0.94030860  1
  Zn  Zn146  1  0.31015871  0.06403686  0.06022814  1
  Zn  Zn147  1  0.31135622  0.06666641  0.56244052  1
  Zn  Zn148  1  0.31234230  0.56082083  0.06304744  1
  Zn  Zn149  1  0.31738286  0.56755549  0.55924549  1
  Zn  Zn150  1  0.81006784  0.05974241  0.06110429  1
  Zn  Zn151  1  0.81232566  0.06244549  0.56277735  1
  Zn  Zn152  1  0.81383823  0.55833913  0.06346007  1
  Zn  Zn153  1  0.81532550  0.56164979  0.56257677  1
  Zn  Zn154  1  0.43688887  0.43691382  0.18814547  1
  Zn  Zn155  1  0.43938305  0.44141126  0.69002250  1
  Zn  Zn156  1  0.43574267  0.93887992  0.18755879  1
  Zn  Zn157  1  0.43971856  0.93943262  0.68877081  1
  Zn  Zn158  1  0.93681246  0.43665144  0.18730939  1
  Zn  Zn159  1  0.94389993  0.43287003  0.68937412  1
  Zn  Zn160  1  0.93535616  0.93489662  0.18542925  1
  Zn  Zn161  1  0.94092439  0.93766887  0.68649988  1
  Zn  Zn162  1  0.06034143  0.06187590  0.31204170  1
  Zn  Zn163  1  0.05568644  0.05971184  0.81149452  1
  Zn  Zn164  1  0.06213640  0.56349723  0.31373329  1
  Zn  Zn165  1  0.06655192  0.55687715  0.81194536  1
  Zn  Zn166  1  0.56109569  0.06336528  0.31217810  1
  Zn  Zn167  1  0.56079700  0.06323220  0.81310228  1
  Zn  Zn168  1  0.56273933  0.56308130  0.31016031  1
  Zn  Zn169  1  0.56084955  0.56102404  0.81232203  1
  Zn  Zn170  1  0.43643039  0.18937541  0.43842528  1
  Zn  Zn171  1  0.43515016  0.18969504  0.93690592  1
  Zn  Zn172  1  0.43730000  0.68731089  0.43834355  1
  Zn  Zn173  1  0.44075420  0.68943059  0.93688103  1
  Zn  Zn174  1  0.93652110  0.18698226  0.43724298  1
  Zn  Zn175  1  0.93198389  0.18374322  0.93531435  1
  Zn  Zn176  1  0.93542296  0.68751393  0.43831170  1
  Zn  Zn177  1  0.94039584  0.68445147  0.93419800  1
  Zn  Zn178  1  0.05992024  0.31425692  0.06621913  1
  Zn  Zn179  1  0.06470133  0.31408646  0.56785384  1
  Zn  Zn180  1  0.06048792  0.81334016  0.06131548  1
  Zn  Zn181  1  0.06165396  0.81165111  0.56266281  1
  Zn  Zn182  1  0.56049975  0.31133543  0.06280918  1
  Zn  Zn183  1  0.56155505  0.31858475  0.56332034  1
  Zn  Zn184  1  0.56053566  0.81351686  0.06266151  1
  Zn  Zn185  1  0.56404848  0.81324404  0.56378732  1
  O  O186  1  0.12151682  0.11334422  0.11806314  1
  O  O187  1  0.12647915  0.11972325  0.61549187  1
  O  O188  1  0.11977755  0.61968146  0.11939568  1
  O  O189  1  0.11670089  0.63367022  0.61238582  1
  O  O190  1  0.61829158  0.12013505  0.12095204  1
  O  O191  1  0.61960921  0.12180223  0.62039891  1
  O  O192  1  0.61924652  0.61925619  0.11908179  1
  O  O193  1  0.61702997  0.61768721  0.63521846  1
  O  O194  1  0.37632198  0.38797550  0.37508340  1
  O  O195  1  0.37520480  0.37476898  0.88683072  1
  O  O196  1  0.38027367  0.88048638  0.38042387  1
  O  O197  1  0.37886481  0.88002861  0.87896921  1
  O  O198  1  0.88258527  0.38086019  0.37675252  1
  O  O199  1  0.87438584  0.38806110  0.87449516  1
  O  O200  1  0.87315834  0.88018858  0.38209869  1
  O  O201  1  0.87382398  0.87983786  0.88136733  1
  O  O202  1  0.25596086  0.00713853  0.37328557  1
  O  O203  1  0.25539531  0.00777591  0.86967495  1
  O  O204  1  0.25690066  0.50625431  0.36975815  1
  O  O205  1  0.25365242  0.51452451  0.87151251  1
  O  O206  1  0.75354713  0.00467057  0.37004175  1
  O  O207  1  0.76214428  -0.00014447  0.88056532  1
  O  O208  1  0.75527055  0.50850261  0.37529068  1
  O  O209  1  0.75946948  0.50513127  0.86711527  1
  O  O210  1  0.24240179  0.49994238  0.13222744  1
  O  O211  1  0.25527857  0.50605362  0.63384230  1
  O  O212  1  0.23914105  0.99499290  0.12200351  1
  O  O213  1  0.24597505  0.99605138  0.63084265  1
  O  O214  1  0.74032826  0.49372704  0.12769507  1
  O  O215  1  0.74538200  0.50070354  0.63365227  1
  O  O216  1  0.74338033  0.98980621  0.13135632  1
  O  O217  1  0.74034007  0.99176748  0.61798458  1
  O  O218  1  0.00540854  0.36919788  0.25610665  1
  O  O219  1  0.01661419  0.37412637  0.75445263  1
  O  O220  1  0.00049315  0.86237628  0.25146658  1
  O  O221  1  0.01008440  0.87104094  0.75107538  1
  O  O222  1  0.50679339  0.36759273  0.25139868  1
  O  O223  1  0.50727002  0.36896696  0.75117773  1
  O  O224  1  0.50456984  0.87112758  0.25613567  1
  O  O225  1  0.50711909  0.87054127  0.75473544  1
  O  O226  1  0.49292682  0.13085715  0.24498234  1
  O  O227  1  0.49394055  0.13210047  0.74423875  1
  O  O228  1  0.50087247  0.63260506  0.23773752  1
  O  O229  1  0.49569016  0.63173375  0.74319337  1
  O  O230  1  0.99164569  0.13192877  0.24901541  1
  O  O231  1  0.98688310  0.12547034  0.74736269  1
  O  O232  1  0.99499626  0.63182904  0.24559859  1
  O  O233  1  0.99833958  0.62123078  0.73853077  1
  O  O234  1  0.36642441  0.25712922  0.00554657  1
  O  O235  1  0.36688078  0.25062611  0.50757418  1
  O  O236  1  0.36964340  0.75559552  0.00536409  1
  O  O237  1  0.37464015  0.75825909  0.50628749  1
  O  O238  1  0.86623272  0.24933118  0.00798930  1
  O  O239  1  0.87029930  0.24833572  0.50931163  1
  O  O240  1  0.88143616  0.76167877  -0.00056711  1
  O  O241  1  0.86806972  0.75489372  0.50609634  1
  O  O242  1  0.13168982  0.24417456  0.49663958  1
  O  O243  1  0.13801169  0.25104843  1.00627517  1
  O  O244  1  0.12415089  0.74074812  0.48968874  1
  O  O245  1  0.13063770  0.74401319  0.99467194  1
  O  O246  1  0.63015701  0.24500891  0.49655269  1
  O  O247  1  0.62884322  0.24516895  0.99519236  1
  O  O248  1  0.63361928  0.75726971  0.49245354  1
  O  O249  1  0.62166429  0.73571445  1.00258271  1
  O  O250  1  0.49344359  0.24358828  0.13209981  1
  O  O251  1  0.49263851  0.24485968  0.62985892  1
  O  O252  1  0.49485495  0.74396569  0.13046852  1
  O  O253  1  0.49710796  0.74428061  0.63018839  1
  O  O254  1  0.99204357  0.24729417  0.13205066  1
  O  O255  1  0.98902974  0.24648104  0.62717632  1
  O  O256  1  1.00019311  0.74312711  0.13461832  1
  O  O257  1  0.99426519  0.73726447  0.62441182  1
  O  O258  1  0.00513672  0.25524791  0.37014321  1
  O  O259  1  -0.00286201  0.24815392  0.87471791  1
  O  O260  1  0.00769819  0.74735473  0.36615725  1
  O  O261  1  0.01079707  0.75032716  0.87123481  1
  O  O262  1  0.50660560  0.25005066  0.36915237  1
  O  O263  1  0.50653036  0.25144741  0.86719657  1
  O  O264  1  0.50422081  0.75543662  0.37104425  1
  O  O265  1  0.50551038  0.75736201  0.86863217  1
  O  O266  1  0.24068490  0.13392703  0.49407478  1
  O  O267  1  0.24846837  0.13400802  0.99051167  1
  O  O268  1  0.24055771  0.62770071  0.49414527  1
  O  O269  1  0.24634977  0.62995890  0.99303764  1
  O  O270  1  0.74335417  0.13044506  0.49406975  1
  O  O271  1  0.74075328  0.13123208  0.99983392  1
  O  O272  1  0.75790542  0.63132970  0.48819757  1
  O  O273  1  0.73560500  0.62079984  1.00442486  1
  O  O274  1  0.25792548  0.36708497  0.00086828  1
  O  O275  1  0.25062264  0.36168772  0.49434552  1
  O  O276  1  0.25533969  0.86835611  0.00405796  1
  O  O277  1  0.25747614  0.87423826  0.50708707  1
  O  O278  1  0.75148286  0.36769109  0.00764751  1
  O  O279  1  0.75546588  0.36571881  0.50253881  1
  O  O280  1  0.75724263  0.87866736  0.01123080  1
  O  O281  1  0.75622701  0.86805420  0.50755865  1
  O  O282  1  0.12870200  0.49560789  0.24654190  1
  O  O283  1  0.14227790  0.50068105  0.74626283  1
  O  O284  1  0.12384305  0.99899253  0.23689892  1
  O  O285  1  0.13086220  0.99456893  0.74427972  1
  O  O286  1  0.62554608  0.49472409  0.23830396  1
  O  O287  1  0.63506711  0.49751026  0.74495396  1
  O  O288  1  0.62948903  0.99480598  0.24544932  1
  O  O289  1  0.61663397  0.98879923  0.74302157  1
  O  O290  1  0.37273607  0.00739112  0.25703549  1
  O  O291  1  0.36912248  0.00686189  0.75407612  1
  O  O292  1  0.36933129  0.50286791  0.25813832  1
  O  O293  1  0.36303298  0.50617472  0.75119236  1
  O  O294  1  0.86852838  0.00345368  0.25489683  1
  O  O295  1  0.88062269  0.00531524  0.75953699  1
  O  O296  1  0.87480514  0.50664222  0.25739190  1
  O  O297  1  0.87113757  0.50225726  0.75521912  1
  O  O298  1  0.11912410  0.36928777  0.36961702  1
  O  O299  1  0.12993297  0.38442301  0.85504994  1
  O  O300  1  0.12374488  0.86328093  0.37419926  1
  O  O301  1  0.12612979  0.86771783  0.86838686  1
  O  O302  1  0.62516242  0.36888924  0.36803605  1
  O  O303  1  0.62459747  0.36955220  0.86869515  1
  O  O304  1  0.61898579  0.87059698  0.37027095  1
  O  O305  1  0.61911630  0.87775918  0.86713843  1
  O  O306  1  0.37855644  0.12962860  0.13017386  1
  O  O307  1  0.38057777  0.13364408  0.63054591  1
  O  O308  1  0.38438598  0.63098853  0.12453654  1
  O  O309  1  0.38531810  0.63188728  0.63060464  1
  O  O310  1  0.87290191  0.12963894  0.13266479  1
  O  O311  1  0.87553165  0.13084160  0.63155061  1
  O  O312  1  0.88056982  0.62577406  0.13072158  1
  O  O313  1  0.88480690  0.62919769  0.62885203  1
  O  O314  1  0.25593178  0.25019656  0.11504156  1
  O  O315  1  0.26162085  0.24349705  0.61438473  1
  O  O316  1  0.25442851  0.75391852  0.11923798  1
  O  O317  1  0.25897876  0.75700841  0.62360091  1
  O  O318  1  0.75299882  0.25474435  0.12057301  1
  O  O319  1  0.76066128  0.25133301  0.61907286  1
  O  O320  1  0.74904517  0.76281992  0.13370613  1
  O  O321  1  0.75608146  0.75571677  0.62111718  1
  O  O322  1  0.24437518  0.24466195  0.38294109  1
  O  O323  1  0.25560056  0.23923877  0.88363156  1
  O  O324  1  0.24011228  0.74520491  0.37462195  1
  O  O325  1  0.24573057  0.74036017  0.87928125  1
  O  O326  1  0.74458858  0.24327190  0.38032992  1
  O  O327  1  0.74270998  0.24780549  0.88162844  1
  O  O328  1  0.74508138  0.74270296  0.38050619  1
  O  O329  1  0.74270010  0.73874634  0.86618341  1
  O  O330  1  -0.00300913  0.10995204  0.00202706  1
  O  O331  1  0.01489177  0.12553598  0.49932642  1
  O  O332  1  0.00681796  0.61933491  0.00610970  1
  O  O333  1  0.00639906  0.61821671  0.50534913  1
  O  O334  1  0.50468606  0.12553157  0.00742536  1
  O  O335  1  0.50510765  0.12082132  0.50526402  1
  O  O336  1  0.50812526  0.62513862  0.01203171  1
  O  O337  1  0.49733208  0.62354042  0.51545185  1
  O  O338  1  0.49615979  0.38244098  0.49590226  1
  O  O339  1  0.48835194  0.37519343  0.99989986  1
  O  O340  1  0.49504233  0.88175823  0.49537104  1
  O  O341  1  0.49290350  0.87634687  0.99310955  1
  O  O342  1  1.00372547  0.38477255  0.49490977  1
  O  O343  1  0.99848965  0.38376781  0.99852395  1
  O  O344  1  0.99070396  0.87463220  0.49725212  1
  O  O345  1  0.98852230  0.88268736  0.99924858  1
  O  O346  1  0.49071521  0.50308324  0.37523597  1
  O  O347  1  0.49415459  0.49675485  0.87774427  1
  O  O348  1  0.49431198  0.99525560  0.38075811  1
  O  O349  1  0.49104791  0.99414419  0.87591427  1
  O  O350  1  0.99561695  0.49622493  0.38329075  1
  O  O351  1  0.99304831  0.50141585  0.88136581  1
  O  O352  1  0.99136116  0.99656313  0.37716134  1
  O  O353  1  0.98930158  0.99494517  0.88447121  1
  O  O354  1  0.00537809  -0.00172179  0.11634539  1
  O  O355  1  0.00996887  0.00256711  0.61938671  1
  O  O356  1  0.00508502  0.50570738  0.11977144  1
  O  O357  1  -0.00523474  0.51072679  0.61373473  1
  O  O358  1  0.50580031  0.00633085  0.12446860  1
  O  O359  1  0.50582133  0.00714098  0.61933477  1
  O  O360  1  0.50791570  0.50939834  0.12562932  1
  O  O361  1  0.51016913  0.51038929  0.62792804  1
  O  O362  1  0.24194418  0.38145440  0.24902274  1
  O  O363  1  0.24501596  0.38997567  0.75010459  1
  O  O364  1  0.24576924  0.87834469  0.24008819  1
  O  O365  1  0.24610566  0.88149742  0.74459120  1
  O  O366  1  0.74188058  0.37599779  0.24329070  1
  O  O367  1  0.74603378  0.38762714  0.74928993  1
  O  O368  1  0.74401589  0.87986040  0.24352045  1
  O  O369  1  0.73767678  0.87095403  0.74319172  1
  O  O370  1  0.25519504  0.12500086  0.25614531  1
  O  O371  1  0.25456750  0.12098757  0.75698179  1
  O  O372  1  0.25085493  0.61861591  0.25653884  1
  O  O373  1  0.25509708  0.61721106  0.75541270  1
  O  O374  1  0.75339812  0.11855930  0.25589784  1
  O  O375  1  0.76292441  0.12598774  0.75035425  1
  O  O376  1  0.75661389  0.62401269  0.26148096  1
  O  O377  1  0.75890794  0.61211959  0.74732114  1
  O  O378  1  0.36957002  0.12067469  0.37050833  1
  O  O379  1  0.36649465  0.12043424  0.86881216  1
  O  O380  1  0.36932955  0.61793251  0.37356328  1
  O  O381  1  0.36634240  0.62854112  0.86902778  1
  O  O382  1  0.86795807  0.11904169  0.36968491  1
  O  O383  1  0.86964691  0.11302630  0.86643097  1
  O  O384  1  0.86735603  0.61985119  0.37047554  1
  O  O385  1  0.87773045  0.61263389  0.86790059  1
  O  O386  1  0.12605706  0.38289250  0.13324091  1
  O  O387  1  0.12411705  0.37899994  0.64029967  1
  O  O388  1  0.12974213  0.88397551  0.12356133  1
  O  O389  1  0.13248451  0.87910000  0.62870540  1
  O  O390  1  0.62843117  0.38179781  0.12910030  1
  O  O391  1  0.62791355  0.38632439  0.63407563  1
  O  O392  1  0.62989587  0.87949368  0.13036482  1
  O  O393  1  0.62950525  0.88152627  0.63223429  1
  O  O394  1  0.11933126  0.25402576  0.25484159  1
  O  O395  1  0.12888958  0.26283920  0.74557299  1
  O  O396  1  0.11520842  0.74822669  0.25852656  1
  O  O397  1  0.12668840  0.75551529  0.75606926  1
  O  O398  1  0.61907926  0.25382016  0.25601468  1
  O  O399  1  0.62069513  0.25594907  0.75381844  1
  O  O400  1  0.61799765  0.75685864  0.25816335  1
  O  O401  1  0.61756685  0.76394294  0.74830225  1
  O  O402  1  0.37838822  0.24502482  0.24579875  1
  O  O403  1  0.37784198  0.24656946  0.74266334  1
  O  O404  1  0.38149396  0.74899166  0.24349088  1
  O  O405  1  0.38192453  0.74580595  0.74386678  1
  O  O406  1  0.87884292  0.24373922  0.24612981  1
  O  O407  1  0.87501403  0.24063641  0.74136293  1
  O  O408  1  0.88458400  0.74338573  0.24991226  1
  O  O409  1  0.87896613  0.74097074  0.74259577  1
  O  O410  1  0.37494405  0.49986228  0.48762033  1
  O  O411  1  0.37538641  0.48855940  1.00018772  1
  O  O412  1  0.38029736  0.99686815  0.49515688  1
  O  O413  1  0.37453237  0.99328413  0.99314675  1
  O  O414  1  0.88743568  0.49862990  0.49410543  1
  O  O415  1  0.88155999  0.49876004  0.99085409  1
  O  O416  1  0.87495213  0.99354601  0.49347725  1
  O  O417  1  0.87968163  0.98990794  0.99357035  1
  O  O418  1  0.11314575  -0.00217629  0.00595886  1
  O  O419  1  0.12707615  0.01042487  0.50419545  1
  O  O420  1  0.12163927  0.50551206  0.00525911  1
  O  O421  1  0.11527351  0.51236801  0.49120737  1
  O  O422  1  0.62159518  0.00696625  0.00747739  1
  O  O423  1  0.61841426  0.00644082  0.50522003  1
  O  O424  1  0.62287635  0.50712278  0.01217436  1
  O  O425  1  0.62857670  0.49740276  0.51645214  1
  O  O426  1  0.37274013  0.36864622  0.11724407  1
  O  O427  1  0.38075106  0.36211855  0.62531918  1
  O  O428  1  0.36951059  0.87022802  0.11924446  1
  O  O429  1  0.37177914  0.87197796  0.62068568  1
  O  O430  1  0.86779570  0.36729553  0.12502175  1
  O  O431  1  0.87531722  0.36396995  0.62466209  1
  O  O432  1  0.86497749  0.87156455  0.11658695  1
  O  O433  1  0.87025784  0.86973837  0.62120685  1
  O  O434  1  0.12929409  0.13045174  0.38174538  1
  O  O435  1  0.13738545  0.11656159  0.87567449  1
  O  O436  1  0.12885910  0.63315429  0.38277865  1
  O  O437  1  0.13441100  0.62957416  0.87994610  1
  O  O438  1  0.62944607  0.13011593  0.38083835  1
  O  O439  1  0.62540225  0.13116254  0.88056711  1
  O  O440  1  0.63706950  0.63116661  0.36817719  1
  O  O441  1  0.62190625  0.62070546  0.89468072  1
