# generated using pymatgen
data_V93Zn93O256
_symmetry_space_group_name_H-M   'P 1'
_cell_length_a   17.04778115
_cell_length_b   17.05056250
_cell_length_c   17.04850837
_cell_angle_alpha   90.06078581
_cell_angle_beta   90.03593530
_cell_angle_gamma   90.01417383
_symmetry_Int_Tables_number   1
_chemical_formula_structural   V93Zn93O256
_chemical_formula_sum   'V93 Zn93 O256'
_cell_volume   4955.55860244
_cell_formula_units_Z   1
loop_
 _symmetry_equiv_pos_site_id
 _symmetry_equiv_pos_as_xyz
  1  'x, y, z'
loop_
 _atom_site_type_symbol
 _atom_site_label
 _atom_site_symmetry_multiplicity
 _atom_site_fract_x
 _atom_site_fract_y
 _atom_site_fract_z
 _atom_site_occupancy
  V  V0  1  0.12828039  0.62523567  0.00047732  1
  V  V1  1  0.11849188  0.12263083  0.49984532  1
  V  V2  1  0.87494984  0.37469999  -0.00017064  1
  V  V3  1  0.87431231  0.37914745  0.49302463  1
  V  V4  1  0.00046759  0.37484882  0.87396898  1
  V  V5  1  0.00050324  0.87442046  0.87441088  1
  V  V6  1  0.38193987  0.75163274  0.12999391  1
  V  V7  1  0.49816387  0.37115843  0.37261286  1
  V  V8  1  0.00205702  0.62561501  0.12479056  1
  V  V9  1  0.11787949  0.50320196  0.62469931  1
  V  V10  1  0.50229427  0.62776738  0.12728488  1
  V  V11  1  0.38023213  0.62656574  0.25120030  1
  V  V12  1  -0.00122737  0.25056236  0.75007048  1
  V  V13  1  0.75485735  0.49886721  0.25773044  1
  V  V14  1  -0.00184814  0.12219865  0.62350537  1
  V  V15  1  0.50013245  0.00016678  0.50058470  1
  V  V16  1  0.25022650  0.87588218  0.62548282  1
  V  V17  1  0.12554275  0.75025044  0.37488467  1
  V  V18  1  0.24894212  0.00027973  0.74950658  1
  V  V19  1  0.24883718  0.74963518  0.50039084  1
  V  V20  1  0.49968112  0.00095524  -0.00034083  1
  V  V21  1  0.11866741  -0.00136074  0.62156038  1
  V  V22  1  0.49900139  0.49847232  0.50023692  1
  V  V23  1  0.87583140  0.62106554  0.25773390  1
  V  V24  1  0.62630056  0.50055839  0.12516026  1
  V  V25  1  0.74870011  0.37473717  0.62433261  1
  V  V26  1  0.61915119  0.37128458  0.24932470  1
  V  V27  1  0.37479823  0.74885849  0.62568433  1
  V  V28  1  0.12629979  0.37769441  0.25045717  1
  V  V29  1  0.37375232  0.49970057  0.37368071  1
  V  V30  1  0.25036403  0.50064219  0.75073804  1
  V  V31  1  0.37378492  0.12578229  0.74993687  1
  V  V32  1  0.62540918  -0.00042314  0.12436436  1
  V  V33  1  0.62728628  0.62399658  0.00033602  1
  V  V34  1  -0.00220095  0.25087463  0.24922092  1
  V  V35  1  0.24858233  0.12490263  0.37539477  1
  V  V36  1  0.49874127  0.62501267  0.62532803  1
  V  V37  1  0.62233508  0.12437309  0.49969039  1
  V  V38  1  0.88044299  -0.00241661  0.38074230  1
  V  V39  1  0.25196258  0.87659665  0.12597864  1
  V  V40  1  0.50096288  0.86782907  0.37221491  1
  V  V41  1  0.37947752  0.49859022  0.87465002  1
  V  V42  1  0.87720469  0.74385786  0.62557884  1
  V  V43  1  0.11937897  0.62628525  0.50470457  1
  V  V44  1  0.61930234  0.37374638  0.75410684  1
  V  V45  1  0.12299576  0.37474899  0.74913690  1
  V  V46  1  0.37250292  0.37481747  0.49997337  1
  V  V47  1  0.37247093  0.25095992  0.62546562  1
  V  V48  1  0.74958163  0.25097540  -0.00035654  1
  V  V49  1  0.00111643  0.74205896  0.74616600  1
  V  V50  1  0.75085361  0.87465673  0.12444240  1
  V  V51  1  0.74784724  0.12390783  0.37399876  1
  V  V52  1  0.87494354  0.50035708  0.87432959  1
  V  V53  1  0.74787551  0.25026261  0.49852782  1
  V  V54  1  0.37460817  -0.00079749  0.87580038  1
  V  V55  1  0.74989861  0.49969541  0.74957730  1
  V  V56  1  0.50150587  0.49827517  -0.00229442  1
  V  V57  1  0.00034687  -0.00061044  -0.00078489  1
  V  V58  1  0.49818529  0.12424223  0.62414487  1
  V  V59  1  0.49843542  0.25120276  0.75322450  1
  V  V60  1  0.61949693  0.24906866  0.37175300  1
  V  V61  1  0.37948316  0.25084890  0.13133949  1
  V  V62  1  0.62385288  0.49949992  0.62456461  1
  V  V63  1  0.12606517  -0.00009820  0.12658077  1
  V  V64  1  0.75143507  0.62425049  0.87448110  1
  V  V65  1  0.25072200  0.00201091  0.24998697  1
  V  V66  1  -0.00394017  0.50140228  0.49477089  1
  V  V67  1  0.87572848  0.75115786  0.12349950  1
  V  V68  1  0.87248366  0.12107618  0.75069670  1
  V  V69  1  0.38143178  0.37458148  -0.00369910  1
  V  V70  1  0.25172861  0.75036860  0.00161775  1
  V  V71  1  0.87337786  0.24917337  0.62377928  1
  V  V72  1  0.12664056  0.50008713  0.12586435  1
  V  V73  1  0.37394069  0.00049170  0.37468662  1
  V  V74  1  0.62514999  0.12549539  -0.00017156  1
  V  V75  1  0.00171986  0.49978912  -0.00043156  1
  V  V76  1  0.74915282  0.75279687  0.49781527  1
  V  V77  1  0.12755721  0.74974780  0.87552729  1
  V  V78  1  0.24910597  0.12536210  0.87544220  1
  V  V79  1  0.75046107  0.00030891  0.24981319  1
  V  V80  1  0.00208420  0.75346111  0.25195157  1
  V  V81  1  0.62627629  0.74951557  0.87313702  1
  V  V82  1  0.74978492  0.12403504  0.87436615  1
  V  V83  1  0.24808363  0.37518178  0.62400442  1
  V  V84  1  0.50114480  0.87385835  0.87424351  1
  V  V85  1  0.24974243  0.25055213  0.00009078  1
  V  V86  1  0.75028944  0.37504963  0.12422499  1
  V  V87  1  0.50003416  0.12819207  0.13262576  1
  V  V88  1  -0.00046451  0.12591668  0.12401943  1
  V  V89  1  0.62137695  0.86725248  0.25011745  1
  V  V90  1  0.62001900  0.25154161  0.87507963  1
  V  V91  1  0.12328128  0.25061527  0.37574355  1
  V  V92  1  0.37542069  0.87480278  0.49984557  1
  Zn  Zn93  1  0.62673671  0.62314622  0.49623643  1
  Zn  Zn94  1  0.25327664  0.62614575  0.87518073  1
  Zn  Zn95  1  -0.00536790  0.37917399  0.37183230  1
  Zn  Zn96  1  0.49935482  0.74969645  0.74938949  1
  Zn  Zn97  1  0.25030681  0.50245257  0.24967285  1
  Zn  Zn98  1  0.12475620  0.25006843  0.87481052  1
  Zn  Zn99  1  0.88120516  0.87979251  0.50837924  1
  Zn  Zn100  1  0.62259533  0.74400051  0.37107981  1
  Zn  Zn101  1  0.12515739  0.12705920  -0.00239575  1
  Zn  Zn102  1  0.24727750  0.25041674  0.50033117  1
  Zn  Zn103  1  0.87321530  -0.00282225  0.87476691  1
  Zn  Zn104  1  0.87427984  0.87515495  -0.00031410  1
  Zn  Zn105  1  0.37427292  0.62623205  0.75255279  1
  Zn  Zn106  1  0.62682303  -0.00295329  0.62684005  1
  Zn  Zn107  1  0.87966013  0.62054092  0.74627718  1
  Zn  Zn108  1  0.12519401  0.87395607  0.74838550  1
  Zn  Zn109  1  0.74938852  0.62184280  0.37726271  1
  Zn  Zn110  1  0.74908805  0.87634638  0.62897408  1
  Zn  Zn111  1  0.74611635  -0.00389256  0.74981658  1
  Zn  Zn112  1  0.12675676  0.87618691  0.25199976  1
  Zn  Zn113  1  0.87391133  0.24979366  0.12422484  1
  Zn  Zn114  1  0.87318726  0.12538588  0.25012454  1
  Zn  Zn115  1  0.37816775  0.13057993  0.25428057  1
  Zn  Zn116  1  0.25245621  0.37702270  0.12481465  1
  Zn  Zn117  1  0.62798164  0.87717174  0.74779511  1
  Zn  Zn118  1  0.00462649  0.88326437  0.38207979  1
  Zn  Zn119  1  0.37614870  0.87425012  0.00109369  1
  Zn  Zn120  1  0.25085753  0.62368413  0.37451765  1
  Zn  Zn121  1  0.75261448  0.75053003  -0.00139090  1
  Zn  Zn122  1  0.18797969  0.18822381  0.18669425  1
  Zn  Zn123  1  0.18586827  0.18758645  0.68712588  1
  Zn  Zn124  1  0.19292294  0.68723116  0.18766133  1
  Zn  Zn125  1  0.18822450  0.68669525  0.68941726  1
  Zn  Zn126  1  0.68735845  0.18807786  0.18664888  1
  Zn  Zn127  1  0.68584402  0.18605976  0.68620749  1
  Zn  Zn128  1  0.69199812  0.68559771  0.18752166  1
  Zn  Zn129  1  0.68887266  0.68672314  0.68577027  1
  Zn  Zn130  1  0.30908459  0.31252653  0.31408033  1
  Zn  Zn131  1  0.31172974  0.31463950  0.81298025  1
  Zn  Zn132  1  0.31216000  0.81287154  0.31163051  1
  Zn  Zn133  1  0.31380450  0.81269839  0.81135377  1
  Zn  Zn134  1  0.80873108  0.31097731  0.31145959  1
  Zn  Zn135  1  0.81015657  0.31151251  0.81271803  1
  Zn  Zn136  1  0.81124534  0.81354924  0.31206169  1
  Zn  Zn137  1  0.81438118  0.81165411  0.80975419  1
  Zn  Zn138  1  0.18673931  0.43892601  0.43582374  1
  Zn  Zn139  1  0.19084548  0.43684429  0.93657302  1
  Zn  Zn140  1  0.18721916  0.93756225  0.43884805  1
  Zn  Zn141  1  0.18715289  0.93643498  0.93948772  1
  Zn  Zn142  1  0.68475328  0.43614646  0.43733408  1
  Zn  Zn143  1  0.68814967  0.43769369  0.93621613  1
  Zn  Zn144  1  0.68868780  0.93625755  0.43786243  1
  Zn  Zn145  1  0.68983637  0.93705610  0.93687616  1
  Zn  Zn146  1  0.31483323  0.06443275  0.06249089  1
  Zn  Zn147  1  0.30915665  0.06253797  0.56095624  1
  Zn  Zn148  1  0.31281923  0.56285407  0.06441455  1
  Zn  Zn149  1  0.30919625  0.56270030  0.56196512  1
  Zn  Zn150  1  0.81393345  0.06242865  0.06165572  1
  Zn  Zn151  1  0.80810060  0.06178056  0.56271758  1
  Zn  Zn152  1  0.81346639  0.56259564  0.06448724  1
  Zn  Zn153  1  0.81183037  0.56534914  0.56263258  1
  Zn  Zn154  1  0.43755433  0.44019228  0.18467561  1
  Zn  Zn155  1  0.43648972  0.43743949  0.68743778  1
  Zn  Zn156  1  0.43795256  0.93989183  0.18976582  1
  Zn  Zn157  1  0.43888274  0.93741430  0.68874620  1
  Zn  Zn158  1  0.93750636  0.43808721  0.18542365  1
  Zn  Zn159  1  0.93583559  0.43674531  0.68420095  1
  Zn  Zn160  1  0.93662924  0.93835878  0.19132090  1
  Zn  Zn161  1  0.93625030  0.93149805  0.68723161  1
  Zn  Zn162  1  0.06336562  0.06524709  0.30998777  1
  Zn  Zn163  1  0.06377369  0.06320712  0.81103565  1
  Zn  Zn164  1  0.06107121  0.56531822  0.31490973  1
  Zn  Zn165  1  0.06582827  0.56254566  0.81520863  1
  Zn  Zn166  1  0.56330641  0.05625558  0.31329536  1
  Zn  Zn167  1  0.56254242  0.06291584  0.81102783  1
  Zn  Zn168  1  0.56292200  0.56035988  0.31341953  1
  Zn  Zn169  1  0.56208724  0.56268445  0.81192696  1
  Zn  Zn170  1  0.43605454  0.18928753  0.43806029  1
  Zn  Zn171  1  0.43800272  0.18685795  0.93864695  1
  Zn  Zn172  1  0.43702485  0.68576329  0.44021039  1
  Zn  Zn173  1  0.43840576  0.68574252  0.94116200  1
  Zn  Zn174  1  0.93521335  0.18688897  0.43605214  1
  Zn  Zn175  1  0.93636239  0.18817445  0.93631507  1
  Zn  Zn176  1  0.93876418  0.69206537  0.44066764  1
  Zn  Zn177  1  0.94010240  0.68597573  0.93503496  1
  Zn  Zn178  1  0.06341672  0.31396667  0.06330908  1
  Zn  Zn179  1  0.05925466  0.31233341  0.56196439  1
  Zn  Zn180  1  0.06576315  0.81432186  0.06288071  1
  Zn  Zn181  1  0.05866485  0.81508018  0.56234144  1
  Zn  Zn182  1  0.56210808  0.31205748  0.06302025  1
  Zn  Zn183  1  0.55998085  0.31104952  0.56287263  1
  Zn  Zn184  1  0.56395919  0.81230137  0.05972749  1
  Zn  Zn185  1  0.56461197  0.81291470  0.56246574  1
  O  O186  1  0.11399837  0.12024655  0.12276341  1
  O  O187  1  0.11928369  0.11814167  0.61850707  1
  O  O188  1  0.12078049  0.62081583  0.12085568  1
  O  O189  1  0.12983876  0.61494399  0.61543027  1
  O  O190  1  0.61851461  0.12062356  0.11963810  1
  O  O191  1  0.61487725  0.12719245  0.61638091  1
  O  O192  1  0.62256977  0.62022091  0.12125310  1
  O  O193  1  0.61453769  0.61797568  0.62391925  1
  O  O194  1  0.37852928  0.37888937  0.37922634  1
  O  O195  1  0.37142198  0.38476990  0.88599781  1
  O  O196  1  0.38170415  0.87940741  0.37939483  1
  O  O197  1  0.38495404  0.87996351  0.87751136  1
  O  O198  1  0.87298778  0.37015947  0.38947554  1
  O  O199  1  0.87967950  0.38059171  0.87987867  1
  O  O200  1  0.87368699  0.89174470  0.37135427  1
  O  O201  1  0.88899332  0.87494717  0.87823841  1
  O  O202  1  0.25441577  0.00489117  0.37084339  1
  O  O203  1  0.25408347  0.00442166  0.87044157  1
  O  O204  1  0.25788186  0.50296719  0.37206530  1
  O  O205  1  0.26059648  0.50095662  0.86950890  1
  O  O206  1  0.75638776  0.00529261  0.36903446  1
  O  O207  1  0.75439079  0.00942850  0.87451861  1
  O  O208  1  0.74645756  0.49833847  0.36085184  1
  O  O209  1  0.75574855  0.50390260  0.86930953  1
  O  O210  1  0.24212275  0.49723450  0.12816734  1
  O  O211  1  0.23950084  0.49421655  0.62932672  1
  O  O212  1  0.24647655  0.99741354  0.12935759  1
  O  O213  1  0.24159296  0.99558108  0.62979936  1
  O  O214  1  0.74488216  0.49422391  0.13284687  1
  O  O215  1  0.74357170  0.49448981  0.62985219  1
  O  O216  1  0.74492830  0.99532525  0.12875673  1
  O  O217  1  0.74655732  0.99673890  0.62868744  1
  O  O218  1  0.00675051  0.36797796  0.24987327  1
  O  O219  1  0.00295802  0.37018444  0.75388856  1
  O  O220  1  0.00287322  0.86275455  0.25370311  1
  O  O221  1  0.00265874  0.86639640  0.76085078  1
  O  O222  1  0.51293613  0.38374031  0.25428635  1
  O  O223  1  0.51234027  0.36829822  0.74244210  1
  O  O224  1  0.51029551  0.88240650  0.26012294  1
  O  O225  1  0.50119839  0.87274684  0.76451629  1
  O  O226  1  0.50064552  0.11840395  0.23623499  1
  O  O227  1  0.49150079  0.13108313  0.74413745  1
  O  O228  1  0.48890940  0.61855364  0.24297665  1
  O  O229  1  0.49728805  0.62459190  0.73671775  1
  O  O230  1  1.00040508  0.13544328  0.24035552  1
  O  O231  1  0.99123824  0.13077942  0.74479872  1
  O  O232  1  0.99469019  0.63250877  0.24427514  1
  O  O233  1  0.99998627  0.63786365  0.75861391  1
  O  O234  1  0.36968147  0.25705922  0.00601821  1
  O  O235  1  0.37129343  0.25728798  0.50758377  1
  O  O236  1  0.37014388  0.75010583  0.01239024  1
  O  O237  1  0.36820624  0.75523194  0.50554234  1
  O  O238  1  0.86780078  0.25722449  -0.00001843  1
  O  O239  1  0.86849751  0.25710851  0.50472544  1
  O  O240  1  0.87882488  0.74947720  0.01399171  1
  O  O241  1  0.86485270  0.74712904  0.50816981  1
  O  O242  1  0.12455180  0.24144138  0.49510647  1
  O  O243  1  0.13813298  0.25161043  0.99928189  1
  O  O244  1  0.12791851  0.74284075  0.49470739  1
  O  O245  1  0.13117618  0.74468034  0.99645782  1
  O  O246  1  0.62897941  0.24556573  0.49294095  1
  O  O247  1  0.62962892  0.24598619  0.99488963  1
  O  O248  1  0.63995804  0.74810515  0.49872125  1
  O  O249  1  0.62715822  0.74231998  0.98998056  1
  O  O250  1  0.49119544  0.23947191  0.11799301  1
  O  O251  1  0.49184643  0.24420176  0.63149908  1
  O  O252  1  0.49020026  0.74427411  0.11847545  1
  O  O253  1  0.49422143  0.74013395  0.62332452  1
  O  O254  1  1.00016107  0.24295294  0.13190227  1
  O  O255  1  0.99273108  0.24378655  0.63039914  1
  O  O256  1  0.99603866  0.74637409  0.13369421  1
  O  O257  1  0.99331964  0.75517081  0.63787595  1
  O  O258  1  0.00443933  0.24995876  0.36359231  1
  O  O259  1  0.00101353  0.25743116  0.86867159  1
  O  O260  1  0.00956084  0.74715234  0.36433426  1
  O  O261  1  0.00645870  0.75752195  0.87022545  1
  O  O262  1  0.50641718  0.25828237  0.37899316  1
  O  O263  1  0.50707225  0.24322514  0.86655547  1
  O  O264  1  0.50072609  0.76481111  0.38266118  1
  O  O265  1  0.50762271  0.75667213  0.87712865  1
  O  O266  1  0.23701212  0.12731461  0.49461680  1
  O  O267  1  0.25066525  0.13514545  0.99469384  1
  O  O268  1  0.23835501  0.63111211  0.49812316  1
  O  O269  1  0.24466386  0.63243950  1.00091067  1
  O  O270  1  0.74241486  0.13191896  0.49365604  1
  O  O271  1  0.74470796  0.13067426  0.99592169  1
  O  O272  1  0.74887096  0.63439833  0.49633338  1
  O  O273  1  0.74467974  0.62492767  0.99385363  1
  O  O274  1  0.26088874  0.36647317  0.00159626  1
  O  O275  1  0.25436522  0.37443832  0.50614822  1
  O  O276  1  0.25322420  0.86920685  0.00821678  1
  O  O277  1  0.25595125  0.86979489  0.50569965  1
  O  O278  1  0.75450422  0.37081079  0.00463897  1
  O  O279  1  0.75526243  0.37094752  0.50456859  1
  O  O280  1  0.75429771  0.87199060  0.00839069  1
  O  O281  1  0.75564240  0.86147444  0.49956561  1
  O  O282  1  0.12229017  0.49259883  0.24613727  1
  O  O283  1  0.12773468  0.49558896  0.74188329  1
  O  O284  1  0.13170108  0.99885701  0.24445825  1
  O  O285  1  0.13131749  0.99981957  0.73881458  1
  O  O286  1  0.63441712  0.49104707  0.24399848  1
  O  O287  1  0.62872232  0.49090520  0.74549023  1
  O  O288  1  0.63152697  0.99018644  0.24359428  1
  O  O289  1  0.62657733  0.99864774  0.74668207  1
  O  O290  1  0.36848242  0.00411644  0.25748795  1
  O  O291  1  0.36900518  0.00625010  0.75559833  1
  O  O292  1  0.37403903  0.50799601  0.25471889  1
  O  O293  1  0.37026257  0.49763386  0.75967608  1
  O  O294  1  0.86657722  0.00326680  0.25759036  1
  O  O295  1  0.87745640  0.01374788  0.75066497  1
  O  O296  1  0.86699104  0.50905224  0.24237292  1
  O  O297  1  0.86893465  0.49932636  0.75487848  1
  O  O298  1  0.12122427  0.36995988  0.36572513  1
  O  O299  1  0.11839856  0.37526543  0.86714059  1
  O  O300  1  0.12467970  0.86261714  0.37411216  1
  O  O301  1  0.11584798  0.86908773  0.87446699  1
  O  O302  1  0.61877342  0.36974093  0.36702388  1
  O  O303  1  0.63148273  0.36859560  0.86149425  1
  O  O304  1  0.61741871  0.87430815  0.36660111  1
  O  O305  1  0.61706256  0.86513186  0.87776959  1
  O  O306  1  0.38418641  0.13352917  0.12612829  1
  O  O307  1  0.37715855  0.13081455  0.63010889  1
  O  O308  1  0.38165919  0.63190963  0.13187799  1
  O  O309  1  0.38312170  0.62903330  0.62392247  1
  O  O310  1  0.88783111  0.12687520  0.12695152  1
  O  O311  1  0.87846002  0.12998745  0.63110735  1
  O  O312  1  0.88173971  0.63321169  0.13313017  1
  O  O313  1  0.87305953  0.63790577  0.62855029  1
  O  O314  1  0.25945289  0.24989171  0.11485027  1
  O  O315  1  0.25491859  0.25715882  0.62505630  1
  O  O316  1  0.25992598  0.75646361  0.12114373  1
  O  O317  1  0.25375106  0.75591190  0.61966982  1
  O  O318  1  0.75093744  0.25658281  0.11752502  1
  O  O319  1  0.75363320  0.25458876  0.61770254  1
  O  O320  1  0.76174821  0.75456039  0.12460926  1
  O  O321  1  0.75693047  0.74888376  0.61400298  1
  O  O322  1  0.24072937  0.24305830  0.37649454  1
  O  O323  1  0.25130146  0.24515011  0.88478326  1
  O  O324  1  0.24108436  0.74942713  0.38110599  1
  O  O325  1  0.24570450  0.75069259  0.88266947  1
  O  O326  1  0.74141142  0.24406923  0.37941711  1
  O  O327  1  0.74219389  0.24437461  0.88089353  1
  O  O328  1  0.75224584  0.74826264  0.38734212  1
  O  O329  1  0.74290884  0.74330084  0.87741999  1
  O  O330  1  0.00125244  0.11845043  0.00681228  1
  O  O331  1  0.01063445  0.13062613  0.50640717  1
  O  O332  1  0.00764034  0.61938986  0.00509654  1
  O  O333  1  0.01142872  0.61816013  0.49602628  1
  O  O334  1  0.50607521  0.11977535  0.00860015  1
  O  O335  1  0.50277654  0.12001400  0.50452048  1
  O  O336  1  0.50839079  0.61811105  0.00732465  1
  O  O337  1  0.50091807  0.61759279  0.51018967  1
  O  O338  1  0.49218953  0.37962293  0.49506064  1
  O  O339  1  0.48925334  0.38132934  1.00532254  1
  O  O340  1  0.49421323  0.88073620  0.49231982  1
  O  O341  1  0.50016059  0.88186871  0.98999291  1
  O  O342  1  0.99063617  0.38181603  0.49794970  1
  O  O343  1  0.99556327  0.38020404  0.99459480  1
  O  O344  1  0.99166083  0.86591428  0.49154649  1
  O  O345  1  1.00093859  0.88297975  0.99293783  1
  O  O346  1  0.49344570  0.49157171  0.38100831  1
  O  O347  1  0.48957675  0.50515920  0.88219125  1
  O  O348  1  0.49353466  0.99116748  0.38129614  1
  O  O349  1  0.49519113  0.99328511  0.88027350  1
  O  O350  1  1.00357168  0.49793138  0.38974500  1
  O  O351  1  0.99521432  0.49439890  0.88030031  1
  O  O352  1  0.98391284  1.00302965  0.36597631  1
  O  O353  1  1.00184483  0.99209397  0.88237602  1
  O  O354  1  0.00433438  0.00652311  0.11979722  1
  O  O355  1  0.01157840  0.00459381  0.63220928  1
  O  O356  1  0.00626298  0.50609727  0.11854919  1
  O  O357  1  0.01196709  0.49467893  0.61544671  1
  O  O358  1  0.50535365  0.00741995  0.11924945  1
  O  O359  1  0.49669541  0.00774559  0.61712226  1
  O  O360  1  0.50757878  0.50693997  0.11789968  1
  O  O361  1  0.50307379  0.50606010  0.61989994  1
  O  O362  1  0.23600036  0.37570311  0.24774351  1
  O  O363  1  0.24309604  0.38106731  0.74426423  1
  O  O364  1  0.24940534  0.88329782  0.24373356  1
  O  O365  1  0.24852926  0.88226696  0.74316369  1
  O  O366  1  0.74361842  0.38164712  0.24438802  1
  O  O367  1  0.74123066  0.37895341  0.74336031  1
  O  O368  1  0.74184568  0.88093779  0.24390294  1
  O  O369  1  0.74710042  0.87765986  0.75005215  1
  O  O370  1  0.25008933  0.11965687  0.25757794  1
  O  O371  1  0.25517356  0.12053315  0.75477554  1
  O  O372  1  0.26498919  0.62369041  0.25235715  1
  O  O373  1  0.25320038  0.61555209  0.75232331  1
  O  O374  1  0.74907356  0.11903522  0.25541818  1
  O  O375  1  0.75972564  0.12820648  0.75543247  1
  O  O376  1  0.75926546  0.61563255  0.25037107  1
  O  O377  1  0.75001294  0.61608363  0.75706289  1
  O  O378  1  0.36817284  0.11992594  0.37466007  1
  O  O379  1  0.36939714  0.11919726  0.86948070  1
  O  O380  1  0.37706505  0.61992271  0.36699888  1
  O  O381  1  0.37364113  0.61336106  0.87558284  1
  O  O382  1  0.86715071  0.11572639  0.37281755  1
  O  O383  1  0.86959587  0.12541906  0.86510626  1
  O  O384  1  0.87681735  0.63166387  0.35951118  1
  O  O385  1  0.86949754  0.61705766  0.87408109  1
  O  O386  1  0.12482417  0.38128369  0.13502925  1
  O  O387  1  0.12796375  0.38329205  0.62899080  1
  O  O388  1  0.13321124  0.88201876  0.12829449  1
  O  O389  1  0.13108151  0.88429380  0.62385064  1
  O  O390  1  0.62950465  0.37965287  0.13153217  1
  O  O391  1  0.62971325  0.37836781  0.63277819  1
  O  O392  1  0.62882133  0.87969898  0.13091215  1
  O  O393  1  0.62681248  0.87711176  0.62942729  1
  O  O394  1  0.11619787  0.25800786  0.25299018  1
  O  O395  1  0.11678388  0.25705284  0.74936553  1
  O  O396  1  0.11848956  0.74772962  0.25752532  1
  O  O397  1  0.11854998  0.75191373  0.75559792  1
  O  O398  1  0.63162592  0.26413842  0.25474112  1
  O  O399  1  0.61962904  0.25647260  0.75426893  1
  O  O400  1  0.63265974  0.76395997  0.24982003  1
  O  O401  1  0.62221873  0.74740018  0.76481502  1
  O  O402  1  0.36906828  0.25117956  0.23523462  1
  O  O403  1  0.37824006  0.24614027  0.74562839  1
  O  O404  1  0.37189609  0.74158463  0.23946628  1
  O  O405  1  0.37792383  0.74672805  0.74130352  1
  O  O406  1  0.88574743  0.24986750  0.24789926  1
  O  O407  1  0.87843052  0.24224566  0.74402755  1
  O  O408  1  0.88286638  0.74373287  0.24199769  1
  O  O409  1  0.88432636  0.74564568  0.74411071  1
  O  O410  1  0.37897485  0.49421842  0.49470865  1
  O  O411  1  0.37987391  0.49299241  0.99507965  1
  O  O412  1  0.37836986  0.99409054  0.49409529  1
  O  O413  1  0.38164447  0.99894466  0.99324614  1
  O  O414  1  0.88456555  0.49065961  0.51075952  1
  O  O415  1  0.88179532  0.49468987  0.99524831  1
  O  O416  1  0.86926805  1.00100569  0.48363414  1
  O  O417  1  0.88964629  0.99839544  0.99902482  1
  O  O418  1  0.11460585  0.00221272  0.00672884  1
  O  O419  1  0.12933830  0.01019229  0.51031318  1
  O  O420  1  0.12067051  0.50412463  0.00476777  1
  O  O421  1  0.11798299  0.50667273  0.50627860  1
  O  O422  1  0.62022264  0.00605995  0.00551035  1
  O  O423  1  0.61722682  0.00748589  0.49871245  1
  O  O424  1  0.62181441  0.50381505  0.00509796  1
  O  O425  1  0.61717296  0.49805075  0.50744473  1
  O  O426  1  0.37494128  0.36794324  0.11599946  1
  O  O427  1  0.36809844  0.37082092  0.62006697  1
  O  O428  1  0.37267675  0.86715975  0.12561848  1
  O  O429  1  0.37060644  0.86988660  0.61914566  1
  O  O430  1  0.86874537  0.37404559  0.11692179  1
  O  O431  1  0.86808474  0.36836617  0.61636700  1
  O  O432  1  0.87123241  0.86550963  0.12686485  1
  O  O433  1  0.87130424  0.86037730  0.62552300  1
  O  O434  1  0.12749043  0.12887141  0.38307980  1
  O  O435  1  0.13272609  0.12925643  0.87686837  1
  O  O436  1  0.12714833  0.63519022  0.38366297  1
  O  O437  1  0.12902968  0.63154930  0.88361513  1
  O  O438  1  0.62736337  0.12907353  0.37921297  1
  O  O439  1  0.62959982  0.13173973  0.88154910  1
  O  O440  1  0.62764471  0.62829002  0.37679660  1
  O  O441  1  0.63010580  0.63053945  0.88044618  1
