# generated using pymatgen
data_V93Zn93O256
_symmetry_space_group_name_H-M   'P 1'
_cell_length_a   17.03886570
_cell_length_b   17.03979604
_cell_length_c   17.03831373
_cell_angle_alpha   90.02062996
_cell_angle_beta   89.93231742
_cell_angle_gamma   89.97717086
_symmetry_Int_Tables_number   1
_chemical_formula_structural   V93Zn93O256
_chemical_formula_sum   'V93 Zn93 O256'
_cell_volume   4946.87933520
_cell_formula_units_Z   1
loop_
 _symmetry_equiv_pos_site_id
 _symmetry_equiv_pos_as_xyz
  1  'x, y, z'
loop_
 _atom_site_type_symbol
 _atom_site_label
 _atom_site_symmetry_multiplicity
 _atom_site_fract_x
 _atom_site_fract_y
 _atom_site_fract_z
 _atom_site_occupancy
  V  V0  1  0.61689017  0.37647647  0.75286371  1
  V  V1  1  0.24837626  0.24995906  0.50110572  1
  V  V2  1  0.37652893  0.74983863  0.62507187  1
  V  V3  1  0.37878403  0.37294157  -0.00519688  1
  V  V4  1  0.62967929  -0.00259108  0.12415185  1
  V  V5  1  -0.00211421  0.37707903  0.87683668  1
  V  V6  1  0.37548729  -0.00136249  0.37597279  1
  V  V7  1  0.25180759  0.74767788  0.00179827  1
  V  V8  1  0.87498059  0.62827753  0.75035863  1
  V  V9  1  0.49934951  0.62664641  0.62357379  1
  V  V10  1  0.50114985  0.49735880  -0.00360462  1
  V  V11  1  0.62797735  0.37275686  0.24586591  1
  V  V12  1  0.00037718  0.62674787  0.62492391  1
  V  V13  1  0.87573547  -0.00011475  0.37526857  1
  V  V14  1  0.00047815  0.12471110  0.12344695  1
  V  V15  1  0.37724992  0.87008285  0.00243210  1
  V  V16  1  0.00131405  0.87431751  0.37559110  1
  V  V17  1  0.25102910  0.37405310  0.12398847  1
  V  V18  1  0.00111244  0.62701507  0.12492698  1
  V  V19  1  0.25140655  0.74955854  0.49978900  1
  V  V20  1  0.00516893  0.75797924  0.75116587  1
  V  V21  1  0.87480204  0.37499908  0.50113815  1
  V  V22  1  0.37543402  0.12358617  0.25003988  1
  V  V23  1  0.74857833  0.00314289  0.75171196  1
  V  V24  1  0.87570272  0.62459741  0.24900608  1
  V  V25  1  0.62670363  0.62460540  0.49843984  1
  V  V26  1  0.87304287  0.24995794  0.62709750  1
  V  V27  1  0.75086071  -0.00356795  0.24690059  1
  V  V28  1  0.37402495  0.24903704  0.62568672  1
  V  V29  1  0.61804603  0.25457374  0.87491847  1
  V  V30  1  0.24725393  0.87528378  0.63207558  1
  V  V31  1  0.50060539  0.87385639  0.37320951  1
  V  V32  1  0.63134895  0.87187200  0.24409011  1
  V  V33  1  0.12473677  -0.00327884  0.63280683  1
  V  V34  1  0.74727432  0.37537366  0.62528776  1
  V  V35  1  0.50000486  0.12263535  0.12505766  1
  V  V36  1  0.75008867  0.75463289  0.00668329  1
  V  V37  1  0.25174253  0.62457396  0.37415813  1
  V  V38  1  0.87428962  0.50243192  0.87476016  1
  V  V39  1  0.74617899  0.24767021  0.50045623  1
  V  V40  1  0.74438090  0.12335877  0.38037962  1
  V  V41  1  0.62420945  0.00453347  0.61673060  1
  V  V42  1  0.12579859  0.75023215  0.37536436  1
  V  V43  1  0.25122081  -0.00168890  0.25029276  1
  V  V44  1  0.24983763  0.12384480  0.37574182  1
  V  V45  1  0.50052124  0.87581772  0.87473738  1
  V  V46  1  0.37445294  0.24895501  0.12420839  1
  V  V47  1  0.62515968  0.75079639  0.87460334  1
  V  V48  1  0.00041284  0.50267097  0.00002169  1
  V  V49  1  0.87441482  0.00083495  0.87620081  1
  V  V50  1  0.87449886  0.87422063  0.50055906  1
  V  V51  1  0.00092346  0.00038604  0.50107624  1
  V  V52  1  0.37131840  0.12225310  0.75133473  1
  V  V53  1  0.74975888  0.87499190  0.62332599  1
  V  V54  1  0.50105472  0.24829334  0.25036041  1
  V  V55  1  0.50189640  0.12586908  0.61987172  1
  V  V56  1  0.24919930  0.50226341  0.75094485  1
  V  V57  1  0.75132263  0.49403962  0.24340493  1
  V  V58  1  0.50011754  0.37351043  0.37409462  1
  V  V59  1  0.12493911  0.24975620  0.87797103  1
  V  V60  1  0.62312991  0.87548849  0.74980037  1
  V  V61  1  0.37726005  0.62483164  0.24709908  1
  V  V62  1  0.62458980  0.24652325  0.37781878  1
  V  V63  1  0.74792672  0.25747191  0.00392386  1
  V  V64  1  0.49816937  0.74826952  0.24655191  1
  V  V65  1  0.87401244  0.12484484  0.25092951  1
  V  V66  1  0.62839238  0.49435379  0.12261640  1
  V  V67  1  -0.00054207  0.25092317  0.25071017  1
  V  V68  1  0.50091960  -0.00136426  -0.00076508  1
  V  V69  1  0.49741536  0.62597308  0.12349440  1
  V  V70  1  -0.00357612  0.25153663  0.75092045  1
  V  V71  1  0.12357294  0.24899701  0.37492728  1
  V  V72  1  0.62440287  0.49975670  0.62486227  1
  V  V73  1  0.25082557  0.49958701  0.24917379  1
  V  V74  1  0.25489753  0.87021577  0.12637070  1
  V  V75  1  0.12525581  0.62411772  0.50009700  1
  V  V76  1  0.12519110  -0.00082146  0.12460705  1
  V  V77  1  0.37704557  0.87495180  0.49938607  1
  V  V78  1  -0.00030890  0.49946740  0.50013323  1
  V  V79  1  0.75014685  0.62351724  0.37456323  1
  V  V80  1  0.87185771  0.87711922  0.00723311  1
  V  V81  1  0.12690406  0.75726568  0.87254157  1
  V  V82  1  0.50001551  0.49901440  0.49765845  1
  V  V83  1  0.37642067  0.49817988  0.37339667  1
  V  V84  1  0.12372327  0.12392470  0.50177529  1
  V  V85  1  0.86984905  0.25676879  0.12534588  1
  V  V86  1  0.00148845  0.74909416  0.24993389  1
  V  V87  1  0.37895870  0.49717089  0.87322918  1
  V  V88  1  0.24840708  0.37565108  0.62530361  1
  V  V89  1  0.12502724  0.50027494  0.12353394  1
  V  V90  1  0.62445379  0.12577008  -0.00120277  1
  V  V91  1  0.62636322  0.62475413  -0.00214306  1
  V  V92  1  0.12526689  0.37407196  0.25036666  1
  Zn  Zn93  1  0.74895342  0.12901641  0.87531344  1
  Zn  Zn94  1  0.75141349  0.74886537  0.50050970  1
  Zn  Zn95  1  0.00424396  0.87969090  0.87418781  1
  Zn  Zn96  1  0.37468765  0.37392703  0.49867261  1
  Zn  Zn97  1  0.12525879  0.50095006  0.62755060  1
  Zn  Zn98  1  -0.00173935  0.12460750  0.62685495  1
  Zn  Zn99  1  0.74787169  0.50208789  0.75001187  1
  Zn  Zn100  1  0.37643766  0.62683225  0.75120441  1
  Zn  Zn101  1  0.25021381  0.62620074  0.87448128  1
  Zn  Zn102  1  -0.00021460  0.37453050  0.37666785  1
  Zn  Zn103  1  -0.00084550  -0.00185630  -0.00052774  1
  Zn  Zn104  1  0.87315864  0.75513572  0.12719161  1
  Zn  Zn105  1  0.49601607  0.25303234  0.75302413  1
  Zn  Zn106  1  0.87497136  0.75189613  0.62536335  1
  Zn  Zn107  1  0.12628332  0.87348533  0.25067086  1
  Zn  Zn108  1  0.49916600  0.74976954  0.74925852  1
  Zn  Zn109  1  0.74931960  0.62787272  0.87333629  1
  Zn  Zn110  1  0.87566082  0.49719229  0.37367462  1
  Zn  Zn111  1  0.24834715  0.12167810  0.87853086  1
  Zn  Zn112  1  0.50349040  0.00226206  0.49674679  1
  Zn  Zn113  1  0.62673799  0.75026061  0.37514342  1
  Zn  Zn114  1  0.12334046  0.37742345  0.75175322  1
  Zn  Zn115  1  0.24895686  0.24775045  -0.00035989  1
  Zn  Zn116  1  0.12577513  0.62646306  -0.00075849  1
  Zn  Zn117  1  0.86913252  0.38080854  0.00522677  1
  Zn  Zn118  1  0.87274087  0.12719513  0.75151559  1
  Zn  Zn119  1  0.24467030  -0.00323096  0.75566894  1
  Zn  Zn120  1  0.37104688  0.00015480  0.87510678  1
  Zn  Zn121  1  0.12786231  0.12517181  0.00059743  1
  Zn  Zn122  1  0.18828656  0.18705474  0.18767015  1
  Zn  Zn123  1  0.18452587  0.18655211  0.68982291  1
  Zn  Zn124  1  0.18671177  0.68695803  0.18756848  1
  Zn  Zn125  1  0.18712101  0.68770887  0.68692841  1
  Zn  Zn126  1  0.68825244  0.18381313  0.18855196  1
  Zn  Zn127  1  0.68419374  0.18899233  0.68792194  1
  Zn  Zn128  1  0.68622578  0.68326331  0.18604286  1
  Zn  Zn129  1  0.68696402  0.68884722  0.68668944  1
  Zn  Zn130  1  0.31198045  0.31125046  0.31191698  1
  Zn  Zn131  1  0.31034266  0.31183167  0.81084228  1
  Zn  Zn132  1  0.31562519  0.81028592  0.31089903  1
  Zn  Zn133  1  0.31600460  0.81175393  0.81419362  1
  Zn  Zn134  1  0.81385303  0.31261036  0.31565457  1
  Zn  Zn135  1  0.80627947  0.31631305  0.81427171  1
  Zn  Zn136  1  0.81441260  0.81050356  0.31302522  1
  Zn  Zn137  1  0.81282265  0.81518385  0.81583702  1
  Zn  Zn138  1  0.18643214  0.43690330  0.43733065  1
  Zn  Zn139  1  0.18869908  0.43526645  0.93694945  1
  Zn  Zn140  1  0.18783497  0.93655541  0.44186072  1
  Zn  Zn141  1  0.18935905  0.93818453  0.93917505  1
  Zn  Zn142  1  0.68724705  0.43554640  0.43509249  1
  Zn  Zn143  1  0.68834182  0.43787102  0.93374776  1
  Zn  Zn144  1  0.68804740  0.93481909  0.43404156  1
  Zn  Zn145  1  0.68845246  0.93600424  0.93762295  1
  Zn  Zn146  1  0.31185926  0.06105896  0.05962509  1
  Zn  Zn147  1  0.31221932  0.06067718  0.56393164  1
  Zn  Zn148  1  0.31424325  0.56001126  0.06162721  1
  Zn  Zn149  1  0.31455881  0.56194971  0.56199939  1
  Zn  Zn150  1  0.81033432  0.06749800  0.06193706  1
  Zn  Zn151  1  0.81407959  0.06325357  0.56404096  1
  Zn  Zn152  1  0.81319305  0.56876203  0.06177601  1
  Zn  Zn153  1  0.81319940  0.56171564  0.56436263  1
  Zn  Zn154  1  0.44038577  0.43624820  0.18438902  1
  Zn  Zn155  1  0.43590602  0.43867037  0.68493192  1
  Zn  Zn156  1  0.43977508  0.93588375  0.18660244  1
  Zn  Zn157  1  0.43711678  0.93891399  0.68686062  1
  Zn  Zn158  1  0.93971889  0.43847934  0.18860028  1
  Zn  Zn159  1  0.93639116  0.43800096  0.68732388  1
  Zn  Zn160  1  0.93859951  0.93616212  0.18928680  1
  Zn  Zn161  1  0.93577586  0.93878845  0.68730633  1
  Zn  Zn162  1  0.06270266  0.06221194  0.31127645  1
  Zn  Zn163  1  0.05913702  0.06697232  0.81412500  1
  Zn  Zn164  1  0.06347551  0.56215134  0.31302798  1
  Zn  Zn165  1  0.06483797  0.56919101  0.81475012  1
  Zn  Zn166  1  0.56359024  0.05906891  0.31100300  1
  Zn  Zn167  1  0.56004503  0.06560044  0.81091480  1
  Zn  Zn168  1  0.56575070  0.56009964  0.31106247  1
  Zn  Zn169  1  0.56060361  0.56445771  0.81079159  1
  Zn  Zn170  1  0.43576050  0.18753023  0.43941911  1
  Zn  Zn171  1  0.43700570  0.18623928  0.93682774  1
  Zn  Zn172  1  0.43940295  0.68751269  0.43559998  1
  Zn  Zn173  1  0.43748210  0.68568041  0.93487848  1
  Zn  Zn174  1  0.93544661  0.18684114  0.43938178  1
  Zn  Zn175  1  0.93505683  0.18797401  0.93957373  1
  Zn  Zn176  1  0.93549489  0.68735540  0.43724723  1
  Zn  Zn177  1  0.93905064  0.69142833  0.93788850  1
  Zn  Zn178  1  0.05918238  0.31529649  0.06151484  1
  Zn  Zn179  1  0.06262619  0.31312204  0.56471489  1
  Zn  Zn180  1  0.06236257  0.81454920  0.05956869  1
  Zn  Zn181  1  0.06302766  0.81237801  0.56368529  1
  Zn  Zn182  1  0.56037437  0.31225312  0.06281955  1
  Zn  Zn183  1  0.56217929  0.31182890  0.56220427  1
  Zn  Zn184  1  0.56369921  0.81074741  0.06286892  1
  Zn  Zn185  1  0.56511060  0.81227637  0.56046696  1
  O  O186  1  0.11646502  0.11730746  0.12756834  1
  O  O187  1  0.12302977  0.11631111  0.61860440  1
  O  O188  1  0.11960846  0.61721600  0.12386389  1
  O  O189  1  0.11906956  0.62353298  0.61691668  1
  O  O190  1  0.61799525  0.11946763  0.11965307  1
  O  O191  1  0.61436744  0.11569995  0.63215121  1
  O  O192  1  0.61606227  0.61535417  0.11828479  1
  O  O193  1  0.62046494  0.61942097  0.61873225  1
  O  O194  1  0.38149409  0.38007039  0.37437221  1
  O  O195  1  0.36882157  0.38346608  0.88437276  1
  O  O196  1  0.38058310  0.87923772  0.37855280  1
  O  O197  1  0.38222818  0.87702099  0.88536674  1
  O  O198  1  0.87914793  0.37717429  0.38495536  1
  O  O199  1  0.87859730  0.38852096  0.87502441  1
  O  O200  1  0.88092128  0.88096240  0.38006978  1
  O  O201  1  0.87509370  0.88787650  0.88396579  1
  O  O202  1  0.25501267  0.00393301  0.37036436  1
  O  O203  1  0.25142876  0.00246808  0.87120017  1
  O  O204  1  0.25518333  0.50514122  0.36870196  1
  O  O205  1  0.25819488  0.49996904  0.86659167  1
  O  O206  1  0.75542428  0.00619484  0.36897318  1
  O  O207  1  0.75526967  0.00094646  0.86580014  1
  O  O208  1  0.75012911  0.50870474  0.36450663  1
  O  O209  1  0.76214631  0.50459046  0.87231299  1
  O  O210  1  0.24568623  0.49419202  0.13022992  1
  O  O211  1  0.25141561  0.49198346  0.63214077  1
  O  O212  1  0.24365435  0.99157785  0.12998479  1
  O  O213  1  0.24140174  0.99130543  0.62558248  1
  O  O214  1  0.74439772  0.50735611  0.13545929  1
  O  O215  1  0.74214278  0.49359710  0.62609465  1
  O  O216  1  0.74217765  1.00955053  0.13455740  1
  O  O217  1  0.74352704  0.99633810  0.63230373  1
  O  O218  1  0.00763490  0.36891486  0.25245669  1
  O  O219  1  -0.00013679  0.36712765  0.75646254  1
  O  O220  1  0.00248329  0.86843187  0.25836301  1
  O  O221  1  -0.00745037  0.86125765  0.75213941  1
  O  O222  1  0.50569839  0.36750442  0.25458922  1
  O  O223  1  0.51269234  0.37321056  0.74188177  1
  O  O224  1  0.50708797  0.86574338  0.25230457  1
  O  O225  1  0.50608832  0.87497555  0.75628701  1
  O  O226  1  0.49473455  0.12823419  0.24513232  1
  O  O227  1  0.48972366  0.12737864  0.73906948  1
  O  O228  1  0.49902289  0.62904687  0.24244206  1
  O  O229  1  0.49732568  0.62785719  0.73873477  1
  O  O230  1  0.99431116  0.13007963  0.24217990  1
  O  O231  1  0.99463211  0.14063647  0.74929216  1
  O  O232  1  0.99558750  0.62894949  0.24580069  1
  O  O233  1  0.99266091  0.63360784  0.74509041  1
  O  O234  1  0.37576170  0.25812620  0.00509545  1
  O  O235  1  0.36538044  0.25155933  0.50663941  1
  O  O236  1  0.36712189  0.76116247  -0.00512595  1
  O  O237  1  0.37013561  0.75475647  0.50375793  1
  O  O238  1  0.86567638  0.25183394  0.00811657  1
  O  O239  1  0.86830586  0.25555820  0.50684077  1
  O  O240  1  0.86710263  0.75943376  -0.00024598  1
  O  O241  1  0.87309975  0.75852734  0.50305347  1
  O  O242  1  0.12877667  0.24416682  0.49559019  1
  O  O243  1  0.12305395  0.25063958  0.99017254  1
  O  O244  1  0.13124003  0.74359055  0.49450202  1
  O  O245  1  0.13634502  0.75006743  0.99340436  1
  O  O246  1  0.63331557  0.25539617  0.49078374  1
  O  O247  1  0.62916489  0.24742653  0.99519377  1
  O  O248  1  0.63007105  0.74106900  0.49566861  1
  O  O249  1  0.63180382  0.74591771  0.99510012  1
  O  O250  1  0.49432140  0.24207001  0.13111738  1
  O  O251  1  0.49350536  0.24183252  0.62544224  1
  O  O252  1  0.50751464  0.73622016  0.13330715  1
  O  O253  1  0.49423104  0.74466074  0.62356102  1
  O  O254  1  0.99301863  0.24221741  0.13044305  1
  O  O255  1  0.99292252  0.25265977  0.63567759  1
  O  O256  1  1.00241481  0.74452472  0.13238202  1
  O  O257  1  0.99946751  0.74523328  0.63387651  1
  O  O258  1  0.00593013  0.24837491  0.36838405  1
  O  O259  1  0.00225624  0.25625576  0.86986181  1
  O  O260  1  0.00630966  0.75404093  0.37061052  1
  O  O261  1  0.00959491  0.75122238  0.86764191  1
  O  O262  1  0.50410869  0.25212099  0.36949288  1
  O  O263  1  0.51388591  0.24802853  0.87520659  1
  O  O264  1  0.50374721  0.75374768  0.36305948  1
  O  O265  1  0.50747225  0.75732274  0.87478524  1
  O  O266  1  0.24418943  0.12980491  0.49484237  1
  O  O267  1  0.24647067  0.13019802  0.99808157  1
  O  O268  1  0.24617818  0.62956413  0.49374107  1
  O  O269  1  0.25306233  0.63832363  1.00315125  1
  O  O270  1  0.75617865  0.12959754  0.48721242  1
  O  O271  1  0.74128810  0.13757814  0.99849563  1
  O  O272  1  0.74620614  0.62225455  0.49046286  1
  O  O273  1  0.74383548  0.63483058  0.99579345  1
  O  O274  1  0.26171758  0.37345892  0.00657283  1
  O  O275  1  0.24995099  0.36979501  0.50902760  1
  O  O276  1  0.25861310  0.86803678  0.00794209  1
  O  O277  1  0.25716804  0.86812045  0.50763030  1
  O  O278  1  0.74969205  0.36213055  -0.00160873  1
  O  O279  1  0.75485258  0.36946517  0.50521113  1
  O  O280  1  0.75839844  0.86584388  -0.00412492  1
  O  O281  1  0.75635780  0.87528312  0.50599934  1
  O  O282  1  0.13136796  0.49443064  0.24470816  1
  O  O283  1  0.13540333  0.49969034  0.74998160  1
  O  O284  1  0.13232941  0.99813488  0.24099681  1
  O  O285  1  0.12290376  1.00697114  0.73617989  1
  O  O286  1  0.63303601  0.49356095  0.24302885  1
  O  O287  1  0.62515000  0.49347252  0.74449611  1
  O  O288  1  0.63005490  0.99015821  0.24434456  1
  O  O289  1  0.63247140  0.99533270  0.74300731  1
  O  O290  1  0.37106182  0.00408940  0.25538629  1
  O  O291  1  0.37244951  0.01067270  0.75052487  1
  O  O292  1  0.37083616  0.50399264  0.25378593  1
  O  O293  1  0.36750367  0.49823087  0.75811568  1
  O  O294  1  0.87087384  0.00442213  0.25604701  1
  O  O295  1  0.86514146  0.00018698  0.75825702  1
  O  O296  1  0.86732625  0.50482930  0.25016432  1
  O  O297  1  0.87642561  0.51090592  0.75796269  1
  O  O298  1  0.12425298  0.36691819  0.36853715  1
  O  O299  1  0.11640274  0.36714163  0.87411077  1
  O  O300  1  0.12010177  0.86847147  0.37549998  1
  O  O301  1  0.12395872  0.86196203  0.88156525  1
  O  O302  1  0.61890131  0.36785961  0.36632210  1
  O  O303  1  0.62906774  0.36776197  0.86419069  1
  O  O304  1  0.61877812  0.87373348  0.36256427  1
  O  O305  1  0.61945374  0.87061102  0.87000860  1
  O  O306  1  0.38037980  0.12800802  0.13072740  1
  O  O307  1  0.37985650  0.12913701  0.63220442  1
  O  O308  1  0.39042355  0.61535489  0.13035838  1
  O  O309  1  0.38185896  0.63239266  0.62303134  1
  O  O310  1  0.88295384  0.13302949  0.13110819  1
  O  O311  1  0.87728390  0.13384724  0.62953856  1
  O  O312  1  0.88371033  0.62882218  0.13185416  1
  O  O313  1  0.88084231  0.62705153  0.63494963  1
  O  O314  1  0.25720008  0.25646219  0.12575801  1
  O  O315  1  0.25262077  0.25733595  0.62157271  1
  O  O316  1  0.24350944  0.76164566  0.11699805  1
  O  O317  1  0.25436331  0.75653453  0.61863858  1
  O  O318  1  0.75971550  0.24226681  0.11797219  1
  O  O319  1  0.75278135  0.25480774  0.62017403  1
  O  O320  1  0.75040631  0.74386621  0.11100988  1
  O  O321  1  0.75199587  0.76219755  0.62401103  1
  O  O322  1  0.24407358  0.24336155  0.37976834  1
  O  O323  1  0.23527805  0.25089664  0.87511381  1
  O  O324  1  0.24707729  0.74384449  0.37939967  1
  O  O325  1  0.24490740  0.75078427  0.88370358  1
  O  O326  1  0.74575296  0.24070925  0.37905388  1
  O  O327  1  0.73961270  0.24929834  0.88425486  1
  O  O328  1  0.74930198  0.73457408  0.37412290  1
  O  O329  1  0.74285578  0.74999012  0.88457762  1
  O  O330  1  0.00014859  0.12264251  0.01475520  1
  O  O331  1  0.00559607  0.11805680  0.50186763  1
  O  O332  1  0.00104949  0.62006958  0.00696263  1
  O  O333  1  0.00406175  0.61820582  0.50459350  1
  O  O334  1  0.50463521  0.11865976  0.00607549  1
  O  O335  1  0.49287810  0.12158752  0.51474124  1
  O  O336  1  0.50530141  0.61975134  0.00668235  1
  O  O337  1  0.50661744  0.61852689  0.50250787  1
  O  O338  1  0.49812803  0.38080188  0.49203811  1
  O  O339  1  0.48644843  0.38147511  1.00567413  1
  O  O340  1  0.49464730  0.87563690  0.49124725  1
  O  O341  1  0.49411497  0.87766904  0.99736807  1
  O  O342  1  0.99537387  0.38400609  0.50174852  1
  O  O343  1  0.99362015  0.38460557  0.99441085  1
  O  O344  1  0.99507531  0.88044892  0.49461454  1
  O  O345  1  0.98807841  0.87799577  0.99620782  1
  O  O346  1  0.49612918  0.49354151  0.37722198  1
  O  O347  1  0.48787302  0.50479259  0.88072868  1
  O  O348  1  0.49391394  0.99346736  0.37535035  1
  O  O349  1  0.50059094  0.99340150  0.88285349  1
  O  O350  1  0.99916462  0.49946613  0.38817618  1
  O  O351  1  0.99285744  0.49832593  0.87938755  1
  O  O352  1  0.99557258  0.99524618  0.37988319  1
  O  O353  1  0.98929990  0.99986250  0.87669328  1
  O  O354  1  0.00853055  0.00863533  0.12873412  1
  O  O355  1  0.00795438  -0.00055376  0.61964856  1
  O  O356  1  0.00578997  0.50570510  0.12017415  1
  O  O357  1  0.00191555  0.50589631  0.61607095  1
  O  O358  1  0.50764501  0.00418805  0.11963729  1
  O  O359  1  0.50874797  0.00679222  0.62318985  1
  O  O360  1  0.50769060  0.50712047  0.11782011  1
  O  O361  1  0.50431008  0.50573413  0.61690078  1
  O  O362  1  0.24520534  0.38021706  0.24430183  1
  O  O363  1  0.24823697  0.38422160  0.74135964  1
  O  O364  1  0.25174963  0.87854071  0.24137879  1
  O  O365  1  0.25619266  0.87483375  0.73489877  1
  O  O366  1  0.74476250  0.38666715  0.25749317  1
  O  O367  1  0.73777804  0.37831966  0.74236316  1
  O  O368  1  0.73959700  0.87927883  0.25648790  1
  O  O369  1  0.74500572  0.88544351  0.74413702  1
  O  O370  1  0.25608029  0.11868342  0.25557490  1
  O  O371  1  0.26080659  0.12399756  0.75051119  1
  O  O372  1  0.25679314  0.61960000  0.25367477  1
  O  O373  1  0.25402027  0.61282806  0.74802479  1
  O  O374  1  0.75553416  0.11805754  0.26045846  1
  O  O375  1  0.74937443  0.11316134  0.75098322  1
  O  O376  1  0.75406192  0.61567627  0.25588612  1
  O  O377  1  0.76233304  0.62540895  0.75111577  1
  O  O378  1  0.36914757  0.11923717  0.36976728  1
  O  O379  1  0.37472082  0.12397453  0.86383337  1
  O  O380  1  0.37090538  0.61831515  0.36770253  1
  O  O381  1  0.37034318  0.61250105  0.87403342  1
  O  O382  1  0.86663764  0.11939189  0.37000197  1
  O  O383  1  0.87084643  0.11353870  0.87524462  1
  O  O384  1  0.86664553  0.62094188  0.36841053  1
  O  O385  1  0.87736662  0.61808760  0.86665459  1
  O  O386  1  0.12992742  0.38019899  0.13048585  1
  O  O387  1  0.13727973  0.37721991  0.62786868  1
  O  O388  1  0.13455340  0.88385679  0.12676204  1
  O  O389  1  0.13597973  0.88446873  0.61711267  1
  O  O390  1  0.61870512  0.38224624  0.13267044  1
  O  O391  1  0.62871023  0.38032584  0.63164849  1
  O  O392  1  0.61963849  0.88070639  0.13669171  1
  O  O393  1  0.63044200  0.88419531  0.62976591  1
  O  O394  1  0.11993484  0.25420286  0.25498226  1
  O  O395  1  0.11331168  0.25226656  0.75879032  1
  O  O396  1  0.12034516  0.75058137  0.25856211  1
  O  O397  1  0.11635494  0.74417796  0.75904764  1
  O  O398  1  0.61996252  0.25252509  0.25535126  1
  O  O399  1  0.62362873  0.25850891  0.75838178  1
  O  O400  1  0.61744671  0.75558023  0.24952185  1
  O  O401  1  0.62424551  0.75808722  0.75615900  1
  O  O402  1  0.38081462  0.24290358  0.24504040  1
  O  O403  1  0.37609083  0.24276740  0.74422313  1
  O  O404  1  0.38949577  0.74203489  0.25223653  1
  O  O405  1  0.37763158  0.74731564  0.74104033  1
  O  O406  1  0.87822957  0.24490129  0.24390626  1
  O  O407  1  0.88025979  0.25279440  0.74749877  1
  O  O408  1  0.88269910  0.74357324  0.24801675  1
  O  O409  1  0.88327031  0.74188308  0.75271325  1
  O  O410  1  0.38167911  0.49793586  0.49093737  1
  O  O411  1  0.37930409  0.49207537  0.99224738  1
  O  O412  1  0.37542790  0.99260384  0.49268929  1
  O  O413  1  0.38236678  0.98803616  0.99990289  1
  O  O414  1  0.88509624  0.49447046  0.50107908  1
  O  O415  1  0.87928078  0.50186266  0.99116972  1
  O  O416  1  0.88095790  0.99497044  0.49477425  1
  O  O417  1  0.87146682  0.99505679  0.99313001  1
  O  O418  1  0.12265984  0.00074991  0.01460726  1
  O  O419  1  0.12003408  0.00538556  0.50833313  1
  O  O420  1  0.11968121  0.50120282  0.00580952  1
  O  O421  1  0.11663107  0.50574963  0.50135716  1
  O  O422  1  0.62121044  0.00450605  0.00468116  1
  O  O423  1  0.62607984  -0.00406983  0.51307408  1
  O  O424  1  0.62134168  0.50388718  0.00198562  1
  O  O425  1  0.61947421  0.50382964  0.50445564  1
  O  O426  1  0.37067360  0.36939897  0.11759363  1
  O  O427  1  0.36363115  0.36899668  0.62364596  1
  O  O428  1  0.36557004  0.87964875  0.11606140  1
  O  O429  1  0.36835363  0.87018340  0.61839717  1
  O  O430  1  0.88120070  0.36016311  0.12539169  1
  O  O431  1  0.86729298  0.37010755  0.62105011  1
  O  O432  1  0.87746484  0.87551314  0.11298342  1
  O  O433  1  0.86589017  0.87688656  0.61875251  1
  O  O434  1  0.13084594  0.12873538  0.38002406  1
  O  O435  1  0.12261606  0.13722999  0.87889053  1
  O  O436  1  0.13264439  0.62986538  0.38007749  1
  O  O437  1  0.13079243  0.63827384  0.88060636  1
  O  O438  1  0.63663465  0.12863673  0.36805392  1
  O  O439  1  0.62567739  0.13468204  0.88072124  1
  O  O440  1  0.63469181  0.62340420  0.37921344  1
  O  O441  1  0.62487410  0.63164373  0.88080426  1
