# generated using pymatgen
data_V93Zn93O256
_symmetry_space_group_name_H-M   'P 1'
_cell_length_a   17.04558343
_cell_length_b   17.04731282
_cell_length_c   17.04620865
_cell_angle_alpha   89.95021428
_cell_angle_beta   89.96962364
_cell_angle_gamma   90.03613984
_symmetry_Int_Tables_number   1
_chemical_formula_structural   V93Zn93O256
_chemical_formula_sum   'V93 Zn93 O256'
_cell_volume   4953.30750022
_cell_formula_units_Z   1
loop_
 _symmetry_equiv_pos_site_id
 _symmetry_equiv_pos_as_xyz
  1  'x, y, z'
loop_
 _atom_site_type_symbol
 _atom_site_label
 _atom_site_symmetry_multiplicity
 _atom_site_fract_x
 _atom_site_fract_y
 _atom_site_fract_z
 _atom_site_occupancy
  V  V0  1  0.87325407  0.74841864  0.12166823  1
  V  V1  1  0.62453097  0.12431016  0.00121108  1
  V  V2  1  0.87541928  0.74851390  0.62461727  1
  V  V3  1  0.37518790  0.62439786  0.24979917  1
  V  V4  1  0.24987417  0.12482041  0.37480558  1
  V  V5  1  0.00124647  -0.00068801  0.49901933  1
  V  V6  1  0.00034710  0.12494798  0.12420923  1
  V  V7  1  0.37391906  0.74987112  0.12509301  1
  V  V8  1  0.49918170  0.62518865  0.12549667  1
  V  V9  1  0.00070454  0.00099857  -0.00052383  1
  V  V10  1  0.12089851  0.62638746  0.00229667  1
  V  V11  1  0.24804956  0.37577846  0.12398691  1
  V  V12  1  0.12678842  0.00002275  0.62473922  1
  V  V13  1  0.12591176  0.12542115  0.49994786  1
  V  V14  1  0.00012948  0.25027298  0.74931225  1
  V  V15  1  0.50156469  0.62437203  0.62556640  1
  V  V16  1  0.00014124  0.74539585  0.24373355  1
  V  V17  1  0.37678824  0.00388084  0.86899858  1
  V  V18  1  0.49875123  0.50107137  0.00038467  1
  V  V19  1  0.25489258  0.12680495  0.86929219  1
  V  V20  1  0.62677471  0.87382380  0.24915426  1
  V  V21  1  0.37296253  0.37579447  0.00109414  1
  V  V22  1  0.74828888  0.37485103  0.62502772  1
  V  V23  1  0.24979906  -0.00012439  0.24894438  1
  V  V24  1  0.62419657  0.49952827  0.12624762  1
  V  V25  1  0.87430714  0.38020812  -0.00666955  1
  V  V26  1  0.49957619  0.37459228  0.87445060  1
  V  V27  1  0.24993427  0.75220392  0.00012418  1
  V  V28  1  0.62542808  0.63159608  -0.00375855  1
  V  V29  1  0.87225629  0.12457494  0.25129880  1
  V  V30  1  0.74852172  0.87440262  0.62509219  1
  V  V31  1  0.00073268  0.12605500  0.62494190  1
  V  V32  1  0.74776595  0.62993208  0.87530089  1
  V  V33  1  0.00132736  0.74999648  0.74922226  1
  V  V34  1  0.62476703  0.00091437  0.12531282  1
  V  V35  1  0.50091154  0.87455841  0.37725961  1
  V  V36  1  0.74973775  0.12506466  0.87471987  1
  V  V37  1  0.12571473  0.87512251  0.24895888  1
  V  V38  1  0.25075120  0.87628279  0.12447469  1
  V  V39  1  0.74926816  0.00057878  0.74944416  1
  V  V40  1  0.50872347  0.75025250  0.75516379  1
  V  V41  1  0.37611697  -0.00081760  0.37569315  1
  V  V42  1  0.74515682  0.24166867  0.50115544  1
  V  V43  1  0.87619717  0.61930448  0.75659703  1
  V  V44  1  0.12516452  0.50043280  0.62450101  1
  V  V45  1  0.12389759  0.25119559  0.87763188  1
  V  V46  1  0.87530654  0.00038740  0.87483847  1
  V  V47  1  0.25006607  0.50091496  0.74929146  1
  V  V48  1  0.50486908  0.12501544  0.62901258  1
  V  V49  1  0.75164768  0.49827183  0.75602219  1
  V  V50  1  0.00010354  0.87362315  0.37414095  1
  V  V51  1  0.75071038  0.74789270  0.50065631  1
  V  V52  1  -0.00049932  0.24954659  0.25038192  1
  V  V53  1  0.87549888  0.24964283  0.62451349  1
  V  V54  1  0.25752578  0.37601030  0.62027500  1
  V  V55  1  0.37410390  0.50025804  0.87569947  1
  V  V56  1  0.75009763  0.62225227  0.37567713  1
  V  V57  1  -0.00029846  0.49904966  0.50011496  1
  V  V58  1  0.49590632  0.49251524  0.50131465  1
  V  V59  1  0.00081807  0.87690671  0.87447878  1
  V  V60  1  0.24970176  0.62629131  0.87526909  1
  V  V61  1  0.11671511  0.50597216  0.12496010  1
  V  V62  1  0.25764037  0.25375393  0.49946243  1
  V  V63  1  0.24834048  0.50056259  0.25036961  1
  V  V64  1  0.00039348  0.62355881  0.62485148  1
  V  V65  1  -0.00167434  0.37528946  0.37507609  1
  V  V66  1  -0.00361146  0.50361363  -0.00578018  1
  V  V67  1  0.12457610  0.37561491  0.74994647  1
  V  V68  1  0.87659989  0.62313456  0.24559778  1
  V  V69  1  0.13106382  0.87785891  0.74845450  1
  V  V70  1  0.74996622  0.25142042  -0.00001460  1
  V  V71  1  0.12479155  0.25077332  0.37550347  1
  V  V72  1  0.37477059  0.24285600  0.63272711  1
  V  V73  1  0.37540779  0.75293503  0.62487344  1
  V  V74  1  0.25141599  0.75024404  0.49995679  1
  V  V75  1  0.50622107  0.87378394  0.87614084  1
  V  V76  1  0.62338789  0.25160583  0.87486153  1
  V  V77  1  0.87487205  -0.00117111  0.37381451  1
  V  V78  1  0.74843241  0.37593374  0.12639047  1
  V  V79  1  0.37345803  0.12590895  0.24836803  1
  V  V80  1  0.12251810  0.37621589  0.24910120  1
  V  V81  1  0.12639087  0.75169021  0.87480794  1
  V  V82  1  0.62472005  0.74826529  0.37461185  1
  V  V83  1  0.87443284  0.49928463  0.37490558  1
  V  V84  1  0.25011051  0.62521861  0.37568776  1
  V  V85  1  0.62436856  0.62221556  0.49997750  1
  V  V86  1  0.50007384  0.25189897  0.25037463  1
  V  V87  1  0.37447594  0.49244053  0.37946840  1
  V  V88  1  0.12566739  0.74907449  0.37506640  1
  V  V89  1  0.50821235  0.00584005  0.50003448  1
  V  V90  1  0.62398685  0.24406132  0.37902298  1
  V  V91  1  0.37619936  0.62584690  0.75136669  1
  V  V92  1  0.37322490  0.25102648  0.12504961  1
  Zn  Zn93  1  0.87422993  0.25164931  0.12503308  1
  Zn  Zn94  1  0.49881087  -0.00014380  -0.00076413  1
  Zn  Zn95  1  0.62431458  0.37550943  0.25352374  1
  Zn  Zn96  1  0.74331575  0.11985202  0.38012094  1
  Zn  Zn97  1  0.63013451  0.00759089  0.61947568  1
  Zn  Zn98  1  0.87367822  0.87296337  0.00013421  1
  Zn  Zn99  1  0.49947122  0.74871843  0.25106809  1
  Zn  Zn100  1  0.37670423  0.87773608  0.00003128  1
  Zn  Zn101  1  0.12481152  0.62582024  0.50050013  1
  Zn  Zn102  1  0.74632795  0.75417126  -0.00487110  1
  Zn  Zn103  1  0.49862196  0.37116154  0.38121267  1
  Zn  Zn104  1  0.12658032  0.12707592  0.00019116  1
  Zn  Zn105  1  0.24941498  0.24926336  -0.00002693  1
  Zn  Zn106  1  0.12654771  0.00070976  0.12358660  1
  Zn  Zn107  1  0.87591866  0.87305259  0.49920124  1
  Zn  Zn108  1  0.87605291  0.12612370  0.75040280  1
  Zn  Zn109  1  0.62908911  0.87150731  0.75458076  1
  Zn  Zn110  1  -0.00558764  0.37846700  0.87203839  1
  Zn  Zn111  1  0.49692236  0.24512182  0.75381710  1
  Zn  Zn112  1  0.87312275  0.37379692  0.49786979  1
  Zn  Zn113  1  0.75028264  0.87473676  0.12048122  1
  Zn  Zn114  1  0.74714568  0.49844477  0.25214013  1
  Zn  Zn115  1  0.75001585  -0.00068590  0.24993998  1
  Zn  Zn116  1  0.25792871  0.00844375  0.74358923  1
  Zn  Zn117  1  0.62370014  0.49783779  0.62551171  1
  Zn  Zn118  1  0.49730203  0.12466723  0.12250944  1
  Zn  Zn119  1  0.25253784  0.87870221  0.62233501  1
  Zn  Zn120  1  0.37625942  0.87632346  0.50032318  1
  Zn  Zn121  1  0.62188532  0.37510875  0.75114145  1
  Zn  Zn122  1  0.18639531  0.18815895  0.18704587  1
  Zn  Zn123  1  0.18667003  0.18940440  0.68798379  1
  Zn  Zn124  1  0.18852904  0.68746483  0.18736433  1
  Zn  Zn125  1  0.18836590  0.68821407  0.68667298  1
  Zn  Zn126  1  0.68597258  0.18858935  0.18840028  1
  Zn  Zn127  1  0.68368804  0.18744593  0.68884647  1
  Zn  Zn128  1  0.68928784  0.68667982  0.18640314  1
  Zn  Zn129  1  0.68858460  0.68408445  0.68620877  1
  Zn  Zn130  1  0.31076799  0.31331787  0.31027755  1
  Zn  Zn131  1  0.31075157  0.31359736  0.81186358  1
  Zn  Zn132  1  0.31363325  0.81279909  0.31193064  1
  Zn  Zn133  1  0.31839938  0.81560783  0.81401112  1
  Zn  Zn134  1  0.81083086  0.31039110  0.31397001  1
  Zn  Zn135  1  0.81170879  0.31109099  0.81169146  1
  Zn  Zn136  1  0.81170353  0.81029295  0.31087755  1
  Zn  Zn137  1  0.81522289  0.81196803  0.81193134  1
  Zn  Zn138  1  0.18556306  0.43814394  0.43804327  1
  Zn  Zn139  1  0.18516794  0.43825194  0.93844774  1
  Zn  Zn140  1  0.18912523  0.93525264  0.43756090  1
  Zn  Zn141  1  0.19021853  0.94122242  0.93634498  1
  Zn  Zn142  1  0.68416333  0.43303151  0.43824438  1
  Zn  Zn143  1  0.68640643  0.44124554  0.93807010  1
  Zn  Zn144  1  0.68894628  0.93474005  0.43717040  1
  Zn  Zn145  1  0.68825395  0.93683166  0.93952085  1
  Zn  Zn146  1  0.31258717  0.06344622  0.05637895  1
  Zn  Zn147  1  0.31680447  0.06347094  0.56125049  1
  Zn  Zn148  1  0.30871737  0.56350706  0.06298893  1
  Zn  Zn149  1  0.31430348  0.56562329  0.56179925  1
  Zn  Zn150  1  0.81168293  0.06127863  0.06290491  1
  Zn  Zn151  1  0.81653167  0.06216769  0.56274109  1
  Zn  Zn152  1  0.81142852  0.56234512  0.06252424  1
  Zn  Zn153  1  0.81376495  0.55988011  0.56427346  1
  Zn  Zn154  1  0.43624218  0.43739539  0.18923660  1
  Zn  Zn155  1  0.43704717  0.43543761  0.68842052  1
  Zn  Zn156  1  0.43875954  0.93655428  0.18843753  1
  Zn  Zn157  1  0.44239722  0.93824085  0.68891962  1
  Zn  Zn158  1  0.93505114  0.43773647  0.18457429  1
  Zn  Zn159  1  0.93578470  0.43590642  0.68667227  1
  Zn  Zn160  1  0.93806011  0.93468005  0.18611662  1
  Zn  Zn161  1  0.93760636  0.93746715  0.68733860  1
  Zn  Zn162  1  0.06301786  0.06199020  0.31206888  1
  Zn  Zn163  1  0.06555303  0.06521720  0.81178893  1
  Zn  Zn164  1  0.06128811  0.56375636  0.31406845  1
  Zn  Zn165  1  0.06352294  0.56244433  0.81406880  1
  Zn  Zn166  1  0.56037513  0.06292782  0.31064648  1
  Zn  Zn167  1  0.56266098  0.06230609  0.81084056  1
  Zn  Zn168  1  0.56091373  0.56031647  0.31307860  1
  Zn  Zn169  1  0.56533934  0.56105136  0.81275164  1
  Zn  Zn170  1  0.43850599  0.18422945  0.43916721  1
  Zn  Zn171  1  0.43740509  0.18678307  0.93918998  1
  Zn  Zn172  1  0.43820336  0.68408949  0.43785999  1
  Zn  Zn173  1  0.43755038  0.68962289  0.93865731  1
  Zn  Zn174  1  0.93516548  0.18810576  0.43929229  1
  Zn  Zn175  1  0.93491803  0.18984830  0.93775178  1
  Zn  Zn176  1  0.93765446  0.68565305  0.43648295  1
  Zn  Zn177  1  0.93936003  0.68643622  0.93638122  1
  Zn  Zn178  1  0.05908581  0.31573890  0.06220405  1
  Zn  Zn179  1  0.06514625  0.31398791  0.56178602  1
  Zn  Zn180  1  0.06262713  0.81459245  0.06270753  1
  Zn  Zn181  1  0.06355932  0.81263333  0.56171819  1
  Zn  Zn182  1  0.56101096  0.31216857  0.06182136  1
  Zn  Zn183  1  0.56329097  0.30900598  0.56420534  1
  Zn  Zn184  1  0.55966065  0.81344898  0.06354655  1
  Zn  Zn185  1  0.56309641  0.81351282  0.56196439  1
  O  O186  1  0.11210203  0.12366338  0.12438686  1
  O  O187  1  0.12056128  0.12062890  0.61910586  1
  O  O188  1  0.13093472  0.61374137  0.11915626  1
  O  O189  1  0.11845774  0.61842072  0.62570283  1
  O  O190  1  0.62460378  0.11634537  0.12126665  1
  O  O191  1  0.61254539  0.12590908  0.62296077  1
  O  O192  1  0.62002188  0.61820195  0.11865314  1
  O  O193  1  0.61892573  0.62237188  0.61768974  1
  O  O194  1  0.37412908  0.38910116  0.37081780  1
  O  O195  1  0.37797618  0.38153782  0.88070114  1
  O  O196  1  0.38342689  0.88163635  0.37346662  1
  O  O197  1  0.38552537  0.88395193  0.87733473  1
  O  O198  1  0.88122867  0.38100568  0.37412134  1
  O  O199  1  0.87296212  0.37279258  0.88925372  1
  O  O200  1  0.88030356  0.88383489  0.37276868  1
  O  O201  1  0.88414228  0.88154116  0.87460092  1
  O  O202  1  0.25511192  0.00542501  0.36968766  1
  O  O203  1  0.25776740  0.00916080  0.87202430  1
  O  O204  1  0.25516296  0.50426333  0.37093089  1
  O  O205  1  0.25380598  0.50608656  0.86949129  1
  O  O206  1  0.76136044  0.00173837  0.37399892  1
  O  O207  1  0.75510654  0.00446081  0.86723638  1
  O  O208  1  0.75570379  0.50383397  0.37492189  1
  O  O209  1  0.74784482  0.50986929  0.86366766  1
  O  O210  1  0.23989304  0.49513252  0.13079521  1
  O  O211  1  0.24741284  0.49417931  0.62808324  1
  O  O212  1  0.24886901  0.99540769  0.13084238  1
  O  O213  1  0.24436148  0.99929539  0.62588785  1
  O  O214  1  0.74312898  0.49104747  0.12608269  1
  O  O215  1  0.74952370  0.49045081  0.63300838  1
  O  O216  1  0.73866828  0.99739166  0.12838076  1
  O  O217  1  0.75284776  0.99226717  0.63093022  1
  O  O218  1  0.00352908  0.36962424  0.25411799  1
  O  O219  1  0.00593137  0.36980409  0.75123563  1
  O  O220  1  0.00555054  0.86575433  0.25495079  1
  O  O221  1  0.01024514  0.87056097  0.75372737  1
  O  O222  1  0.49821605  0.36161505  0.25286091  1
  O  O223  1  0.50117136  0.37272745  0.75922616  1
  O  O224  1  0.51191112  0.87338840  0.25720093  1
  O  O225  1  0.50451659  0.86616927  0.75652374  1
  O  O226  1  0.49170424  0.13672744  0.24877632  1
  O  O227  1  0.50197097  0.12589033  0.73610704  1
  O  O228  1  0.49306631  0.62488436  0.24314148  1
  O  O229  1  0.49558455  0.63105599  0.74755511  1
  O  O230  1  0.99278089  0.12825262  0.24322935  1
  O  O231  1  1.00020978  0.13186754  0.74216758  1
  O  O232  1  0.98930495  0.63524878  0.25654006  1
  O  O233  1  0.99379080  0.62850161  0.74634341  1
  O  O234  1  0.37366803  0.25867986  0.00759657  1
  O  O235  1  0.36150707  0.24674314  0.50620903  1
  O  O236  1  0.36649543  0.75052852  0.00717795  1
  O  O237  1  0.37203538  0.74887595  0.51047436  1
  O  O238  1  0.86827089  0.26030790  0.00332611  1
  O  O239  1  0.86522551  0.25275682  0.50559738  1
  O  O240  1  0.87829650  0.74754382  0.01215874  1
  O  O241  1  0.86905090  0.74935007  0.50618935  1
  O  O242  1  0.13429119  0.24467189  0.49483661  1
  O  O243  1  0.12437220  0.25235521  0.98882061  1
  O  O244  1  0.13166745  0.74858426  0.49295754  1
  O  O245  1  0.12894316  0.74632834  0.99447768  1
  O  O246  1  0.63358910  0.25348596  0.49107996  1
  O  O247  1  0.63047983  0.24461056  0.99502987  1
  O  O248  1  0.63078661  0.74309726  0.49469244  1
  O  O249  1  0.62586813  0.73446379  1.00829159  1
  O  O250  1  0.49305576  0.24976350  0.13444943  1
  O  O251  1  0.49073521  0.24268831  0.62359216  1
  O  O252  1  0.49187472  0.74250718  0.12723849  1
  O  O253  1  0.49307529  0.74534224  0.63226710  1
  O  O254  1  0.99830291  0.24134237  0.13105062  1
  O  O255  1  0.99680171  0.24615440  0.62863630  1
  O  O256  1  0.99278620  0.75461366  0.13734862  1
  O  O257  1  0.99600171  0.74415480  0.63008922  1
  O  O258  1  0.00547675  0.25446621  0.37077451  1
  O  O259  1  0.00842064  0.25165648  0.86914470  1
  O  O260  1  0.00427711  0.75421093  0.36590296  1
  O  O261  1  0.00691874  0.75600315  0.86862169  1
  O  O262  1  0.50452206  0.24997587  0.36973639  1
  O  O263  1  0.50505939  0.25671055  0.87585123  1
  O  O264  1  0.50703340  0.75470420  0.37485901  1
  O  O265  1  0.49172565  0.75949563  0.86442656  1
  O  O266  1  0.24485350  0.13364069  0.49399570  1
  O  O267  1  0.24494816  0.12929627  0.98765495  1
  O  O268  1  0.24825675  0.63228652  0.49357051  1
  O  O269  1  0.24217685  0.63141974  0.99395450  1
  O  O270  1  0.75411107  0.13737507  0.50040344  1
  O  O271  1  0.74527375  0.13071332  0.99508417  1
  O  O272  1  0.74525570  0.62821981  0.49603500  1
  O  O273  1  0.74306348  0.62360918  0.99093950  1
  O  O274  1  0.25554348  0.37581953  0.00659533  1
  O  O275  1  0.24177515  0.36506759  0.50960709  1
  O  O276  1  0.24962183  0.86919677  0.00611500  1
  O  O277  1  0.25523712  0.86619584  0.50201920  1
  O  O278  1  0.75557507  0.37360024  0.00710562  1
  O  O279  1  0.75070751  0.36592538  0.51054183  1
  O  O280  1  0.75564309  0.86975752  0.00083000  1
  O  O281  1  0.75337111  0.86738662  0.50847572  1
  O  O282  1  0.12706765  0.49674008  0.24321619  1
  O  O283  1  0.13108301  0.49604814  0.74434828  1
  O  O284  1  0.13163247  0.99327663  0.24958704  1
  O  O285  1  0.12588252  0.99117953  0.74414195  1
  O  O286  1  0.62567519  0.49569356  0.24228254  1
  O  O287  1  0.63715312  0.49798577  0.74623634  1
  O  O288  1  0.62610123  0.99220632  0.24384369  1
  O  O289  1  0.64089221  0.99816688  0.74648914  1
  O  O290  1  0.36985431  0.00597843  0.25528604  1
  O  O291  1  0.37370746  -0.00618852  0.76329871  1
  O  O292  1  0.36822583  0.50501763  0.25769734  1
  O  O293  1  0.36922155  0.50616437  0.75577513  1
  O  O294  1  0.87642680  0.00674691  0.25775614  1
  O  O295  1  0.86528479  0.00122335  0.75495984  1
  O  O296  1  0.87535401  0.50902808  0.25478685  1
  O  O297  1  0.86610551  0.51048848  0.74379485  1
  O  O298  1  0.11891207  0.37055290  0.36822185  1
  O  O299  1  0.12609792  0.36600743  0.86823972  1
  O  O300  1  0.12017424  0.86851166  0.36834284  1
  O  O301  1  0.12115301  0.87150320  0.86657446  1
  O  O302  1  0.62146236  0.36100657  0.37206802  1
  O  O303  1  0.61753549  0.36960447  0.87809560  1
  O  O304  1  0.62116491  0.86855658  0.36778536  1
  O  O305  1  0.61126574  0.88174506  0.87318722  1
  O  O306  1  0.37377975  0.13224166  0.13102216  1
  O  O307  1  0.38319425  0.13571591  0.62158742  1
  O  O308  1  0.37838728  0.62873651  0.12990683  1
  O  O309  1  0.38096149  0.63383049  0.63179362  1
  O  O310  1  0.88410641  0.12480907  0.13404082  1
  O  O311  1  0.88394606  0.13172540  0.62633539  1
  O  O312  1  0.86949851  0.63219214  0.13780814  1
  O  O313  1  0.88012517  0.62944578  0.63493960  1
  O  O314  1  0.25430223  0.25797975  0.12488378  1
  O  O315  1  0.25518003  0.25575791  0.61847615  1
  O  O316  1  0.25423009  0.75582667  0.11989352  1
  O  O317  1  0.26099142  0.74960901  0.62050842  1
  O  O318  1  0.74912098  0.25975309  0.11846063  1
  O  O319  1  0.75369807  0.25554850  0.62025885  1
  O  O320  1  0.76156560  0.75064203  0.12217613  1
  O  O321  1  0.75539643  0.75559737  0.62136617  1
  O  O322  1  0.24520126  0.24676940  0.38132719  1
  O  O323  1  0.24157141  0.24516728  0.87540598  1
  O  O324  1  0.24582372  0.74486393  0.37925758  1
  O  O325  1  0.24602811  0.74618639  0.87918166  1
  O  O326  1  0.74281969  0.24777195  0.38429844  1
  O  O327  1  0.74421061  0.24486988  0.88084149  1
  O  O328  1  0.74533017  0.74298717  0.38116468  1
  O  O329  1  0.75363097  0.73497253  0.87379118  1
  O  O330  1  -0.00141025  0.11876696  0.00861718  1
  O  O331  1  0.00676162  0.12010059  0.50437525  1
  O  O332  1  0.00785714  0.61557925  -0.00532669  1
  O  O333  1  0.00101814  0.61799121  0.50700150  1
  O  O334  1  0.50985684  0.12272231  0.00320141  1
  O  O335  1  0.49521977  0.11340552  0.50905229  1
  O  O336  1  0.50624242  0.62040741  0.00428458  1
  O  O337  1  0.50533786  0.61606825  0.50596725  1
  O  O338  1  0.50329843  0.38899126  0.50272446  1
  O  O339  1  0.49249348  0.38220604  0.99566946  1
  O  O340  1  0.49837112  0.88370307  0.49470881  1
  O  O341  1  0.49838477  0.87616380  0.98991127  1
  O  O342  1  0.99906274  0.38036123  0.49301828  1
  O  O343  1  0.99003770  0.38360043  0.99891880  1
  O  O344  1  0.99824380  0.88077305  0.49278082  1
  O  O345  1  0.99945456  0.88495094  0.99351893  1
  O  O346  1  0.49106529  0.49811935  0.38338385  1
  O  O347  1  0.49311114  0.49603581  0.88090094  1
  O  O348  1  0.49624495  0.99631403  0.38153419  1
  O  O349  1  0.49349294  0.99324436  0.87395212  1
  O  O350  1  0.99499991  0.49456687  0.37988597  1
  O  O351  1  1.00717639  0.49580181  0.88865683  1
  O  O352  1  0.99374776  0.99423155  0.37870127  1
  O  O353  1  0.99602830  0.99814231  0.88103148  1
  O  O354  1  0.00017723  0.00756622  0.11713285  1
  O  O355  1  0.00556939  0.00506273  0.61864418  1
  O  O356  1  0.01138549  0.49544159  0.11641456  1
  O  O357  1  0.00513120  0.50359605  0.62058457  1
  O  O358  1  0.51232888  0.00190139  0.12496906  1
  O  O359  1  0.50246779  0.00704600  0.61799764  1
  O  O360  1  0.50307875  0.50512474  0.11957301  1
  O  O361  1  0.49803948  0.50594429  0.61838817  1
  O  O362  1  0.24160554  0.38155491  0.24486865  1
  O  O363  1  0.24487937  0.38186802  0.74042593  1
  O  O364  1  0.24496422  0.88040383  0.24480725  1
  O  O365  1  0.23833828  0.87479887  0.74907209  1
  O  O366  1  0.74983012  0.37460203  0.23739496  1
  O  O367  1  0.75135595  0.38312173  0.74347305  1
  O  O368  1  0.73667411  0.87561218  0.24952682  1
  O  O369  1  0.75060670  0.88135420  0.74302892  1
  O  O370  1  0.25328229  0.12059399  0.25585263  1
  O  O371  1  0.24404175  0.12559953  0.76373759  1
  O  O372  1  0.25487292  0.61880226  0.25575016  1
  O  O373  1  0.25560139  0.62042559  0.75548117  1
  O  O374  1  0.76351551  0.12497585  0.25148545  1
  O  O375  1  0.75206167  0.11626656  0.75476546  1
  O  O376  1  0.75972377  0.62339150  0.25755753  1
  O  O377  1  0.75678707  0.61844708  0.75521816  1
  O  O378  1  0.36819931  0.11979709  0.36879035  1
  O  O379  1  0.36621876  0.11800001  0.87953563  1
  O  O380  1  0.36943252  0.61590415  0.36915410  1
  O  O381  1  0.36913420  0.61997317  0.87102686  1
  O  O382  1  0.87827698  0.11475855  0.36611878  1
  O  O383  1  0.86766237  0.11899155  0.87346332  1
  O  O384  1  0.86964907  0.61963238  0.36631619  1
  O  O385  1  0.86855169  0.62806182  0.86237404  1
  O  O386  1  0.12803967  0.38434705  0.13034958  1
  O  O387  1  0.13500406  0.38030083  0.63073420  1
  O  O388  1  0.13191164  0.87681248  0.13199327  1
  O  O389  1  0.12600996  0.88047040  0.63344916  1
  O  O390  1  0.63378858  0.38100766  0.12276199  1
  O  O391  1  0.63757034  0.37402968  0.62872324  1
  O  O392  1  0.62447702  0.88172550  0.13357713  1
  O  O393  1  0.64042197  0.87552443  0.62679098  1
  O  O394  1  0.11943044  0.25588728  0.25614661  1
  O  O395  1  0.11973987  0.25647971  0.75719881  1
  O  O396  1  0.11784696  0.75334403  0.25398751  1
  O  O397  1  0.12106362  0.75782130  0.75433016  1
  O  O398  1  0.61479881  0.25169257  0.25624495  1
  O  O399  1  0.62273734  0.25364910  0.76132612  1
  O  O400  1  0.62398671  0.75712570  0.25529511  1
  O  O401  1  0.61214162  0.74845916  0.74520435  1
  O  O402  1  0.38006178  0.24586518  0.24581202  1
  O  O403  1  0.37551457  0.25436695  0.73677341  1
  O  O404  1  0.37536099  0.74193592  0.24349085  1
  O  O405  1  0.38314723  0.74477991  0.74273163  1
  O  O406  1  0.88130243  0.23985525  0.25007209  1
  O  O407  1  0.88196579  0.24882789  0.74332392  1
  O  O408  1  0.88153802  0.74255171  0.24408474  1
  O  O409  1  0.88212961  0.74083369  0.74425519  1
  O  O410  1  0.38369266  0.50771387  0.49009566  1
  O  O411  1  0.37855543  0.49666787  0.99529379  1
  O  O412  1  0.38460269  0.99754175  0.49250728  1
  O  O413  1  0.37837892  0.99767340  0.98744334  1
  O  O414  1  0.88172212  0.49767068  0.49320339  1
  O  O415  1  0.88584544  0.49324572  1.00840160  1
  O  O416  1  0.88233234  0.99920972  0.48877982  1
  O  O417  1  0.88613123  0.99964325  0.99462938  1
  O  O418  1  0.11159528  0.00338388  -0.00020263  1
  O  O419  1  0.12077208  0.00540117  0.50359511  1
  O  O420  1  0.11788880  0.50495008  0.00759657  1
  O  O421  1  0.11831073  0.50228156  0.50687916  1
  O  O422  1  0.62527444  0.00600148  0.01021564  1
  O  O423  1  0.61335052  -0.00485034  0.49981060  1
  O  O424  1  0.61792477  0.50931835  0.00680974  1
  O  O425  1  0.61486364  0.50522372  0.50103621  1
  O  O426  1  0.36753385  0.37192846  0.12102637  1
  O  O427  1  0.36178643  0.36777098  0.62693144  1
  O  O428  1  0.36879772  0.86870820  0.12498736  1
  O  O429  1  0.37531866  0.86238026  0.62657848  1
  O  O430  1  0.86448545  0.37413094  0.11624020  1
  O  O431  1  0.86387033  0.36831938  0.62361534  1
  O  O432  1  0.87264895  0.86300408  0.12507254  1
  O  O433  1  0.86525015  0.86816189  0.62486437  1
  O  O434  1  0.12994639  0.13117799  0.37951254  1
  O  O435  1  0.13144809  0.13700620  0.87617675  1
  O  O436  1  0.13204618  0.63150574  0.37557377  1
  O  O437  1  0.13122042  0.63273592  0.87947905  1
  O  O438  1  0.62684250  0.13875981  0.36719743  1
  O  O439  1  0.63077775  0.13008312  0.88111868  1
  O  O440  1  0.63019610  0.62858116  0.37975796  1
  O  O441  1  0.63345742  0.61937277  0.88611986  1
