# generated using pymatgen
data_V93Zn93O256
_symmetry_space_group_name_H-M   'P 1'
_cell_length_a   17.05673760
_cell_length_b   17.05619078
_cell_length_c   17.06210030
_cell_angle_alpha   90.07427058
_cell_angle_beta   89.97695740
_cell_angle_gamma   90.05660109
_symmetry_Int_Tables_number   1
_chemical_formula_structural   V93Zn93O256
_chemical_formula_sum   'V93 Zn93 O256'
_cell_volume   4963.74991330
_cell_formula_units_Z   1
loop_
 _symmetry_equiv_pos_site_id
 _symmetry_equiv_pos_as_xyz
  1  'x, y, z'
loop_
 _atom_site_type_symbol
 _atom_site_label
 _atom_site_symmetry_multiplicity
 _atom_site_fract_x
 _atom_site_fract_y
 _atom_site_fract_z
 _atom_site_occupancy
  V  V0  1  0.62607908  0.87380823  0.75049607  1
  V  V1  1  0.36853270  0.50124093  0.86923130  1
  V  V2  1  -0.00019142  0.49956536  -0.00085486  1
  V  V3  1  0.12408296  0.00400119  0.62371321  1
  V  V4  1  0.00128965  0.37806351  0.37970322  1
  V  V5  1  0.37343795  0.50221639  0.37648332  1
  V  V6  1  0.75364449  0.74855203  0.50343037  1
  V  V7  1  0.00038674  0.62571511  0.12373676  1
  V  V8  1  0.62473443  0.87488403  0.25126601  1
  V  V9  1  0.37410727  0.37641658  0.50144003  1
  V  V10  1  0.75047602  -0.00151043  0.74943088  1
  V  V11  1  0.12828620  0.12645591  0.49205243  1
  V  V12  1  0.12655410  0.24364442  0.87674079  1
  V  V13  1  0.37524706  0.75029316  0.62496268  1
  V  V14  1  0.00502318  0.12567773  0.11762857  1
  V  V15  1  0.00086703  0.75283518  0.24730295  1
  V  V16  1  0.37470923  0.12519523  0.75117686  1
  V  V17  1  0.12559846  0.75078492  0.37500218  1
  V  V18  1  0.00006106  0.87502909  0.87494802  1
  V  V19  1  0.24606480  0.24266806  0.00044257  1
  V  V20  1  0.50008921  -0.00066241  0.00080856  1
  V  V21  1  0.37438924  0.62582758  0.25140086  1
  V  V22  1  0.87646473  0.37733938  0.50032910  1
  V  V23  1  0.87592409  -0.00027037  0.87541016  1
  V  V24  1  0.12389357  0.87379840  0.75032853  1
  V  V25  1  0.12445325  0.37622206  0.25065439  1
  V  V26  1  0.12962970  0.38204135  0.75040380  1
  V  V27  1  0.75044726  0.12715997  0.37444105  1
  V  V28  1  0.37503563  0.74878890  0.12640900  1
  V  V29  1  0.62470350  0.62616324  0.49918790  1
  V  V30  1  0.50090333  0.87902444  0.38108145  1
  V  V31  1  0.62472531  0.25045824  0.37497409  1
  V  V32  1  0.87375595  0.62545944  0.24707270  1
  V  V33  1  -0.00427910  0.74855994  0.74429354  1
  V  V34  1  0.24826375  0.62607031  0.37689880  1
  V  V35  1  0.74911036  0.37270306  0.62543275  1
  V  V36  1  0.25061804  0.87447709  0.62487288  1
  V  V37  1  0.37583860  0.00306667  0.38028749  1
  V  V38  1  0.49908261  0.62424149  0.12610728  1
  V  V39  1  0.12701066  0.00472508  0.11769044  1
  V  V40  1  0.50038343  0.87329268  0.87574351  1
  V  V41  1  0.24875862  0.37506874  0.12626803  1
  V  V42  1  0.87744797  0.87289191  0.50453705  1
  V  V43  1  0.37720315  0.87878106  0.50083857  1
  V  V44  1  0.87536697  0.12495322  0.74815326  1
  V  V45  1  0.49978031  0.49950187  0.00186241  1
  V  V46  1  0.87571515  0.62794803  0.74540425  1
  V  V47  1  0.87785206  0.50075800  0.37827268  1
  V  V48  1  0.74904497  0.24864722  0.49888692  1
  V  V49  1  0.49901477  0.74637251  0.74974438  1
  V  V50  1  0.62455983  0.37300396  0.75053469  1
  V  V51  1  0.75054527  0.37405273  0.12373147  1
  V  V52  1  0.37550961  0.87449848  0.00133668  1
  V  V53  1  0.25024800  0.87619944  0.12636430  1
  V  V54  1  0.12493055  0.62562209  -0.00025160  1
  V  V55  1  0.12517373  0.49960820  0.12556669  1
  V  V56  1  0.74891457  0.49975581  0.24912169  1
  V  V57  1  0.87500853  0.24951633  0.62456743  1
  V  V58  1  0.49987004  0.37520932  0.37496873  1
  V  V59  1  0.00069296  0.25004269  0.74858952  1
  V  V60  1  0.24994964  0.00308703  0.25486644  1
  V  V61  1  0.37488632  0.37344185  0.00093459  1
  V  V62  1  0.62365200  0.49824917  0.62447405  1
  V  V63  1  -0.00101358  0.37581239  0.87574515  1
  V  V64  1  0.62488675  0.00010346  0.12545871  1
  V  V65  1  0.87586555  0.87602298  -0.00023440  1
  V  V66  1  0.62546603  0.12572748  -0.00119360  1
  V  V67  1  0.87563140  0.25042740  0.12345093  1
  V  V68  1  0.25022321  0.38561426  0.62924299  1
  V  V69  1  0.61993062  -0.00023715  0.61885581  1
  V  V70  1  0.75056447  0.74975362  -0.00042751  1
  V  V71  1  0.37224666  0.12594587  0.25558697  1
  V  V72  1  0.37476105  0.24979534  0.12646294  1
  V  V73  1  0.50009745  0.50073080  0.50027659  1
  V  V74  1  -0.00008422  0.87926760  0.37404451  1
  V  V75  1  0.74963926  0.50017977  0.75113353  1
  V  V76  1  0.75316738  0.87294514  0.62532549  1
  V  V77  1  0.62482717  0.62492117  0.00131164  1
  V  V78  1  0.24906221  0.24878321  0.49507611  1
  V  V79  1  0.25028746  -0.00077270  0.75103998  1
  V  V80  1  0.87544783  0.75159544  0.12331665  1
  V  V81  1  0.74980108  0.12453047  0.87494845  1
  V  V82  1  0.37559397  0.24991985  0.62690270  1
  V  V83  1  0.24862045  0.74933043  0.49984280  1
  V  V84  1  0.87560301  0.12523554  0.25004389  1
  V  V85  1  0.37424021  -0.00063559  0.87581002  1
  V  V86  1  0.74856968  0.62449623  0.87503205  1
  V  V87  1  0.00094080  0.25109337  0.24998490  1
  V  V88  1  0.24855073  0.74778226  -0.00311765  1
  V  V89  1  0.75003005  0.00186706  0.25057923  1
  V  V90  1  0.10989910  0.50492930  0.62015769  1
  V  V91  1  0.49912369  0.25076964  0.25085779  1
  V  V92  1  0.50099101  0.37184039  0.87430160  1
  Zn  Zn93  1  0.61725384  0.11980089  0.49714605  1
  Zn  Zn94  1  0.10865362  0.62189155  0.50041812  1
  Zn  Zn95  1  0.94262214  0.68074973  0.58289445  1
  Zn  Zn96  1  0.36694694  0.61832680  0.74334695  1
  Zn  Zn97  1  0.12352395  0.74651530  0.87217439  1
  Zn  Zn98  1  0.49777784  0.62405378  0.62577539  1
  Zn  Zn99  1  0.24627712  0.12062396  0.88053722  1
  Zn  Zn100  1  0.87427724  0.50015960  0.87534639  1
  Zn  Zn101  1  0.62338638  0.37483145  0.24895868  1
  Zn  Zn102  1  0.50225885  0.24607814  0.74865230  1
  Zn  Zn103  1  0.00017323  0.12765075  0.62238044  1
  Zn  Zn104  1  0.62453648  0.74938035  0.87588013  1
  Zn  Zn105  1  0.50003523  0.12556792  0.12570139  1
  Zn  Zn106  1  0.87369450  0.37527422  -0.00145452  1
  Zn  Zn107  1  0.12784134  0.24880618  0.37349565  1
  Zn  Zn108  1  0.00452215  0.00306871  -0.00292491  1
  Zn  Zn109  1  0.62636223  0.24818931  0.87292828  1
  Zn  Zn110  1  0.62442687  0.75093054  0.37552841  1
  Zn  Zn111  1  0.75127557  0.87527691  0.12566610  1
  Zn  Zn112  1  0.12537446  0.87764359  0.24994856  1
  Zn  Zn113  1  0.75056343  0.25135819  -0.00214207  1
  Zn  Zn114  1  0.24896223  0.50066718  0.25163795  1
  Zn  Zn115  1  0.87468281  0.00249172  0.37606420  1
  Zn  Zn116  1  0.50098756  0.74966388  0.25149283  1
  Zn  Zn117  1  0.74840487  0.62739503  0.37272472  1
  Zn  Zn118  1  -0.00239086  0.00550056  0.49860958  1
  Zn  Zn119  1  0.24097367  0.61347274  0.86822364  1
  Zn  Zn120  1  0.62335151  0.49865663  0.12624771  1
  Zn  Zn121  1  0.49477770  0.11355636  0.61614247  1
  Zn  Zn122  1  0.18738891  0.18778407  0.18930411  1
  Zn  Zn123  1  0.18976345  0.18990542  0.68732010  1
  Zn  Zn124  1  0.18789367  0.68775546  0.18894734  1
  Zn  Zn125  1  0.18719545  0.68487154  0.68968028  1
  Zn  Zn126  1  0.68653783  0.18844367  0.18728666  1
  Zn  Zn127  1  0.68571473  0.18453023  0.68657098  1
  Zn  Zn128  1  0.68687122  0.68844126  0.18517427  1
  Zn  Zn129  1  0.68743926  0.68683804  0.68600791  1
  Zn  Zn130  1  0.31270306  0.31551112  0.31284018  1
  Zn  Zn131  1  0.31121725  0.31256964  0.81381586  1
  Zn  Zn132  1  0.31332237  0.81428474  0.31288947  1
  Zn  Zn133  1  0.31244868  0.80956573  0.81119771  1
  Zn  Zn134  1  0.81410360  0.31292816  0.31083808  1
  Zn  Zn135  1  0.81136882  0.30986971  0.81188039  1
  Zn  Zn136  1  0.81187778  0.81304357  0.31517402  1
  Zn  Zn137  1  0.81353883  0.81032041  0.81343550  1
  Zn  Zn138  1  0.18726614  0.43875242  0.44139382  1
  Zn  Zn139  1  0.18635283  0.43254115  0.94137395  1
  Zn  Zn140  1  0.18923325  0.93784840  0.43806589  1
  Zn  Zn141  1  0.18799447  0.93399728  0.93687808  1
  Zn  Zn142  1  0.68838503  0.43611129  0.43640415  1
  Zn  Zn143  1  0.68582455  0.43941618  0.93832117  1
  Zn  Zn144  1  0.69112630  0.93810879  0.43696499  1
  Zn  Zn145  1  0.68842556  0.93652780  0.93737901  1
  Zn  Zn146  1  0.31486716  0.06292917  0.06683140  1
  Zn  Zn147  1  0.30923485  0.06482573  0.56245693  1
  Zn  Zn148  1  0.31238073  0.56169061  0.06071054  1
  Zn  Zn149  1  0.30965229  0.56640216  0.56162391  1
  Zn  Zn150  1  0.81314502  0.06171376  0.06351399  1
  Zn  Zn151  1  0.80980042  0.06067143  0.56091751  1
  Zn  Zn152  1  0.81397318  0.56111873  0.06022886  1
  Zn  Zn153  1  0.80733703  0.55852905  0.56178846  1
  Zn  Zn154  1  0.43511218  0.43849910  0.18944783  1
  Zn  Zn155  1  0.43957496  0.43574925  0.68799396  1
  Zn  Zn156  1  0.43909068  0.93799437  0.18935391  1
  Zn  Zn157  1  0.43849468  0.93433073  0.69016903  1
  Zn  Zn158  1  0.93694686  0.43765181  0.18841932  1
  Zn  Zn159  1  0.93545411  0.43751742  0.69059908  1
  Zn  Zn160  1  0.93783341  0.94057225  0.18632771  1
  Zn  Zn161  1  0.93888075  0.93707126  0.68718210  1
  Zn  Zn162  1  0.06300030  0.06372548  0.30882083  1
  Zn  Zn163  1  0.06052517  0.06210331  0.80986020  1
  Zn  Zn164  1  0.06252161  0.56407838  0.31156720  1
  Zn  Zn165  1  0.06055137  0.56391792  0.80996066  1
  Zn  Zn166  1  0.56060365  0.06395775  0.31396050  1
  Zn  Zn167  1  0.56157929  0.06001009  0.80990178  1
  Zn  Zn168  1  0.56197387  0.56222921  0.31282663  1
  Zn  Zn169  1  0.56098883  0.56135071  0.81427950  1
  Zn  Zn170  1  0.43873770  0.18749337  0.43959761  1
  Zn  Zn171  1  0.43628459  0.18623558  0.93834802  1
  Zn  Zn172  1  0.43835556  0.69151759  0.43719870  1
  Zn  Zn173  1  0.43765900  0.68605696  0.93856397  1
  Zn  Zn174  1  0.93970178  0.18985244  0.43794087  1
  Zn  Zn175  1  0.93584764  0.18960304  0.93704135  1
  Zn  Zn176  1  0.93700718  0.68956102  0.42274671  1
  Zn  Zn177  1  0.93675822  0.68768067  0.93292214  1
  Zn  Zn178  1  0.06343478  0.31185593  0.06146684  1
  Zn  Zn179  1  0.06356862  0.31443454  0.56267271  1
  Zn  Zn180  1  0.06441818  0.81623593  0.06237535  1
  Zn  Zn181  1  0.06650376  0.81593732  0.56012521  1
  Zn  Zn182  1  0.56337778  0.31170715  0.06366024  1
  Zn  Zn183  1  0.56192212  0.31006856  0.56038794  1
  Zn  Zn184  1  0.56313592  0.81057035  0.06466270  1
  Zn  Zn185  1  0.56399296  0.81329435  0.56355758  1
  O  O186  1  0.11595804  0.11730401  0.13161171  1
  O  O187  1  0.12609651  0.11706955  0.61899665  1
  O  O188  1  0.11920480  0.61988683  0.12017441  1
  O  O189  1  0.12820906  0.60728910  0.62777065  1
  O  O190  1  0.62359154  0.11936889  0.11532656  1
  O  O191  1  0.62242018  0.11235768  0.62498012  1
  O  O192  1  0.61737867  0.62262055  0.11946610  1
  O  O193  1  0.62390070  0.61744985  0.61409500  1
  O  O194  1  0.37969269  0.38176286  0.38227128  1
  O  O195  1  0.38190089  0.38177083  0.87940649  1
  O  O196  1  0.38231365  0.88326479  0.37977325  1
  O  O197  1  0.37997750  0.88011960  0.88163299  1
  O  O198  1  0.88220490  0.38198818  0.37864138  1
  O  O199  1  0.88910123  0.37394056  0.87323556  1
  O  O200  1  0.88456610  0.87516461  0.38455527  1
  O  O201  1  0.88033003  0.88108062  0.87947067  1
  O  O202  1  0.26069614  -0.00680730  0.36316640  1
  O  O203  1  0.25555957  0.00061976  0.86985174  1
  O  O204  1  0.25612416  0.50684849  0.37666829  1
  O  O205  1  0.26504975  0.49411244  0.88167595  1
  O  O206  1  0.75166454  0.00863066  0.36759144  1
  O  O207  1  0.75625937  0.00440988  0.86853952  1
  O  O208  1  0.75928095  0.49812393  0.36378377  1
  O  O209  1  0.75034724  0.50552793  0.86812630  1
  O  O210  1  0.24324931  0.49264808  0.12467603  1
  O  O211  1  0.24707621  0.48793784  0.62325887  1
  O  O212  1  0.24525461  0.99695527  0.13324061  1
  O  O213  1  0.24221426  0.99479419  0.63088235  1
  O  O214  1  0.75225602  0.49182537  0.13384168  1
  O  O215  1  0.74258442  0.49115848  0.63107650  1
  O  O216  1  0.74314739  0.99804800  0.13274742  1
  O  O217  1  0.74351515  0.99266624  0.63208336  1
  O  O218  1  0.00455572  0.37047498  0.25755427  1
  O  O219  1  0.00842735  0.36980457  0.75837015  1
  O  O220  1  -0.00022152  0.87184265  0.25847745  1
  O  O221  1  0.00322141  0.86885854  0.75562832  1
  O  O222  1  0.49878762  0.36926466  0.25724960  1
  O  O223  1  0.50579650  0.37327852  0.75978802  1
  O  O224  1  0.50976033  0.87518724  0.25882561  1
  O  O225  1  0.50591372  0.86589018  0.75682084  1
  O  O226  1  0.48920350  0.13172289  0.24888528  1
  O  O227  1  0.48532665  0.12514462  0.74703246  1
  O  O228  1  0.49329889  0.62646455  0.24489106  1
  O  O229  1  0.49642383  0.63528849  0.74949321  1
  O  O230  1  0.99540349  0.13155313  0.24160974  1
  O  O231  1  0.99308673  0.13230118  0.74653206  1
  O  O232  1  0.99410199  0.63212707  0.24313316  1
  O  O233  1  0.98889445  0.63527056  0.75377047  1
  O  O234  1  0.36769932  0.25466218  0.00568351  1
  O  O235  1  0.36686719  0.25597488  0.50798396  1
  O  O236  1  0.36763200  0.75412295  0.00597083  1
  O  O237  1  0.36921240  0.75801430  0.50567791  1
  O  O238  1  0.87184532  0.25395903  0.00817224  1
  O  O239  1  0.86901198  0.25708823  0.50532775  1
  O  O240  1  0.87075311  0.75513252  0.00423175  1
  O  O241  1  0.86845704  0.75685254  0.49956395  1
  O  O242  1  0.13285401  0.24374580  0.50143656  1
  O  O243  1  0.13504287  0.25665227  0.98901273  1
  O  O244  1  0.13239823  0.74997911  0.49317106  1
  O  O245  1  0.13368056  0.74481261  1.00115941  1
  O  O246  1  0.63348134  0.25093702  0.49256678  1
  O  O247  1  0.62555124  0.23641666  0.99798763  1
  O  O248  1  0.63227409  0.74148138  0.49936993  1
  O  O249  1  0.63184495  0.74318998  0.99990859  1
  O  O250  1  0.49204099  0.24992837  0.13217600  1
  O  O251  1  0.48233418  0.25536284  0.62712223  1
  O  O252  1  0.49205706  0.74291847  0.12698820  1
  O  O253  1  0.49482993  0.75049960  0.63400372  1
  O  O254  1  0.99740209  0.24391944  0.12977522  1
  O  O255  1  0.99310432  0.25245313  0.63146071  1
  O  O256  1  0.99560607  0.74564168  0.12853138  1
  O  O257  1  1.00230237  0.75947115  0.63884888  1
  O  O258  1  0.00104872  0.26235448  0.36798690  1
  O  O259  1  0.00816129  0.25707184  0.87077247  1
  O  O260  1  0.00546045  0.76190817  0.36561900  1
  O  O261  1  0.00073145  0.75771452  0.86418271  1
  O  O262  1  0.50363832  0.25703517  0.36992688  1
  O  O263  1  0.49880570  0.26238574  0.87429384  1
  O  O264  1  0.50203881  0.76386491  0.37129156  1
  O  O265  1  0.49953631  0.75470931  0.86704289  1
  O  O266  1  0.24051250  0.13805802  0.50680150  1
  O  O267  1  0.25648107  0.13869847  1.00049492  1
  O  O268  1  0.24618872  0.63359301  0.49296509  1
  O  O269  1  0.24448808  0.63345624  0.99762191  1
  O  O270  1  0.74870253  0.13259514  0.49203820  1
  O  O271  1  0.74001054  0.12295531  0.99422728  1
  O  O272  1  0.74195738  0.63185387  0.49951886  1
  O  O273  1  0.74547343  0.62911735  0.99525327  1
  O  O274  1  0.25525978  0.36383959  0.00709394  1
  O  O275  1  0.25447084  0.36854517  0.51088397  1
  O  O276  1  0.25594479  0.86800803  0.00718881  1
  O  O277  1  0.25632953  0.86952274  0.50564959  1
  O  O278  1  0.75093771  0.37519950  0.01114298  1
  O  O279  1  0.75598729  0.36925385  0.50600277  1
  O  O280  1  0.75729904  0.86841197  0.00134553  1
  O  O281  1  0.75918720  0.86729362  0.50311844  1
  O  O282  1  0.12591999  0.49440214  0.24268997  1
  O  O283  1  0.12092677  0.48807453  0.74122438  1
  O  O284  1  0.13633215  1.00091385  0.24250776  1
  O  O285  1  0.13026994  0.99567632  0.74213143  1
  O  O286  1  0.63694769  0.49826980  0.24928676  1
  O  O287  1  0.62908914  0.49395451  0.74435057  1
  O  O288  1  0.62903029  0.99382908  0.24555845  1
  O  O289  1  0.63219540  0.99277423  0.74394404  1
  O  O290  1  0.36870110  0.00713243  0.25654070  1
  O  O291  1  0.36978815  0.00553590  0.75499866  1
  O  O292  1  0.37206447  0.50727449  0.25879453  1
  O  O293  1  0.38006492  0.49826874  0.76575062  1
  O  O294  1  0.86838493  0.00741986  0.25113846  1
  O  O295  1  0.87030202  0.00464609  0.75476890  1
  O  O296  1  0.86695205  0.50495794  0.25620312  1
  O  O297  1  0.86802797  0.50816521  0.75294860  1
  O  O298  1  0.11522937  0.37818381  0.37079063  1
  O  O299  1  0.11903989  0.36780361  0.86774002  1
  O  O300  1  0.11575976  0.87110680  0.37431426  1
  O  O301  1  0.11819023  0.87389939  0.86753578  1
  O  O302  1  0.61765039  0.36926733  0.37298241  1
  O  O303  1  0.61540407  0.37443244  0.87053494  1
  O  O304  1  0.61695261  0.87895221  0.36804507  1
  O  O305  1  0.61833907  0.87336023  0.86880238  1
  O  O306  1  0.37775035  0.13135243  0.13692369  1
  O  O307  1  0.37272200  0.13286546  0.63342233  1
  O  O308  1  0.37898222  0.62892244  0.13058744  1
  O  O309  1  0.37790143  0.63353952  0.62544631  1
  O  O310  1  0.88374727  0.12999034  0.13063016  1
  O  O311  1  0.87511073  0.13111751  0.63033088  1
  O  O312  1  0.88145951  0.63100209  0.12832499  1
  O  O313  1  0.86615123  0.62030817  0.63927655  1
  O  O314  1  0.25372662  0.25479865  0.11867682  1
  O  O315  1  0.25869199  0.25986838  0.61845494  1
  O  O316  1  0.25448220  0.75471778  0.11619082  1
  O  O317  1  0.25452401  0.75681309  0.61963749  1
  O  O318  1  0.75612209  0.25936186  0.12535337  1
  O  O319  1  0.75520721  0.25466301  0.62012125  1
  O  O320  1  0.75834990  0.75174504  0.11808377  1
  O  O321  1  0.74449324  0.75680176  0.61161095  1
  O  O322  1  0.24826936  0.26003888  0.39129248  1
  O  O323  1  0.24287824  0.25008251  0.88382565  1
  O  O324  1  0.24511458  0.74698202  0.37987348  1
  O  O325  1  0.24883870  0.75535909  0.89171258  1
  O  O326  1  0.74535597  0.24718135  0.37832498  1
  O  O327  1  0.74743126  0.24109708  0.87779878  1
  O  O328  1  0.74730946  0.74883719  0.38901163  1
  O  O329  1  0.74763435  0.74275385  0.88187569  1
  O  O330  1  -0.00364493  0.12485310  0.01388793  1
  O  O331  1  0.01086644  0.12502120  0.50384426  1
  O  O332  1  0.00464324  0.62060191  0.00475200  1
  O  O333  1  -0.00399553  0.63399447  0.49891834  1
  O  O334  1  0.50859634  0.11807999  0.00006512  1
  O  O335  1  0.50422687  0.12895998  0.50504138  1
  O  O336  1  0.50451911  0.61958623  0.00650976  1
  O  O337  1  0.50933569  0.62032320  0.50031435  1
  O  O338  1  0.49343272  0.38069602  0.49495204  1
  O  O339  1  0.49547372  0.37808693  0.99321866  1
  O  O340  1  0.49381898  0.87071914  0.48955935  1
  O  O341  1  0.49493157  0.87889054  0.99588017  1
  O  O342  1  0.99334769  0.36972777  0.48742601  1
  O  O343  1  1.00195381  0.37994572  0.98972398  1
  O  O344  1  0.99309918  0.87532732  0.49106657  1
  O  O345  1  0.99409982  0.87713365  0.99279811  1
  O  O346  1  0.49379563  0.49508924  0.38147331  1
  O  O347  1  0.49192042  0.48880214  0.88135378  1
  O  O348  1  0.48737446  0.99028858  0.36885198  1
  O  O349  1  0.49360952  0.99285709  0.88038407  1
  O  O350  1  0.98723506  0.49078210  0.36569454  1
  O  O351  1  1.00213480  0.48884336  0.87928265  1
  O  O352  1  0.99976802  0.98972774  0.37505242  1
  O  O353  1  0.99466530  0.99462620  0.87605050  1
  O  O354  1  0.01008592  0.00879820  0.12459812  1
  O  O355  1  0.01458775  0.00039287  0.62322096  1
  O  O356  1  0.00486284  0.50575496  0.12010159  1
  O  O357  1  0.01108795  0.49488777  0.62706473  1
  O  O358  1  0.50599338  0.00150027  0.11831472  1
  O  O359  1  0.51445700  -0.00463887  0.63205971  1
  O  O360  1  0.49913902  0.50533755  0.11947854  1
  O  O361  1  0.50585948  0.50012442  0.61799742  1
  O  O362  1  0.24316407  0.37663547  0.24384907  1
  O  O363  1  0.23939923  0.36797085  0.74129200  1
  O  O364  1  0.25128906  0.88620619  0.24369397  1
  O  O365  1  0.24461067  0.87940007  0.74474599  1
  O  O366  1  0.75099681  0.38344687  0.24088432  1
  O  O367  1  0.74468211  0.37960575  0.74531442  1
  O  O368  1  0.73993353  0.88158315  0.25203610  1
  O  O369  1  0.74651771  0.87812223  0.74555802  1
  O  O370  1  0.26100687  0.11582719  0.24580751  1
  O  O371  1  0.26041045  0.11910425  0.75121989  1
  O  O372  1  0.25606721  0.62376699  0.25819950  1
  O  O373  1  0.25987707  0.64554411  0.76347501  1
  O  O374  1  0.75578365  0.12187751  0.25440664  1
  O  O375  1  0.75610678  0.11854006  0.75543210  1
  O  O376  1  0.75475886  0.61592238  0.24867210  1
  O  O377  1  0.75447672  0.62070122  0.75496723  1
  O  O378  1  0.37952997  0.11656244  0.36483641  1
  O  O379  1  0.37271557  0.11854947  0.86695908  1
  O  O380  1  0.36952447  0.62166574  0.37182861  1
  O  O381  1  0.37721279  0.60573033  0.87942886  1
  O  O382  1  0.86994008  0.12666844  0.36760603  1
  O  O383  1  0.87077967  0.11974138  0.86858191  1
  O  O384  1  0.87064294  0.61592574  0.36492669  1
  O  O385  1  0.86713923  0.62269185  0.86427731  1
  O  O386  1  0.12871069  0.37994560  0.13073329  1
  O  O387  1  0.13106808  0.38362202  0.63154313  1
  O  O388  1  0.13125049  0.88635175  0.12865417  1
  O  O389  1  0.13158333  0.88530731  0.62933840  1
  O  O390  1  0.63631717  0.37681367  0.12774695  1
  O  O391  1  0.62965101  0.37849492  0.62980349  1
  O  O392  1  0.62566042  0.88068177  0.13580853  1
  O  O393  1  0.63268625  0.88070773  0.63079248  1
  O  O394  1  0.12010257  0.25725678  0.25339710  1
  O  O395  1  0.12128335  0.25992717  0.75612840  1
  O  O396  1  0.11877314  0.75411550  0.25534150  1
  O  O397  1  0.11451870  0.75675846  0.75073443  1
  O  O398  1  0.61715528  0.25148701  0.25642939  1
  O  O399  1  0.62134620  0.25627932  0.75167100  1
  O  O400  1  0.62560868  0.76211416  0.25288314  1
  O  O401  1  0.61530283  0.75468065  0.75005115  1
  O  O402  1  0.37714541  0.24312540  0.24778943  1
  O  O403  1  0.37235555  0.24187887  0.74323643  1
  O  O404  1  0.37494066  0.74394429  0.24343585  1
  O  O405  1  0.38778445  0.75490990  0.74329731  1
  O  O406  1  0.88163488  0.24517130  0.24287569  1
  O  O407  1  0.88027731  0.24488171  0.74385162  1
  O  O408  1  0.87952732  0.74564453  0.24448728  1
  O  O409  1  0.88253443  0.74077207  0.75228565  1
  O  O410  1  0.38008242  0.49562878  0.49633697  1
  O  O411  1  0.38075783  0.49182480  0.99261083  1
  O  O412  1  0.36411082  0.99544986  0.48812545  1
  O  O413  1  0.37942691  0.99458315  0.99632341  1
  O  O414  1  0.86488518  0.49374578  0.48572993  1
  O  O415  1  0.88426046  0.49629181  0.99531571  1
  O  O416  1  0.87699288  0.98911725  0.49608830  1
  O  O417  1  0.87707123  0.99421563  0.99301455  1
  O  O418  1  0.12753137  -0.00185718  0.01345997  1
  O  O419  1  0.12841823  0.00894928  0.50824846  1
  O  O420  1  0.11973581  0.50450889  0.00616603  1
  O  O421  1  0.12562046  0.49999335  0.51638902  1
  O  O422  1  0.62020657  0.00655516  0.00463388  1
  O  O423  1  0.63354904  -0.00127917  0.51453419  1
  O  O424  1  0.61719923  0.50696441  0.00307925  1
  O  O425  1  0.62147479  0.50648444  0.50408719  1
  O  O426  1  0.36888111  0.36903434  0.12100484  1
  O  O427  1  0.36754422  0.36988173  0.62269650  1
  O  O428  1  0.37069921  0.87023146  0.12040143  1
  O  O429  1  0.36944531  0.87161891  0.62024831  1
  O  O430  1  0.86701269  0.36926975  0.12485311  1
  O  O431  1  0.86867550  0.37022810  0.62105053  1
  O  O432  1  0.87518258  0.86929395  0.11859170  1
  O  O433  1  0.86989851  0.88083234  0.61262058  1
  O  O434  1  0.12100369  0.12707094  0.38769345  1
  O  O435  1  0.12682527  0.13962881  0.86658752  1
  O  O436  1  0.12963658  0.63218128  0.37655550  1
  O  O437  1  0.12442295  0.62626574  0.88366112  1
  O  O438  1  0.63226152  0.13226751  0.37461918  1
  O  O439  1  0.62959014  0.12232023  0.88304898  1
  O  O440  1  0.62721029  0.62526948  0.38723988  1
  O  O441  1  0.63018179  0.62577224  0.88278498  1
