# generated using pymatgen
data_V93Zn93O256
_symmetry_space_group_name_H-M   'P 1'
_cell_length_a   17.05039977
_cell_length_b   17.05201389
_cell_length_c   17.04870124
_cell_angle_alpha   89.98643863
_cell_angle_beta   90.02056663
_cell_angle_gamma   89.92050531
_symmetry_Int_Tables_number   1
_chemical_formula_structural   V93Zn93O256
_chemical_formula_sum   'V93 Zn93 O256'
_cell_volume   4956.79646071
_cell_formula_units_Z   1
loop_
 _symmetry_equiv_pos_site_id
 _symmetry_equiv_pos_as_xyz
  1  'x, y, z'
loop_
 _atom_site_type_symbol
 _atom_site_label
 _atom_site_symmetry_multiplicity
 _atom_site_fract_x
 _atom_site_fract_y
 _atom_site_fract_z
 _atom_site_occupancy
  V  V0  1  0.12569516  0.87701331  0.24809500  1
  V  V1  1  0.75162479  0.50024389  0.74959666  1
  V  V2  1  0.37621363  0.12521610  0.74979920  1
  V  V3  1  0.25144126  0.37349141  0.62489148  1
  V  V4  1  0.24948839  0.37555654  0.12400791  1
  V  V5  1  0.62537765  0.74937773  0.37704915  1
  V  V6  1  0.37527277  0.74977303  0.62497418  1
  V  V7  1  0.25100541  0.50004083  0.25141675  1
  V  V8  1  0.87572311  0.37793569  0.49566660  1
  V  V9  1  -0.00081821  0.00100361  0.00117100  1
  V  V10  1  0.75127847  0.87309493  0.62542022  1
  V  V11  1  0.37658016  0.37446595  0.50060901  1
  V  V12  1  0.75236309  0.37264651  0.62351239  1
  V  V13  1  0.00018621  0.49791782  0.49797222  1
  V  V14  1  0.62667267  0.62405568  0.50010303  1
  V  V15  1  0.37348205  0.75174924  0.12745308  1
  V  V16  1  0.37470807  0.62453138  0.75195939  1
  V  V17  1  0.24740351  0.00931107  0.25545189  1
  V  V18  1  -0.00125117  0.87516683  0.37623780  1
  V  V19  1  0.25074186  0.74919686  0.50075367  1
  V  V20  1  0.00754421  0.25004556  0.75273274  1
  V  V21  1  0.24722046  0.12948162  0.87480064  1
  V  V22  1  0.24601963  0.25077556  -0.00398461  1
  V  V23  1  0.87517865  0.62071765  0.25288467  1
  V  V24  1  0.25007767  0.62515110  0.87396857  1
  V  V25  1  0.49924024  0.87643719  0.37831079  1
  V  V26  1  0.87595603  0.86484571  0.50494551  1
  V  V27  1  0.62570220  0.37451617  0.24993308  1
  V  V28  1  0.12261474  0.62658158  0.00044430  1
  V  V29  1  0.12644946  0.49729807  0.62783718  1
  V  V30  1  0.50473420  0.11734353  0.62498408  1
  V  V31  1  0.63351763  0.24520706  0.37614544  1
  V  V32  1  0.87303721  0.87543794  -0.00032593  1
  V  V33  1  0.62332416  0.50113770  0.12524191  1
  V  V34  1  0.74903944  0.37660543  0.12339835  1
  V  V35  1  0.12413046  0.37523204  0.24837986  1
  V  V36  1  0.74994025  0.75182318  0.00021188  1
  V  V37  1  0.37444928  0.37610671  -0.00086240  1
  V  V38  1  0.50027804  0.24956256  0.25041605  1
  V  V39  1  0.00712946  0.37220366  0.87364387  1
  V  V40  1  0.87665343  0.24877417  0.62239398  1
  V  V41  1  0.87293632  0.75030476  0.12496590  1
  V  V42  1  0.37532863  0.50038236  0.37458817  1
  V  V43  1  0.37418357  0.25024080  0.12586349  1
  V  V44  1  0.37220571  0.00705383  0.37710375  1
  V  V45  1  0.63348250  0.11792402  0.50157887  1
  V  V46  1  0.12647418  0.62344887  0.49878597  1
  V  V47  1  0.87285110  0.00054964  0.87470108  1
  V  V48  1  0.87444249  0.37823774  -0.00365000  1
  V  V49  1  0.87421503  0.62878671  0.74395843  1
  V  V50  1  0.50151593  0.49828463  0.50069357  1
  V  V51  1  0.12716666  0.74886713  0.37517378  1
  V  V52  1  0.50078999  0.24966133  0.74852320  1
  V  V53  1  0.87461177  0.12358644  0.74865040  1
  V  V54  1  0.24984394  0.00066181  0.75069140  1
  V  V55  1  0.49777533  0.00174134  0.00195459  1
  V  V56  1  0.74849461  0.12603626  0.87439214  1
  V  V57  1  0.49956219  0.37609728  0.87536462  1
  V  V58  1  -0.00083212  0.62527024  0.62417605  1
  V  V59  1  0.87307488  0.24857690  0.12353606  1
  V  V60  1  0.37322815  0.00118311  0.87693428  1
  V  V61  1  0.50058851  0.75017725  0.75057526  1
  V  V62  1  0.12530484  -0.00024626  0.62517039  1
  V  V63  1  0.12231094  0.13088297  -0.00524502  1
  V  V64  1  0.50148979  0.62450027  0.62607006  1
  V  V65  1  0.25111506  0.87403615  0.62555338  1
  V  V66  1  0.24781670  0.24376001  0.49264977  1
  V  V67  1  0.62392639  0.00016565  0.12689299  1
  V  V68  1  0.62439387  0.75093396  0.87558322  1
  V  V69  1  0.86879028  0.00336734  0.37367486  1
  V  V70  1  0.62632212  0.49859147  0.62507667  1
  V  V71  1  0.37332914  0.87671578  0.00161335  1
  V  V72  1  0.75276736  0.62126125  0.37556415  1
  V  V73  1  0.62649767  0.37368183  0.74995476  1
  V  V74  1  0.62474287  0.62645476  0.00123868  1
  V  V75  1  0.12387804  0.75060094  0.87445561  1
  V  V76  1  0.49836817  0.62632260  0.12671940  1
  V  V77  1  -0.00286566  0.75027801  0.74500115  1
  V  V78  1  0.62406086  0.12588850  -0.00002251  1
  V  V79  1  0.24815264  0.75250364  0.00037444  1
  V  V80  1  0.12429076  0.50258419  0.12339123  1
  V  V81  1  -0.00091521  0.74870081  0.24852414  1
  V  V82  1  0.49976448  0.87589646  0.87567430  1
  V  V83  1  -0.00210374  0.25040618  0.24737001  1
  V  V84  1  -0.00212300  0.37928525  0.37274946  1
  V  V85  1  0.62536715  0.88171270  0.74455903  1
  V  V86  1  0.49792966  0.12643397  0.12671449  1
  V  V87  1  0.12452455  0.87419376  0.75066422  1
  V  V88  1  0.75015914  0.62509325  0.87368553  1
  V  V89  1  0.00265248  0.12292010  0.62197298  1
  V  V90  1  0.75139599  0.50098461  0.25111939  1
  V  V91  1  0.62764880  0.87631369  0.25180634  1
  V  V92  1  0.50264751  0.37453595  0.37625809  1
  Zn  Zn93  1  0.24888656  0.87849678  0.12577254  1
  Zn  Zn94  1  0.75673736  0.24308399  0.49486131  1
  Zn  Zn95  1  0.25280039  0.62507009  0.37469297  1
  Zn  Zn96  1  -0.00293096  0.62345847  0.12171726  1
  Zn  Zn97  1  0.87691579  0.50069172  0.87259753  1
  Zn  Zn98  1  0.12943426  0.24228092  0.36762504  1
  Zn  Zn99  1  0.74756060  0.25148614  -0.00095539  1
  Zn  Zn100  1  0.86928743  0.12921392  0.25743741  1
  Zn  Zn101  1  0.36903448  0.12909360  0.25525072  1
  Zn  Zn102  1  0.74589749  0.00273736  0.74204697  1
  Zn  Zn103  1  0.13395217  0.11583325  0.49134333  1
  Zn  Zn104  1  0.49767543  0.50089653  -0.00008357  1
  Zn  Zn105  1  0.12639816  0.00281329  0.12441344  1
  Zn  Zn106  1  0.37305177  0.62667304  0.25236318  1
  Zn  Zn107  1  0.37319096  0.50137249  0.87593574  1
  Zn  Zn108  1  0.37604816  0.87551926  0.50090259  1
  Zn  Zn109  1  0.49801587  0.75078304  0.25271933  1
  Zn  Zn110  1  0.62596573  0.25067113  0.87573078  1
  Zn  Zn111  1  0.00159368  -0.00210497  0.50022280  1
  Zn  Zn112  1  0.13070327  0.36953930  0.75570776  1
  Zn  Zn113  1  0.00047918  0.50216752  -0.00340715  1
  Zn  Zn114  1  -0.00131355  0.12500967  0.12494358  1
  Zn  Zn115  1  -0.00225717  0.87500825  0.87334371  1
  Zn  Zn116  1  0.37647050  0.24746656  0.62292053  1
  Zn  Zn117  1  0.25269308  0.49774791  0.75209959  1
  Zn  Zn118  1  0.74913867  0.87732192  0.12644148  1
  Zn  Zn119  1  0.50172914  -0.00096616  0.50359439  1
  Zn  Zn120  1  0.75582477  0.74383788  0.50753170  1
  Zn  Zn121  1  0.74637725  0.00991183  0.25162493  1
  Zn  Zn122  1  0.18363597  0.18690888  0.18104932  1
  Zn  Zn123  1  0.18886060  0.18620445  0.68316847  1
  Zn  Zn124  1  0.18812081  0.68641971  0.18764973  1
  Zn  Zn125  1  0.18688211  0.68624822  0.68771564  1
  Zn  Zn126  1  0.68999442  0.18527353  0.18903842  1
  Zn  Zn127  1  0.68785843  0.18840148  0.68497626  1
  Zn  Zn128  1  0.68713177  0.69073962  0.18919314  1
  Zn  Zn129  1  0.68816999  0.69210455  0.68692157  1
  Zn  Zn130  1  0.31441497  0.31550121  0.31269207  1
  Zn  Zn131  1  0.31496900  0.31051061  0.81205703  1
  Zn  Zn132  1  0.31156765  0.81690196  0.31388403  1
  Zn  Zn133  1  0.31242784  0.81184363  0.81298672  1
  Zn  Zn134  1  0.81327219  0.31518746  0.31145615  1
  Zn  Zn135  1  0.81687780  0.31023025  0.81041454  1
  Zn  Zn136  1  0.81155755  0.81014905  0.31546277  1
  Zn  Zn137  1  0.81173588  0.81308773  0.81204230  1
  Zn  Zn138  1  0.18639545  0.43260421  0.43567937  1
  Zn  Zn139  1  0.18774804  0.44057589  0.93803373  1
  Zn  Zn140  1  0.18895129  0.93644723  0.43831923  1
  Zn  Zn141  1  0.18518520  0.93916710  0.93662793  1
  Zn  Zn142  1  0.68972957  0.43648362  0.43692978  1
  Zn  Zn143  1  0.68632981  0.44032697  0.93717125  1
  Zn  Zn144  1  0.69043410  0.93498209  0.44144700  1
  Zn  Zn145  1  0.68630964  0.93917777  0.93661209  1
  Zn  Zn146  1  0.30869715  0.06385505  0.06712342  1
  Zn  Zn147  1  0.31727847  0.06052423  0.56363916  1
  Zn  Zn148  1  0.31102699  0.56304554  0.06094582  1
  Zn  Zn149  1  0.31372245  0.56253585  0.56229582  1
  Zn  Zn150  1  0.80831823  0.06217952  0.06324454  1
  Zn  Zn151  1  0.81506209  0.05377618  0.56157648  1
  Zn  Zn152  1  0.81158706  0.56352349  0.06364776  1
  Zn  Zn153  1  0.81419271  0.55959004  0.56296340  1
  Zn  Zn154  1  0.43716870  0.43739849  0.18805985  1
  Zn  Zn155  1  0.43689004  0.43823762  0.68894857  1
  Zn  Zn156  1  0.43648470  0.93953548  0.19239217  1
  Zn  Zn157  1  0.43702790  0.93743151  0.68880674  1
  Zn  Zn158  1  0.93768730  0.43939987  0.18332892  1
  Zn  Zn159  1  0.93770186  0.43721337  0.68702226  1
  Zn  Zn160  1  0.93620771  0.93628440  0.18705044  1
  Zn  Zn161  1  0.93493678  0.93730058  0.68676344  1
  Zn  Zn162  1  0.05835957  0.06487963  0.31240747  1
  Zn  Zn163  1  0.06139622  0.06237374  0.81338023  1
  Zn  Zn164  1  0.06378361  0.56221990  0.31118258  1
  Zn  Zn165  1  0.06172406  0.56081052  0.81416175  1
  Zn  Zn166  1  0.56096123  0.06351971  0.31522971  1
  Zn  Zn167  1  0.56133736  0.06267162  0.81445608  1
  Zn  Zn168  1  0.56274938  0.56281032  0.31191773  1
  Zn  Zn169  1  0.56341728  0.56106010  0.81285703  1
  Zn  Zn170  1  0.44177728  0.18802900  0.44023994  1
  Zn  Zn171  1  0.43525668  0.19019984  0.93760081  1
  Zn  Zn172  1  0.43780467  0.68706408  0.43871908  1
  Zn  Zn173  1  0.43613500  0.68902606  0.93929717  1
  Zn  Zn174  1  0.94526705  0.18889411  0.43583123  1
  Zn  Zn175  1  0.93593968  0.18944864  0.93603612  1
  Zn  Zn176  1  0.94031353  0.68515210  0.43508840  1
  Zn  Zn177  1  0.93670155  0.68792311  0.93366661  1
  Zn  Zn178  1  0.06169209  0.31500295  0.06071421  1
  Zn  Zn179  1  0.06423917  0.31077954  0.56289086  1
  Zn  Zn180  1  0.05838208  0.81284438  0.06295912  1
  Zn  Zn181  1  0.06473451  0.81167738  0.56303680  1
  Zn  Zn182  1  0.56215009  0.31132245  0.06109222  1
  Zn  Zn183  1  0.56543048  0.30619439  0.56268451  1
  Zn  Zn184  1  0.56110140  0.81364422  0.06403722  1
  Zn  Zn185  1  0.56565734  0.81104821  0.56287980  1
  O  O186  1  0.11917671  0.12169683  0.11028770  1
  O  O187  1  0.11705703  0.11769909  0.62290763  1
  O  O188  1  0.12287878  0.62074515  0.11839300  1
  O  O189  1  0.12082676  0.61538587  0.61896274  1
  O  O190  1  0.61750552  0.12030994  0.11950645  1
  O  O191  1  0.61794573  0.13023192  0.61167618  1
  O  O192  1  0.61705964  0.62275917  0.12184362  1
  O  O193  1  0.62141881  0.61896135  0.62095790  1
  O  O194  1  0.38380475  0.38073340  0.38114202  1
  O  O195  1  0.38436297  0.37607765  0.87963700  1
  O  O196  1  0.38536809  0.88217139  0.37598547  1
  O  O197  1  0.37989952  0.88075505  0.88098102  1
  O  O198  1  0.88411257  0.37188700  0.38464945  1
  O  O199  1  0.88136042  0.37603325  0.88249485  1
  O  O200  1  0.88295915  0.87912775  0.38088965  1
  O  O201  1  0.87504987  0.88216101  0.88112165  1
  O  O202  1  0.25989545  -0.00726526  0.36717907  1
  O  O203  1  0.25483010  0.00703339  0.86970352  1
  O  O204  1  0.25678757  0.49744003  0.36990471  1
  O  O205  1  0.25108985  0.50916738  0.87153469  1
  O  O206  1  0.76668053  -0.00673030  0.37558885  1
  O  O207  1  0.75459312  0.01216045  0.87441199  1
  O  O208  1  0.74358123  0.51326533  0.36788798  1
  O  O209  1  0.75026622  0.50792070  0.86679858  1
  O  O210  1  0.24473365  0.49446073  0.13046295  1
  O  O211  1  0.24272081  0.49034167  0.62318250  1
  O  O212  1  0.24708826  0.99616544  0.13795971  1
  O  O213  1  0.24615943  0.99476814  0.63186580  1
  O  O214  1  0.74249557  0.49600138  0.13082377  1
  O  O215  1  0.74511114  0.49288570  0.63022166  1
  O  O216  1  0.73957138  0.99613821  0.12703567  1
  O  O217  1  0.75357524  0.98168168  0.62634023  1
  O  O218  1  0.00266146  0.37135401  0.25483920  1
  O  O219  1  0.00024897  0.36633417  0.75589806  1
  O  O220  1  0.00629924  0.86939392  0.25774214  1
  O  O221  1  0.00454692  0.86569444  0.74909566  1
  O  O222  1  0.50684972  0.36975064  0.25542835  1
  O  O223  1  0.50552405  0.37077933  0.75631362  1
  O  O224  1  0.50931666  0.87471701  0.26125769  1
  O  O225  1  0.50611964  0.87001249  0.75543837  1
  O  O226  1  0.49950887  0.13296924  0.24340428  1
  O  O227  1  0.49746014  0.12897438  0.74435415  1
  O  O228  1  0.49800469  0.62817339  0.23822426  1
  O  O229  1  0.49695028  0.63075629  0.74552351  1
  O  O230  1  0.99148630  0.13811877  0.24526720  1
  O  O231  1  0.99602757  0.13102892  0.74250664  1
  O  O232  1  0.99017816  0.62992672  0.25145576  1
  O  O233  1  0.99331937  0.63079966  0.74532293  1
  O  O234  1  0.36770904  0.25644650  0.00665884  1
  O  O235  1  0.36566608  0.25606514  0.50061626  1
  O  O236  1  0.36892939  0.75701263  0.00838355  1
  O  O237  1  0.36960081  0.75109957  0.50796781  1
  O  O238  1  0.87370780  0.26194406  0.00675238  1
  O  O239  1  0.87660109  0.25920169  0.50338409  1
  O  O240  1  0.86945218  0.75482672  0.00356283  1
  O  O241  1  0.87464002  0.76068282  0.49130090  1
  O  O242  1  0.14175529  0.25127080  0.50094506  1
  O  O243  1  0.12986088  0.23993874  1.00463326  1
  O  O244  1  0.13049673  0.74334407  0.49518712  1
  O  O245  1  0.12841734  0.74755460  0.99498024  1
  O  O246  1  0.63013403  0.24103286  0.49188013  1
  O  O247  1  0.62758342  0.24200514  0.99685670  1
  O  O248  1  0.62796067  0.74037530  0.49430479  1
  O  O249  1  0.62915224  0.74632169  0.99525457  1
  O  O250  1  0.49405439  0.24658782  0.13084838  1
  O  O251  1  0.49849109  0.23958293  0.63121027  1
  O  O252  1  0.49056767  0.74302869  0.12554598  1
  O  O253  1  0.49593945  0.74364849  0.63078208  1
  O  O254  1  0.98978028  0.25569548  0.13281521  1
  O  O255  1  0.99609745  0.24219036  0.63095670  1
  O  O256  1  0.99130944  0.74755692  0.13194886  1
  O  O257  1  1.00923269  0.74141430  0.63772874  1
  O  O258  1  -0.00398881  0.26235297  0.36092216  1
  O  O259  1  -0.00709909  0.25868903  0.86278844  1
  O  O260  1  0.00613504  0.75795103  0.36868788  1
  O  O261  1  0.00582527  0.75118827  0.86223486  1
  O  O262  1  0.50923260  0.25664473  0.37059872  1
  O  O263  1  0.50041985  0.26087979  0.86872668  1
  O  O264  1  0.50514988  0.75916522  0.37514578  1
  O  O265  1  0.50426052  0.75656236  0.87083518  1
  O  O266  1  0.25284333  0.14089401  0.50789049  1
  O  O267  1  0.24145459  0.12960077  0.99548367  1
  O  O268  1  0.24391559  0.63085629  0.49903245  1
  O  O269  1  0.24340047  0.63356271  0.99441499  1
  O  O270  1  0.73728316  0.12421205  0.50732020  1
  O  O271  1  0.74341705  0.12683170  0.99008635  1
  O  O272  1  0.74717596  0.62246929  0.49247446  1
  O  O273  1  0.74446971  0.63136497  0.99437592  1
  O  O274  1  0.25376628  0.37022970  0.00458213  1
  O  O275  1  0.25600078  0.36711008  0.50776896  1
  O  O276  1  0.25486833  0.87090879  0.00209340  1
  O  O277  1  0.25075683  0.86644266  0.50859340  1
  O  O278  1  0.75755918  0.37489486  0.00351175  1
  O  O279  1  0.76122794  0.37517201  0.50447095  1
  O  O280  1  0.75478421  0.86896831  -0.00020374  1
  O  O281  1  0.75804823  0.86982231  0.50705035  1
  O  O282  1  0.13060366  0.49414142  0.24390696  1
  O  O283  1  0.12678003  0.49842922  0.73630259  1
  O  O284  1  0.12845439  0.99247781  0.25141830  1
  O  O285  1  0.13055545  0.99455916  0.74595161  1
  O  O286  1  0.63036286  0.49424660  0.24447108  1
  O  O287  1  0.63145115  0.49423745  0.74364840  1
  O  O288  1  0.62353534  0.99187313  0.24690905  1
  O  O289  1  0.62555049  0.98518442  0.75820097  1
  O  O290  1  0.36462326  0.00197682  0.25882811  1
  O  O291  1  0.36920112  0.00500803  0.75746422  1
  O  O292  1  0.36869389  0.49932052  0.25681203  1
  O  O293  1  0.37350489  0.50943741  0.75282140  1
  O  O294  1  0.87668082  -0.00295036  0.26522997  1
  O  O295  1  0.87379730  0.00656819  0.75752757  1
  O  O296  1  0.86795888  0.51236014  0.24218471  1
  O  O297  1  0.86932227  0.50989995  0.74919029  1
  O  O298  1  0.11502699  0.36773857  0.36738560  1
  O  O299  1  0.11220288  0.37883973  0.87362283  1
  O  O300  1  0.11696450  0.86976066  0.36803045  1
  O  O301  1  0.12261366  0.86907073  0.86754194  1
  O  O302  1  0.62127084  0.36780527  0.37017830  1
  O  O303  1  0.61679838  0.37430257  0.86922265  1
  O  O304  1  0.61866270  0.87138262  0.37087850  1
  O  O305  1  0.61875001  0.86940245  0.86906901  1
  O  O306  1  0.38028838  0.13311435  0.12782379  1
  O  O307  1  0.38514438  0.12575054  0.63263809  1
  O  O308  1  0.38185678  0.63508945  0.12382688  1
  O  O309  1  0.38218974  0.62991610  0.63065279  1
  O  O310  1  0.87594073  0.14161515  0.11857210  1
  O  O311  1  0.88294483  0.12695459  0.62896504  1
  O  O312  1  0.87364783  0.63207325  0.13544682  1
  O  O313  1  0.88189873  0.62030991  0.63568162  1
  O  O314  1  0.25455947  0.25671244  0.11842425  1
  O  O315  1  0.25237198  0.26008236  0.61648226  1
  O  O316  1  0.25869681  0.75275953  0.11975221  1
  O  O317  1  0.25509907  0.75438376  0.62131580  1
  O  O318  1  0.75817385  0.25911587  0.12371850  1
  O  O319  1  0.75921963  0.25631157  0.62220869  1
  O  O320  1  0.75450959  0.75287995  0.11783939  1
  O  O321  1  0.74946005  0.76394416  0.62408935  1
  O  O322  1  0.25012070  0.25646948  0.38900597  1
  O  O323  1  0.25601562  0.24194563  0.88313360  1
  O  O324  1  0.24442855  0.75019125  0.38210036  1
  O  O325  1  0.24369981  0.74586941  0.88064418  1
  O  O326  1  0.73780042  0.25526819  0.37506375  1
  O  O327  1  0.75066202  0.23698181  0.87443640  1
  O  O328  1  0.74333797  0.73621561  0.37656992  1
  O  O329  1  0.74389842  0.74409941  0.87991258  1
  O  O330  1  0.00568703  0.11897344  -0.00239427  1
  O  O331  1  -0.00098158  0.12402157  0.51647525  1
  O  O332  1  0.00643302  0.62406856  -0.00031399  1
  O  O333  1  0.00529821  0.61849867  0.50384090  1
  O  O334  1  0.50295635  0.12070224  0.00542461  1
  O  O335  1  0.50958349  0.12450580  0.51028036  1
  O  O336  1  0.50538373  0.62607300  0.01091427  1
  O  O337  1  0.50686047  0.61808793  0.50666203  1
  O  O338  1  0.49729622  0.37874282  0.49692881  1
  O  O339  1  0.49436481  0.37497418  0.99084557  1
  O  O340  1  0.50235363  0.87743856  0.49031145  1
  O  O341  1  0.49390008  0.88155605  0.99509936  1
  O  O342  1  0.99530729  0.37629267  0.49210200  1
  O  O343  1  0.99146155  0.37473746  0.99007550  1
  O  O344  1  0.99478780  0.87159092  0.49156635  1
  O  O345  1  0.99301881  0.88464809  0.99722182  1
  O  O346  1  0.49763469  0.49391784  0.38115262  1
  O  O347  1  0.49944496  0.48762339  0.87637799  1
  O  O348  1  0.49168464  0.99037544  0.37589121  1
  O  O349  1  0.49238995  0.99567840  0.88211048  1
  O  O350  1  1.00717376  0.48650895  0.38026522  1
  O  O351  1  0.99577742  0.48840878  0.87526395  1
  O  O352  1  0.99384349  0.98468813  0.37549802  1
  O  O353  1  0.99218205  0.99978528  0.88499548  1
  O  O354  1  -0.00249844  0.00274835  0.11200585  1
  O  O355  1  0.00616968  0.00826011  0.62666418  1
  O  O356  1  0.00900646  0.50265204  0.12019716  1
  O  O357  1  0.00954849  0.50332043  0.61923756  1
  O  O358  1  0.50285095  0.00612301  0.12096773  1
  O  O359  1  0.49738558  0.01232962  0.62524479  1
  O  O360  1  0.50452709  0.51012567  0.12486873  1
  O  O361  1  0.50688050  0.50453381  0.62033906  1
  O  O362  1  0.24393017  0.37908270  0.24354064  1
  O  O363  1  0.24920965  0.37443945  0.73904955  1
  O  O364  1  0.23768194  0.88356609  0.25081360  1
  O  O365  1  0.24488895  0.88041509  0.74562084  1
  O  O366  1  0.74506087  0.38173983  0.24401944  1
  O  O367  1  0.74743390  0.37942633  0.74403163  1
  O  O368  1  0.73621006  0.87692621  0.25243051  1
  O  O369  1  0.74198612  0.87526868  0.74444635  1
  O  O370  1  0.24645766  0.11392635  0.24753683  1
  O  O371  1  0.25499125  0.12022431  0.75390413  1
  O  O372  1  0.25209284  0.61609217  0.25346263  1
  O  O373  1  0.25690661  0.62559280  0.75622130  1
  O  O374  1  0.75760973  0.12242642  0.24981065  1
  O  O375  1  0.75439862  0.12306423  0.75635058  1
  O  O376  1  0.75572367  0.62145640  0.25670966  1
  O  O377  1  0.75662648  0.62218170  0.75240272  1
  O  O378  1  0.38432999  0.11153227  0.37386978  1
  O  O379  1  0.36941862  0.11929782  0.87010299  1
  O  O380  1  0.37487794  0.61646767  0.37311605  1
  O  O381  1  0.36886659  0.62668224  0.87020653  1
  O  O382  1  0.88619887  0.10558777  0.38022560  1
  O  O383  1  0.86657005  0.12118395  0.86963005  1
  O  O384  1  0.86556659  0.63028429  0.36371737  1
  O  O385  1  0.86819980  0.62317177  0.86322977  1
  O  O386  1  0.13065195  0.38162209  0.12849219  1
  O  O387  1  0.13380696  0.38280117  0.62426229  1
  O  O388  1  0.12229150  0.87675792  0.13859278  1
  O  O389  1  0.13104861  0.87974045  0.63193791  1
  O  O390  1  0.62895827  0.38023483  0.13002072  1
  O  O391  1  0.63139007  0.37898582  0.62947000  1
  O  O392  1  0.62182237  0.88058259  0.13618869  1
  O  O393  1  0.63153176  0.87011857  0.63668242  1
  O  O394  1  0.11342719  0.25659666  0.24460987  1
  O  O395  1  0.11132529  0.25012703  0.74263291  1
  O  O396  1  0.12066150  0.75804317  0.25477397  1
  O  O397  1  0.11755488  0.75415355  0.75495156  1
  O  O398  1  0.62024642  0.25529592  0.25688557  1
  O  O399  1  0.61898429  0.25695168  0.75156452  1
  O  O400  1  0.62214583  0.75959731  0.25743619  1
  O  O401  1  0.61885361  0.75809079  0.75699180  1
  O  O402  1  0.38094275  0.24988070  0.24483681  1
  O  O403  1  0.38306021  0.24192667  0.74731960  1
  O  O404  1  0.37489992  0.75094727  0.23902075  1
  O  O405  1  0.38169638  0.74515467  0.74499855  1
  O  O406  1  0.88205627  0.25529386  0.23952557  1
  O  O407  1  0.88512716  0.24303287  0.74157711  1
  O  O408  1  0.87841893  0.74210242  0.24562386  1
  O  O409  1  0.88519261  0.74023865  0.75505471  1
  O  O410  1  0.38268142  0.49448551  0.49562025  1
  O  O411  1  0.37706784  0.49217605  0.99787508  1
  O  O412  1  0.37749344  0.99520291  0.49104246  1
  O  O413  1  0.37804479  0.99652259  0.99662329  1
  O  O414  1  0.88486087  0.48618810  0.50732057  1
  O  O415  1  0.87529762  0.48874171  0.99955979  1
  O  O416  1  0.88085765  0.98655087  0.48836027  1
  O  O417  1  0.88084064  0.99654717  0.99534412  1
  O  O418  1  0.11439178  0.00708230  0.00034169  1
  O  O419  1  0.12228456  -0.00114999  0.50874113  1
  O  O420  1  0.12508762  0.50898856  0.00669746  1
  O  O421  1  0.12070607  0.50233288  0.50832080  1
  O  O422  1  0.61634257  0.00503673  0.00556386  1
  O  O423  1  0.62308474  0.01540421  0.49088404  1
  O  O424  1  0.62263369  0.50858209  0.00783593  1
  O  O425  1  0.62089738  0.50373685  0.50597093  1
  O  O426  1  0.36921843  0.36979113  0.11978227  1
  O  O427  1  0.36684179  0.37495574  0.61949235  1
  O  O428  1  0.37634243  0.86650963  0.12057727  1
  O  O429  1  0.36940485  0.86778321  0.62568307  1
  O  O430  1  0.86954647  0.36946363  0.11609710  1
  O  O431  1  0.87312283  0.36862630  0.61604366  1
  O  O432  1  0.87181890  0.86815003  0.11860818  1
  O  O433  1  0.87050132  0.87697235  0.61330878  1
  O  O434  1  0.10466531  0.13423363  0.38463280  1
  O  O435  1  0.13137439  0.11934178  0.88604880  1
  O  O436  1  0.12593416  0.63114738  0.38141793  1
  O  O437  1  0.12971665  0.63148472  0.87944704  1
  O  O438  1  0.61708148  0.13527241  0.38930281  1
  O  O439  1  0.63284235  0.12565498  0.88023519  1
  O  O440  1  0.63174207  0.62892286  0.38001335  1
  O  O441  1  0.62915780  0.63135187  0.88017244  1
