# generated using pymatgen
data_V93Zn93O256
_symmetry_space_group_name_H-M   'P 1'
_cell_length_a   17.05431447
_cell_length_b   17.05481989
_cell_length_c   17.05576787
_cell_angle_alpha   89.96379378
_cell_angle_beta   89.92798301
_cell_angle_gamma   89.98199431
_symmetry_Int_Tables_number   1
_chemical_formula_structural   V93Zn93O256
_chemical_formula_sum   'V93 Zn93 O256'
_cell_volume   4960.80584116
_cell_formula_units_Z   1
loop_
 _symmetry_equiv_pos_site_id
 _symmetry_equiv_pos_as_xyz
  1  'x, y, z'
loop_
 _atom_site_type_symbol
 _atom_site_label
 _atom_site_symmetry_multiplicity
 _atom_site_fract_x
 _atom_site_fract_y
 _atom_site_fract_z
 _atom_site_occupancy
  V  V0  1  0.87475342  -0.00122769  0.87542095  1
  V  V1  1  0.37719109  0.12655951  0.25195518  1
  V  V2  1  0.62449495  -0.00145922  0.62495935  1
  V  V3  1  0.87301571  0.37676032  -0.00028544  1
  V  V4  1  0.25245315  0.12597534  0.37575179  1
  V  V5  1  0.25041217  0.50143720  0.24887258  1
  V  V6  1  -0.00041376  0.37676006  0.37600835  1
  V  V7  1  0.37553677  0.74898076  0.62546829  1
  V  V8  1  0.00185717  0.50283770  -0.00078700  1
  V  V9  1  0.62502713  0.12564635  0.49914747  1
  V  V10  1  0.12603437  0.25176385  0.37529531  1
  V  V11  1  0.12444655  0.87256293  0.75093402  1
  V  V12  1  0.87682534  0.75195478  0.12366529  1
  V  V13  1  0.49792045  0.62044087  0.62030440  1
  V  V14  1  0.49824507  0.75192388  0.24718488  1
  V  V15  1  0.50047495  0.25501750  0.75797251  1
  V  V16  1  0.00034399  0.74988874  0.74904800  1
  V  V17  1  -0.00058571  0.37518893  0.87451102  1
  V  V18  1  0.62750297  0.00157812  0.12533253  1
  V  V19  1  0.49880873  0.12465902  0.62609142  1
  V  V20  1  0.62486872  0.50081248  0.12373120  1
  V  V21  1  0.00027469  -0.00623855  0.49467931  1
  V  V22  1  0.12587120  -0.00042711  0.62504791  1
  V  V23  1  0.75156260  0.87695539  0.12481288  1
  V  V24  1  0.37394313  -0.00268748  0.88154000  1
  V  V25  1  0.74983316  0.74955168  0.49947877  1
  V  V26  1  0.50104201  0.87532399  0.37544706  1
  V  V27  1  0.87386412  0.50041060  0.87313149  1
  V  V28  1  0.62211499  0.62324717  0.49911192  1
  V  V29  1  0.00409854  0.62771759  0.11980697  1
  V  V30  1  0.24999575  0.62636567  0.37565269  1
  V  V31  1  0.24483061  0.12256775  0.88347916  1
  V  V32  1  0.37449299  0.24866415  0.62505910  1
  V  V33  1  0.87388864  0.75004148  0.62392708  1
  V  V34  1  0.12378360  0.37173288  0.75052307  1
  V  V35  1  0.00191931  0.75450256  0.25596210  1
  V  V36  1  0.24920465  0.74973274  0.50003128  1
  V  V37  1  0.25072047  0.87476255  0.62581289  1
  V  V38  1  0.74967425  0.74962864  -0.00109095  1
  V  V39  1  0.49651309  0.63024583  0.12318598  1
  V  V40  1  0.50215493  0.12627648  0.12522470  1
  V  V41  1  0.74965197  0.49969384  0.74872727  1
  V  V42  1  0.25043392  -0.00118843  0.75185341  1
  V  V43  1  0.49907230  0.49374514  -0.00457639  1
  V  V44  1  0.75041982  0.50212905  0.24895758  1
  V  V45  1  0.24949841  0.37308750  0.62489167  1
  V  V46  1  0.37691700  0.49314406  0.87580527  1
  V  V47  1  0.12459761  0.62501592  0.49891005  1
  V  V48  1  0.62342386  0.74957510  0.87478345  1
  V  V49  1  0.25047338  0.25153521  0.50103100  1
  V  V50  1  0.49968828  0.74807999  0.74929682  1
  V  V51  1  -0.00000182  0.50003897  0.49895776  1
  V  V52  1  -0.00125961  0.12522147  0.62552770  1
  V  V53  1  0.12530727  0.12509019  0.49980801  1
  V  V54  1  0.12533786  0.88110454  0.25215972  1
  V  V55  1  0.62482493  0.25137912  0.37574588  1
  V  V56  1  -0.00038873  0.24993539  0.24804317  1
  V  V57  1  0.12631087  0.50411135  0.11962640  1
  V  V58  1  0.74937473  0.25019348  0.50047112  1
  V  V59  1  0.12415076  0.24538916  0.88355991  1
  V  V60  1  0.37486863  0.87504642  0.50016234  1
  V  V61  1  0.12522780  0.37826350  0.25031367  1
  V  V62  1  0.74862599  0.62543879  0.37276992  1
  V  V63  1  0.37566170  0.62986514  0.24678249  1
  V  V64  1  0.87597043  0.12570193  0.24925326  1
  V  V65  1  0.00023618  0.87384038  0.87512875  1
  V  V66  1  0.62491051  0.75047714  0.37418987  1
  V  V67  1  0.50040664  -0.00024635  0.50112921  1
  V  V68  1  0.87508048  0.37421773  0.50003814  1
  V  V69  1  0.74990759  0.25109984  -0.00054261  1
  V  V70  1  0.74860098  0.37506107  0.62523699  1
  V  V71  1  0.87836255  -0.00582665  0.37411302  1
  V  V72  1  0.50097961  0.37998780  0.38301529  1
  V  V73  1  0.87431006  0.62407976  0.74889004  1
  V  V74  1  0.24121262  0.62448251  0.87928638  1
  V  V75  1  0.74959766  0.87539835  0.62447135  1
  V  V76  1  0.87468169  0.62633556  0.24866145  1
  V  V77  1  0.62670166  0.87672763  0.24967843  1
  V  V78  1  0.25003970  0.74638100  0.01130315  1
  V  V79  1  0.62467953  0.62511227  -0.00149791  1
  V  V80  1  0.37527068  0.00196107  0.37563025  1
  V  V81  1  -0.00041735  0.62444280  0.62291866  1
  V  V82  1  0.75115791  0.37594827  0.12450371  1
  V  V83  1  0.37574329  0.25393669  0.12510619  1
  V  V84  1  0.87241968  0.12409167  0.74861414  1
  V  V85  1  0.24966720  0.49962718  0.75126234  1
  V  V86  1  0.62654111  0.12471246  0.00017398  1
  V  V87  1  0.62579718  0.37622203  0.25144371  1
  V  V88  1  0.62089328  0.49858972  0.62079627  1
  V  V89  1  0.74818824  0.12543657  0.87492360  1
  V  V90  1  0.37957408  0.50073122  0.38157917  1
  V  V91  1  0.49662402  0.87367680  0.87553380  1
  V  V92  1  0.87815352  0.87543104  -0.00132677  1
  Zn  Zn93  1  0.87428624  0.50058124  0.37412825  1
  Zn  Zn94  1  0.25180704  0.37666101  0.12324867  1
  Zn  Zn95  1  0.37277273  0.62407599  0.74942491  1
  Zn  Zn96  1  0.75213243  0.00218123  0.25162843  1
  Zn  Zn97  1  0.87644131  0.24932249  0.12309521  1
  Zn  Zn98  1  0.37482409  0.37198637  -0.00202864  1
  Zn  Zn99  1  0.12474141  0.49893708  0.62385708  1
  Zn  Zn100  1  0.50034691  -0.00254322  0.00144730  1
  Zn  Zn101  1  0.50137233  0.25317487  0.25121036  1
  Zn  Zn102  1  0.00976455  0.12602912  0.11321691  1
  Zn  Zn103  1  0.37735048  0.37822720  0.50241408  1
  Zn  Zn104  1  0.87988719  0.87180562  0.49480454  1
  Zn  Zn105  1  0.12075644  0.75450349  0.37801377  1
  Zn  Zn106  1  0.25864281  0.88019298  0.12740935  1
  Zn  Zn107  1  0.62490876  0.87570422  0.75100037  1
  Zn  Zn108  1  0.74938316  0.12442134  0.37492692  1
  Zn  Zn109  1  0.01190364  0.00916525  -0.00297716  1
  Zn  Zn110  1  0.37478463  0.12375803  0.75246249  1
  Zn  Zn111  1  0.74904553  0.62529523  0.87348415  1
  Zn  Zn112  1  0.25132376  0.00058006  0.24817328  1
  Zn  Zn113  1  0.74637974  -0.00047812  0.75005559  1
  Zn  Zn114  1  0.62048608  0.25681484  0.87934074  1
  Zn  Zn115  1  0.62007806  0.38021317  0.75737692  1
  Zn  Zn116  1  -0.00146620  0.24924043  0.75003586  1
  Zn  Zn117  1  0.13222754  0.01073211  0.11207899  1
  Zn  Zn118  1  0.87293428  0.24924273  0.62478822  1
  Zn  Zn119  1  0.24749537  0.24987623  0.00414433  1
  Zn  Zn120  1  0.12219610  0.74494134  0.88182735  1
  Zn  Zn121  1  0.38548888  0.85178747  0.02113064  1
  Zn  Zn122  1  0.19101865  0.18748753  0.18839387  1
  Zn  Zn123  1  0.18860348  0.18497245  0.69218995  1
  Zn  Zn124  1  0.18481542  0.68865205  0.19063358  1
  Zn  Zn125  1  0.18569380  0.68617112  0.68725497  1
  Zn  Zn126  1  0.69034478  0.18916112  0.18828859  1
  Zn  Zn127  1  0.68462354  0.18767372  0.68673428  1
  Zn  Zn128  1  0.68595646  0.68924544  0.18513676  1
  Zn  Zn129  1  0.68560550  0.68671470  0.68779765  1
  Zn  Zn130  1  0.31382696  0.31487776  0.31057452  1
  Zn  Zn131  1  0.31189466  0.30870407  0.81328941  1
  Zn  Zn132  1  0.31095638  0.81367248  0.31279275  1
  Zn  Zn133  1  0.31217961  0.80874366  0.81525512  1
  Zn  Zn134  1  0.81231808  0.31317091  0.31414097  1
  Zn  Zn135  1  0.80927242  0.31182763  0.81137310  1
  Zn  Zn136  1  0.81368295  0.81344922  0.31064858  1
  Zn  Zn137  1  0.81183114  0.81159188  0.81140721  1
  Zn  Zn138  1  0.18885612  0.43956527  0.43671664  1
  Zn  Zn139  1  0.19012128  0.43272785  0.93996616  1
  Zn  Zn140  1  0.18627085  0.93659364  0.43361825  1
  Zn  Zn141  1  0.19108712  0.92660767  0.94096677  1
  Zn  Zn142  1  0.68883059  0.43831388  0.43828207  1
  Zn  Zn143  1  0.68548524  0.43614715  0.93386300  1
  Zn  Zn144  1  0.69086086  0.93912832  0.43710777  1
  Zn  Zn145  1  0.68826304  0.93810016  0.93784477  1
  Zn  Zn146  1  0.31173340  0.06280011  0.06603490  1
  Zn  Zn147  1  0.31309282  0.06321960  0.56297927  1
  Zn  Zn148  1  0.31280593  0.56546690  0.05951273  1
  Zn  Zn149  1  0.30995125  0.56211997  0.56340678  1
  Zn  Zn150  1  0.81924388  0.06349130  0.06191949  1
  Zn  Zn151  1  0.81198954  0.06120947  0.55938570  1
  Zn  Zn152  1  0.81397279  0.56420315  0.06146919  1
  Zn  Zn153  1  0.81117080  0.56125914  0.56091106  1
  Zn  Zn154  1  0.44023086  0.43991870  0.19056884  1
  Zn  Zn155  1  0.43503309  0.43580601  0.68745889  1
  Zn  Zn156  1  0.43799491  0.94095359  0.18725792  1
  Zn  Zn157  1  0.43657699  0.93690627  0.69121162  1
  Zn  Zn158  1  0.93738817  0.43916408  0.18688623  1
  Zn  Zn159  1  0.93670317  0.43756011  0.68485266  1
  Zn  Zn160  1  0.94444837  0.94157018  0.18374797  1
  Zn  Zn161  1  0.93638430  0.93746896  0.68694508  1
  Zn  Zn162  1  0.06229114  0.06556951  0.31081826  1
  Zn  Zn163  1  0.06202863  0.05991545  0.81473621  1
  Zn  Zn164  1  0.06237066  0.56529147  0.31140805  1
  Zn  Zn165  1  0.06097842  0.56130558  0.81054117  1
  Zn  Zn166  1  0.56217340  0.06356852  0.31167760  1
  Zn  Zn167  1  0.56211748  0.06380388  0.81190331  1
  Zn  Zn168  1  0.56169886  0.56219122  0.31145046  1
  Zn  Zn169  1  0.56153686  0.56306772  0.81000789  1
  Zn  Zn170  1  0.43937432  0.19147003  0.43866785  1
  Zn  Zn171  1  0.43392300  0.18217490  0.94045879  1
  Zn  Zn172  1  0.43701205  0.68824635  0.43665493  1
  Zn  Zn173  1  0.43162945  0.67991932  0.93331093  1
  Zn  Zn174  1  0.93620817  0.18592092  0.43546032  1
  Zn  Zn175  1  0.93554947  0.19030733  0.93471738  1
  Zn  Zn176  1  0.93473227  0.68542394  0.43689788  1
  Zn  Zn177  1  0.93700441  0.68810031  0.93578887  1
  Zn  Zn178  1  0.06148040  0.31732173  0.06392505  1
  Zn  Zn179  1  0.06231899  0.31198880  0.56260051  1
  Zn  Zn180  1  0.07066225  0.81946054  0.06298232  1
  Zn  Zn181  1  0.06378551  0.81158421  0.56398587  1
  Zn  Zn182  1  0.56380048  0.31185267  0.06343284  1
  Zn  Zn183  1  0.56165813  0.31142110  0.56540069  1
  Zn  Zn184  1  0.56553783  0.81374125  0.06182390  1
  Zn  Zn185  1  0.56305796  0.81062345  0.56273733  1
  O  O186  1  0.11906103  0.12182717  0.14097197  1
  O  O187  1  0.11820760  0.11924326  0.62125280  1
  O  O188  1  0.11393081  0.61471958  0.13201423  1
  O  O189  1  0.11755641  0.62233541  0.61757542  1
  O  O190  1  0.62253771  0.12113945  0.12080710  1
  O  O191  1  0.61877540  0.11814331  0.61824036  1
  O  O192  1  0.61675997  0.61981936  0.11923860  1
  O  O193  1  0.61699920  0.61846234  0.61942082  1
  O  O194  1  0.38352085  0.38430144  0.37415783  1
  O  O195  1  0.36834329  0.38922516  0.87567969  1
  O  O196  1  0.38159221  0.88057558  0.38093204  1
  O  O197  1  0.38478664  0.88098165  0.87359299  1
  O  O198  1  0.88176783  0.37779788  0.38192718  1
  O  O199  1  0.87977270  0.38104757  0.87856903  1
  O  O200  1  0.87208202  0.88851301  0.37560630  1
  O  O201  1  0.87964448  0.87860544  0.87781854  1
  O  O202  1  0.25856128  0.00851123  0.37603043  1
  O  O203  1  0.25618119  0.00309689  0.87128274  1
  O  O204  1  0.25822452  0.50654096  0.36795991  1
  O  O205  1  0.25375182  0.50426447  0.86872033  1
  O  O206  1  0.76141807  0.00397564  0.37333940  1
  O  O207  1  0.75602688  0.00629923  0.87145313  1
  O  O208  1  0.74936580  0.50805843  0.36686244  1
  O  O209  1  0.75697761  0.50279154  0.86710644  1
  O  O210  1  0.24092661  0.50442601  0.13008962  1
  O  O211  1  0.24841813  0.49340220  0.63584765  1
  O  O212  1  0.24772802  0.99916033  0.13252279  1
  O  O213  1  0.24541623  0.99449898  0.62985959  1
  O  O214  1  0.74430601  0.49672586  0.12900898  1
  O  O215  1  0.74119027  0.49559591  0.62921698  1
  O  O216  1  0.74588763  0.99360659  0.12697094  1
  O  O217  1  0.74415579  0.99003211  0.62283265  1
  O  O218  1  0.00374332  0.36939460  0.25602091  1
  O  O219  1  0.00867318  0.37530716  0.75438646  1
  O  O220  1  0.01232715  0.86424811  0.24395191  1
  O  O221  1  0.00380626  0.86928693  0.75327179  1
  O  O222  1  0.50905334  0.37650391  0.26128389  1
  O  O223  1  0.49883972  0.35817327  0.74417491  1
  O  O224  1  0.50727434  0.87058494  0.25699756  1
  O  O225  1  0.50140728  0.86695582  0.75926355  1
  O  O226  1  0.49512098  0.12910075  0.24358353  1
  O  O227  1  0.49714151  0.13380158  0.74271049  1
  O  O228  1  0.49468554  0.63022960  0.24222717  1
  O  O229  1  0.49721057  0.63026547  0.73711379  1
  O  O230  1  0.99136204  0.13908394  0.25653536  1
  O  O231  1  0.99148565  0.12277499  0.74074332  1
  O  O232  1  0.99458835  0.63199629  0.23935092  1
  O  O233  1  0.99400873  0.62885306  0.74256701  1
  O  O234  1  0.37635674  0.25122782  0.01253702  1
  O  O235  1  0.36750774  0.25270907  0.50693421  1
  O  O236  1  0.35901944  0.74211569  -0.00692943  1
  O  O237  1  0.36984404  0.75608865  0.50555216  1
  O  O238  1  0.86756571  0.26064765  0.00073597  1
  O  O239  1  0.86845447  0.25558419  0.50088455  1
  O  O240  1  0.86914387  0.75477183  0.00468539  1
  O  O241  1  0.86849093  0.75117449  0.50551782  1
  O  O242  1  0.12991454  0.24441121  0.49477959  1
  O  O243  1  0.12445586  0.25784052  0.98641080  1
  O  O244  1  0.13089043  0.74392870  0.49907543  1
  O  O245  1  0.14243896  0.75500224  0.99686851  1
  O  O246  1  0.62932082  0.24514605  0.49574802  1
  O  O247  1  0.63186149  0.24276940  1.00046346  1
  O  O248  1  0.63007288  0.74369695  0.49331115  1
  O  O249  1  0.63030985  0.74423782  0.99454862  1
  O  O250  1  0.49338556  0.24507396  0.12822230  1
  O  O251  1  0.49351862  0.24351113  0.63140266  1
  O  O252  1  0.50745234  0.73704243  0.12970970  1
  O  O253  1  0.49521537  0.74191192  0.62924981  1
  O  O254  1  0.99830462  0.25401033  0.13927609  1
  O  O255  1  0.99926878  0.23563126  0.62591904  1
  O  O256  1  0.99707389  0.74294663  0.13137610  1
  O  O257  1  0.99305408  0.74449236  0.62901353  1
  O  O258  1  0.00637194  0.25673199  0.36877817  1
  O  O259  1  0.00768147  0.25714485  0.87066783  1
  O  O260  1  -0.00122293  0.74212571  0.36000593  1
  O  O261  1  0.00100072  0.75419533  0.86602554  1
  O  O262  1  0.50657446  0.26135754  0.37346912  1
  O  O263  1  0.49516466  0.24257977  0.85992941  1
  O  O264  1  0.50594655  0.75585733  0.36922459  1
  O  O265  1  0.50212140  0.75467871  0.87010030  1
  O  O266  1  0.24417593  0.13123881  0.49615459  1
  O  O267  1  0.25334974  0.12729301  0.98623916  1
  O  O268  1  0.24432994  0.63029689  0.49614095  1
  O  O269  1  0.25078809  0.63236733  0.98958909  1
  O  O270  1  0.74236376  0.13208024  0.49970189  1
  O  O271  1  0.74702366  0.13120638  0.99552879  1
  O  O272  1  0.74316865  0.63063474  0.49344428  1
  O  O273  1  0.74307124  0.63176097  0.99899878  1
  O  O274  1  0.25619492  0.36964530  0.00627900  1
  O  O275  1  0.24881089  0.36840370  0.50701099  1
  O  O276  1  0.26046063  0.85642060  0.00228564  1
  O  O277  1  0.25518372  0.87050605  0.50614482  1
  O  O278  1  0.75444885  0.37224025  0.00571283  1
  O  O279  1  0.75504612  0.37039130  0.50580277  1
  O  O280  1  0.75598657  0.86790679  0.00523179  1
  O  O281  1  0.75105814  0.86784616  0.50950634  1
  O  O282  1  0.12970397  0.49753500  0.24188273  1
  O  O283  1  0.13326711  0.48767511  0.75049546  1
  O  O284  1  0.12372771  0.98549424  0.25637970  1
  O  O285  1  0.13018662  0.99290814  0.74396274  1
  O  O286  1  0.63108651  0.49684838  0.24336346  1
  O  O287  1  0.63032485  0.50183495  0.73770936  1
  O  O288  1  0.62722569  0.99396424  0.24415882  1
  O  O289  1  0.62619200  0.99713952  0.74057129  1
  O  O290  1  0.37752517  0.00962986  0.26080241  1
  O  O291  1  0.36810277  -0.00095704  0.76147267  1
  O  O292  1  0.37125629  0.51086527  0.25858367  1
  O  O293  1  0.36352447  0.49796100  0.75656582  1
  O  O294  1  0.87946005  0.00846024  0.25830597  1
  O  O295  1  0.87210938  0.00991333  0.75408107  1
  O  O296  1  0.86813487  0.50836367  0.24980987  1
  O  O297  1  0.87007305  0.50476685  0.75345242  1
  O  O298  1  0.11978629  0.37145382  0.37012180  1
  O  O299  1  0.12037543  0.36794202  0.86688782  1
  O  O300  1  0.12837564  0.86991329  0.36128175  1
  O  O301  1  0.11810016  0.87029061  0.86454384  1
  O  O302  1  0.61869266  0.37325158  0.37189538  1
  O  O303  1  0.62564503  0.36983664  0.86968639  1
  O  O304  1  0.62071741  0.87011141  0.37092066  1
  O  O305  1  0.61369587  0.86931468  0.87498211  1
  O  O306  1  0.38223821  0.13339221  0.13120696  1
  O  O307  1  0.38070413  0.13036942  0.62707549  1
  O  O308  1  0.38589938  0.61717619  0.13644200  1
  O  O309  1  0.38245267  0.62907860  0.62456730  1
  O  O310  1  0.87716236  0.12809776  0.14067417  1
  O  O311  1  0.88254079  0.12285681  0.63136335  1
  O  O312  1  0.88345448  0.63177048  0.12949915  1
  O  O313  1  0.87942209  0.63050266  0.62864577  1
  O  O314  1  0.26330706  0.25165709  0.12567908  1
  O  O315  1  0.25391458  0.25308953  0.62173553  1
  O  O316  1  0.24929001  0.74050905  0.11228083  1
  O  O317  1  0.25561861  0.75470884  0.62019392  1
  O  O318  1  0.75284827  0.25902228  0.11827168  1
  O  O319  1  0.74867321  0.25710474  0.61810754  1
  O  O320  1  0.75598359  0.75599438  0.11917873  1
  O  O321  1  0.75319670  0.75591663  0.61936420  1
  O  O322  1  0.24542626  0.24687881  0.38101721  1
  O  O323  1  0.24168047  0.23992102  0.87510193  1
  O  O324  1  0.25175008  0.74223590  0.38445005  1
  O  O325  1  0.24662345  0.73714300  0.87619073  1
  O  O326  1  0.74183445  0.25101070  0.38323936  1
  O  O327  1  0.74980631  0.24177341  0.88203812  1
  O  O328  1  0.74418742  0.74541897  0.37892490  1
  O  O329  1  0.74252660  0.74908631  0.88084838  1
  O  O330  1  -0.01964558  0.11935136  0.00384013  1
  O  O331  1  0.00526143  0.11790150  0.50813319  1
  O  O332  1  -0.00611372  0.62058969  0.01260878  1
  O  O333  1  0.00425169  0.62030920  0.50386228  1
  O  O334  1  0.50859374  0.12275604  0.00726505  1
  O  O335  1  0.50521144  0.11943206  0.50581652  1
  O  O336  1  0.50375455  0.61825443  0.00741576  1
  O  O337  1  0.50551683  0.63171667  0.51242384  1
  O  O338  1  0.49886201  0.37272859  0.48717503  1
  O  O339  1  0.49869873  0.39123934  1.00715294  1
  O  O340  1  0.49480805  0.87901787  0.49518896  1
  O  O341  1  0.49812178  0.87422238  0.98886755  1
  O  O342  1  0.99579924  0.37959682  0.49560530  1
  O  O343  1  0.99302459  0.38244403  0.99362478  1
  O  O344  1  0.99988162  0.88989296  0.50789891  1
  O  O345  1  0.99149776  0.86768312  0.99075720  1
  O  O346  1  0.49102572  0.49339837  0.37046927  1
  O  O347  1  0.48913744  0.51019182  0.88418699  1
  O  O348  1  0.49587432  0.99443056  0.38240277  1
  O  O349  1  0.49205033  0.99075519  0.87472030  1
  O  O350  1  0.99879968  0.49474121  0.38038872  1
  O  O351  1  0.99449391  0.49503508  0.87939180  1
  O  O352  1  0.99245230  1.00853680  0.38661242  1
  O  O353  1  0.99138990  0.99044984  0.87363213  1
  O  O354  1  0.00870143  0.00374973  0.11809773  1
  O  O355  1  0.00491042  0.00876365  0.61778233  1
  O  O356  1  0.00641589  0.50849043  0.12045598  1
  O  O357  1  0.00161321  0.50662567  0.61732466  1
  O  O358  1  0.50913573  0.00839944  0.12317448  1
  O  O359  1  0.50368683  0.00310197  0.61982572  1
  O  O360  1  0.50541262  0.51059600  0.11827993  1
  O  O361  1  0.50750154  0.50910070  0.63105762  1
  O  O362  1  0.24301236  0.38408439  0.24819762  1
  O  O363  1  0.24174842  0.38084694  0.74669762  1
  O  O364  1  0.23852497  0.87539207  0.25092992  1
  O  O365  1  0.24504832  0.87871562  0.74461162  1
  O  O366  1  0.74564626  0.38233199  0.24516193  1
  O  O367  1  0.74952827  0.38207687  0.74114210  1
  O  O368  1  0.74365487  0.87586303  0.24223854  1
  O  O369  1  0.74771398  0.87505589  0.73627437  1
  O  O370  1  0.26020828  0.12578191  0.26137504  1
  O  O371  1  0.25172203  0.11594061  0.76021592  1
  O  O372  1  0.25863908  0.62210954  0.25500779  1
  O  O373  1  0.24848139  0.61214568  0.75452232  1
  O  O374  1  0.76185252  0.12498685  0.25364338  1
  O  O375  1  0.75789535  0.12431749  0.75299674  1
  O  O376  1  0.75415143  0.62237909  0.25253140  1
  O  O377  1  0.75725792  0.61852427  0.74900585  1
  O  O378  1  0.37255194  0.12184860  0.37310837  1
  O  O379  1  0.36523052  0.11445425  0.87302420  1
  O  O380  1  0.37251950  0.61786843  0.36826370  1
  O  O381  1  0.36184388  0.61101877  0.86881838  1
  O  O382  1  0.87333372  0.11666414  0.36661235  1
  O  O383  1  0.86867679  0.11929912  0.86408646  1
  O  O384  1  0.86580089  0.62398214  0.36664742  1
  O  O385  1  0.87427669  0.61816079  0.86667753  1
  O  O386  1  0.12429642  0.38812984  0.13294382  1
  O  O387  1  0.12953672  0.37395832  0.63548469  1
  O  O388  1  0.13383430  0.87314767  0.14302553  1
  O  O389  1  0.13166049  0.88068516  0.63020964  1
  O  O390  1  0.63109160  0.38201619  0.13082033  1
  O  O391  1  0.62842146  0.38519905  0.62663237  1
  O  O392  1  0.63094521  0.88088623  0.12983579  1
  O  O393  1  0.63348215  0.87923693  0.62433909  1
  O  O394  1  0.11755880  0.25855909  0.25713238  1
  O  O395  1  0.12451775  0.25998254  0.75825654  1
  O  O396  1  0.11706081  0.75647145  0.25343309  1
  O  O397  1  0.11644249  0.75616596  0.74711785  1
  O  O398  1  0.62621931  0.25889198  0.25753309  1
  O  O399  1  0.60842702  0.24922837  0.74945782  1
  O  O400  1  0.61890836  0.75624520  0.25504901  1
  O  O401  1  0.61744479  0.75062791  0.75641941  1
  O  O402  1  0.37820665  0.24483745  0.24283945  1
  O  O403  1  0.38390069  0.24775795  0.74391507  1
  O  O404  1  0.38203021  0.73588815  0.25927212  1
  O  O405  1  0.38091978  0.74717161  0.74208247  1
  O  O406  1  0.88385510  0.24470727  0.25210096  1
  O  O407  1  0.87675634  0.23673345  0.74722129  1
  O  O408  1  0.88243854  0.74680670  0.24292023  1
  O  O409  1  0.88022385  0.74394089  0.74321421  1
  O  O410  1  0.36770122  0.49886974  0.48537605  1
  O  O411  1  0.38320365  0.50087289  0.99263991  1
  O  O412  1  0.38102204  0.99418216  0.49601973  1
  O  O413  1  0.37661160  0.99975294  0.98699305  1
  O  O414  1  0.88137727  0.49335413  0.49769886  1
  O  O415  1  0.88075390  0.49605738  0.99335636  1
  O  O416  1  0.88390452  0.99981780  0.49170706  1
  O  O417  1  0.87172180  0.98843709  0.99067014  1
  O  O418  1  0.12343002  -0.01093875  -0.00017885  1
  O  O419  1  0.11926295  0.00548251  0.50437374  1
  O  O420  1  0.11779461  0.49324860  0.01186962  1
  O  O421  1  0.11887806  0.50679548  0.50133578  1
  O  O422  1  0.62510747  0.00692628  0.00757072  1
  O  O423  1  0.61868078  0.00477611  0.50447796  1
  O  O424  1  0.61745804  0.50590988  0.00382649  1
  O  O425  1  0.63060126  0.50706668  0.51307038  1
  O  O426  1  0.37707667  0.36525403  0.12861269  1
  O  O427  1  0.36692392  0.36850067  0.62243822  1
  O  O428  1  0.37363033  0.87199549  0.13076209  1
  O  O429  1  0.37022365  0.86971998  0.61949935  1
  O  O430  1  0.86852317  0.37659841  0.11787682  1
  O  O431  1  0.86825940  0.37228893  0.61809083  1
  O  O432  1  0.87118829  0.86973515  0.11966867  1
  O  O433  1  0.86560319  0.86902656  0.62262613  1
  O  O434  1  0.13146723  0.13200198  0.38054258  1
  O  O435  1  0.13229259  0.13503355  0.86677187  1
  O  O436  1  0.13280645  0.62739869  0.38079314  1
  O  O437  1  0.13589809  0.62365141  0.86942994  1
  O  O438  1  0.62438314  0.13237992  0.38197315  1
  O  O439  1  0.63104733  0.12723572  0.88210412  1
  O  O440  1  0.62841566  0.63090691  0.37847864  1
  O  O441  1  0.62482751  0.63155220  0.88120870  1
