# generated using pymatgen
data_V93Zn93O256
_symmetry_space_group_name_H-M   'P 1'
_cell_length_a   17.05582090
_cell_length_b   17.05016188
_cell_length_c   17.05747204
_cell_angle_alpha   89.94906377
_cell_angle_beta   89.97570029
_cell_angle_gamma   90.04316096
_symmetry_Int_Tables_number   1
_chemical_formula_structural   V93Zn93O256
_chemical_formula_sum   'V93 Zn93 O256'
_cell_volume   4960.38593592
_cell_formula_units_Z   1
loop_
 _symmetry_equiv_pos_site_id
 _symmetry_equiv_pos_as_xyz
  1  'x, y, z'
loop_
 _atom_site_type_symbol
 _atom_site_label
 _atom_site_symmetry_multiplicity
 _atom_site_fract_x
 _atom_site_fract_y
 _atom_site_fract_z
 _atom_site_occupancy
  V  V0  1  0.87544500  0.12607798  0.74954961  1
  V  V1  1  -0.00430560  0.74638241  0.75173094  1
  V  V2  1  0.74308967  0.24751985  0.49323233  1
  V  V3  1  0.37536156  0.62373644  0.25060648  1
  V  V4  1  0.00137131  0.49972925  0.00000131  1
  V  V5  1  0.37742633  0.49622489  0.37557381  1
  V  V6  1  0.62715188  0.37734476  0.75078837  1
  V  V7  1  0.75011302  0.00020705  0.75014472  1
  V  V8  1  0.74841223  0.75075679  0.50000929  1
  V  V9  1  0.62402398  0.74992661  0.37519110  1
  V  V10  1  0.12420757  0.62499288  0.50158549  1
  V  V11  1  0.12584670  0.24966991  0.87330042  1
  V  V12  1  0.24995603  0.62475305  0.87518072  1
  V  V13  1  0.74987749  0.87575714  0.62584170  1
  V  V14  1  0.37751551  -0.00304448  0.87552258  1
  V  V15  1  0.12674379  0.12680112  0.49551210  1
  V  V16  1  0.37049289  0.11918575  0.23958840  1
  V  V17  1  0.25108429  0.37370057  0.62397494  1
  V  V18  1  0.12634831  0.49708821  0.12844508  1
  V  V19  1  0.62417756  0.00167982  0.62353346  1
  V  V20  1  0.37472799  0.50003353  0.87443412  1
  V  V21  1  0.25017300  0.75008719  0.00159838  1
  V  V22  1  0.12766489  0.88170795  0.25049920  1
  V  V23  1  0.37416500  0.24963519  0.62195030  1
  V  V24  1  0.62544001  0.62661606  0.00061098  1
  V  V25  1  0.87539610  0.37481841  0.50030947  1
  V  V26  1  0.87597501  0.00028287  0.87578745  1
  V  V27  1  0.37330202  0.74945094  0.12602632  1
  V  V28  1  0.24958363  0.12384763  0.87455319  1
  V  V29  1  0.12471324  0.49945398  0.62546249  1
  V  V30  1  0.12519472  0.37372774  0.75005286  1
  V  V31  1  0.24721876  0.87423101  0.62685487  1
  V  V32  1  0.24900792  0.74881735  0.50105328  1
  V  V33  1  0.75084030  0.87588586  0.12434164  1
  V  V34  1  0.75017794  0.37937751  0.12538826  1
  V  V35  1  0.75075767  0.00289579  0.25096755  1
  V  V36  1  -0.00093617  0.00017577  0.50123594  1
  V  V37  1  0.75714324  0.62560296  0.86959121  1
  V  V38  1  0.12408762  0.12348935  -0.00000754  1
  V  V39  1  0.37363429  0.74851363  0.62555030  1
  V  V40  1  0.61823795  0.00491486  0.12521353  1
  V  V41  1  0.87537594  0.75107933  0.12611776  1
  V  V42  1  0.74945516  0.37606296  0.62623749  1
  V  V43  1  0.24402672  -0.00635605  0.75056697  1
  V  V44  1  0.50018279  0.62404576  0.62517121  1
  V  V45  1  0.49953957  0.62454534  0.12494350  1
  V  V46  1  0.49935896  0.75132408  0.75227931  1
  V  V47  1  0.50317548  0.36747575  0.37379280  1
  V  V48  1  0.62353144  0.87591222  0.75106130  1
  V  V49  1  0.62430069  0.62493499  0.49968335  1
  V  V50  1  0.37585384  0.37407445  -0.00019011  1
  V  V51  1  0.12606520  0.75562476  0.86972015  1
  V  V52  1  0.87691090  0.24959727  0.62552984  1
  V  V53  1  0.87678370  0.24987495  0.12694947  1
  V  V54  1  0.00220023  0.87638442  0.87210011  1
  V  V55  1  0.24698036  0.49523540  0.24969944  1
  V  V56  1  0.50002381  0.50089586  0.00012653  1
  V  V57  1  0.24800539  0.37207223  0.12880755  1
  V  V58  1  0.00641141  0.37072418  0.36811905  1
  V  V59  1  0.12508532  0.62520987  0.00070936  1
  V  V60  1  0.75013273  0.12580798  0.87461523  1
  V  V61  1  0.50039284  0.74936824  0.25092643  1
  V  V62  1  0.00018760  0.49981151  0.50075974  1
  V  V63  1  0.62376889  0.87539025  0.25051371  1
  V  V64  1  0.61844167  0.12489283  0.00300450  1
  V  V65  1  0.24947594  0.62259740  0.37515868  1
  V  V66  1  0.87228282  0.00202679  0.37546571  1
  V  V67  1  0.50097526  0.12373487  0.62264498  1
  V  V68  1  0.00020013  0.62533442  0.12617806  1
  V  V69  1  0.62518786  0.50017494  0.62529681  1
  V  V70  1  0.00164691  0.37507444  0.87535789  1
  V  V71  1  -0.00091522  0.74892669  0.25026824  1
  V  V72  1  -0.00468837  0.62425504  0.62879508  1
  V  V73  1  0.24882481  0.87982256  0.12982757  1
  V  V74  1  0.36827221  0.00082498  0.37187460  1
  V  V75  1  0.37403251  0.12367404  0.74788015  1
  V  V76  1  0.12364688  -0.00368025  0.62680484  1
  V  V77  1  0.75024433  0.75179335  0.00216313  1
  V  V78  1  0.50220996  0.37567706  0.87496848  1
  V  V79  1  0.62574325  0.25146635  0.87408804  1
  V  V80  1  0.87663836  0.37743255  -0.00214725  1
  V  V81  1  0.25022736  0.50023148  0.75065234  1
  V  V82  1  0.87416528  0.87560155  0.50141474  1
  V  V83  1  0.74979378  0.25143354  -0.00092918  1
  V  V84  1  0.87424947  0.74683151  0.62830667  1
  V  V85  1  0.50203402  0.24150433  0.24362803  1
  V  V86  1  0.12368543  0.74928607  0.37590450  1
  V  V87  1  0.87305934  0.50207115  0.37372618  1
  V  V88  1  -0.00067109  0.12273994  0.12480460  1
  V  V89  1  0.25198554  0.24979909  -0.00114822  1
  V  V90  1  0.62601349  0.36966655  0.25323541  1
  V  V91  1  0.37617966  0.87580759  0.49854988  1
  V  V92  1  -0.00052823  0.87480459  0.37599275  1
  Zn  Zn93  1  0.62025890  0.12593441  0.49113792  1
  Zn  Zn94  1  0.12655368  0.00173480  0.12657731  1
  Zn  Zn95  1  0.74159682  0.13245834  0.36827739  1
  Zn  Zn96  1  0.87562552  0.87763015  0.00046695  1
  Zn  Zn97  1  0.00116610  0.24949033  0.74990780  1
  Zn  Zn98  1  0.88184367  0.50568154  0.86671566  1
  Zn  Zn99  1  0.50147872  0.87475184  0.88049388  1
  Zn  Zn100  1  0.62352146  0.49979965  0.12676040  1
  Zn  Zn101  1  0.50117822  0.25097427  0.74908427  1
  Zn  Zn102  1  0.00042628  -0.00257351  0.00070693  1
  Zn  Zn103  1  0.87605943  0.12853191  0.25414155  1
  Zn  Zn104  1  0.74904649  0.62550940  0.37336408  1
  Zn  Zn105  1  0.37494442  0.62447607  0.75009076  1
  Zn  Zn106  1  0.62519996  0.75302226  0.87643254  1
  Zn  Zn107  1  0.50076007  0.49686955  0.50033185  1
  Zn  Zn108  1  0.49753354  0.00037703  0.00301676  1
  Zn  Zn109  1  0.49827766  0.87564157  0.37411824  1
  Zn  Zn110  1  0.24904970  0.12553733  0.37006392  1
  Zn  Zn111  1  0.37692636  0.87509211  0.00257150  1
  Zn  Zn112  1  0.74744548  0.50232790  0.25157396  1
  Zn  Zn113  1  0.75788660  0.50668188  0.74492040  1
  Zn  Zn114  1  0.38039722  0.24318524  0.11981465  1
  Zn  Zn115  1  0.50082539  0.00005634  0.49700328  1
  Zn  Zn116  1  0.00100044  0.12485708  0.62574610  1
  Zn  Zn117  1  0.01062592  0.25306500  0.24466517  1
  Zn  Zn118  1  0.87142130  0.62505384  0.24982436  1
  Zn  Zn119  1  0.24935512  0.25000667  0.49664248  1
  Zn  Zn120  1  0.13671890  0.25519209  0.36619729  1
  Zn  Zn121  1  0.37553286  0.37244116  0.49835154  1
  Zn  Zn122  1  0.18762194  0.18884459  0.18762049  1
  Zn  Zn123  1  0.18780560  0.18433483  0.68549332  1
  Zn  Zn124  1  0.18668034  0.68748706  0.18961881  1
  Zn  Zn125  1  0.18466665  0.68641891  0.68962450  1
  Zn  Zn126  1  0.68708671  0.18875449  0.18646007  1
  Zn  Zn127  1  0.68768487  0.18934365  0.68585291  1
  Zn  Zn128  1  0.68888440  0.68678543  0.18942624  1
  Zn  Zn129  1  0.68453291  0.68989237  0.68656157  1
  Zn  Zn130  1  0.31642329  0.30590191  0.30966962  1
  Zn  Zn131  1  0.31400995  0.31214862  0.81031946  1
  Zn  Zn132  1  0.31102954  0.81120617  0.31308044  1
  Zn  Zn133  1  0.31325900  0.81327969  0.81286520  1
  Zn  Zn134  1  0.81672644  0.31710332  0.31186670  1
  Zn  Zn135  1  0.81346748  0.31584723  0.81136796  1
  Zn  Zn136  1  0.81140335  0.81409133  0.31272592  1
  Zn  Zn137  1  0.81371275  0.81246468  0.81427012  1
  Zn  Zn138  1  0.18931642  0.43663038  0.44021339  1
  Zn  Zn139  1  0.18777968  0.43681813  0.93974454  1
  Zn  Zn140  1  0.18762610  0.93887746  0.43832999  1
  Zn  Zn141  1  0.18810542  0.93667355  0.94254831  1
  Zn  Zn142  1  0.68657370  0.43603345  0.43946335  1
  Zn  Zn143  1  0.68854113  0.44186184  0.93762856  1
  Zn  Zn144  1  0.68474716  0.93854566  0.43701571  1
  Zn  Zn145  1  0.68680524  0.93831920  0.93751290  1
  Zn  Zn146  1  0.31045603  0.06046723  0.06048012  1
  Zn  Zn147  1  0.31059620  0.06130481  0.56050798  1
  Zn  Zn148  1  0.31240044  0.56096633  0.06231085  1
  Zn  Zn149  1  0.31360155  0.56128262  0.56232494  1
  Zn  Zn150  1  0.81082809  0.06288597  0.06073597  1
  Zn  Zn151  1  0.81170028  0.06457990  0.56287716  1
  Zn  Zn152  1  0.81604413  0.56435215  0.05845358  1
  Zn  Zn153  1  0.81173250  0.56372090  0.56065040  1
  Zn  Zn154  1  0.43677615  0.43412208  0.18719072  1
  Zn  Zn155  1  0.43871771  0.43697352  0.68900987  1
  Zn  Zn156  1  0.43683061  0.93624438  0.18852252  1
  Zn  Zn157  1  0.43577507  0.93707140  0.68755779  1
  Zn  Zn158  1  0.93722446  0.43988999  0.18838788  1
  Zn  Zn159  1  0.93637497  0.43771951  0.69066553  1
  Zn  Zn160  1  0.93745520  0.93720408  0.18907389  1
  Zn  Zn161  1  0.93859077  0.93437346  0.69090153  1
  Zn  Zn162  1  0.05915597  0.06523514  0.31208127  1
  Zn  Zn163  1  0.06080747  0.06423995  0.81138804  1
  Zn  Zn164  1  0.06196198  0.56029276  0.31161666  1
  Zn  Zn165  1  0.06368744  0.56398466  0.81246629  1
  Zn  Zn166  1  0.55873020  0.06260132  0.31705350  1
  Zn  Zn167  1  0.56231000  0.06449482  0.81073260  1
  Zn  Zn168  1  0.56452135  0.55910311  0.31186596  1
  Zn  Zn169  1  0.56645493  0.56389073  0.81221510  1
  Zn  Zn170  1  0.43640266  0.18518776  0.43291610  1
  Zn  Zn171  1  0.43800605  0.18719682  0.93430247  1
  Zn  Zn172  1  0.43868113  0.68645737  0.43800219  1
  Zn  Zn173  1  0.43583029  0.68759028  0.93781650  1
  Zn  Zn174  1  0.93502046  0.18556440  0.43907765  1
  Zn  Zn175  1  0.93808094  0.18898100  0.93856477  1
  Zn  Zn176  1  0.93611894  0.68713448  0.44066246  1
  Zn  Zn177  1  0.93782653  0.69066217  0.94169578  1
  Zn  Zn178  1  0.06517942  0.31113530  0.06081158  1
  Zn  Zn179  1  0.06283395  0.31286600  0.55871210  1
  Zn  Zn180  1  0.06294573  0.81280602  0.06086304  1
  Zn  Zn181  1  0.06088097  0.81260433  0.56436821  1
  Zn  Zn182  1  0.56348458  0.31239318  0.06379647  1
  Zn  Zn183  1  0.56080139  0.31394541  0.56266072  1
  Zn  Zn184  1  0.56146809  0.81555049  0.06367906  1
  Zn  Zn185  1  0.56211381  0.81181369  0.56493769  1
  O  O186  1  0.11569525  0.12410924  0.11899635  1
  O  O187  1  0.12345107  0.11336651  0.61640618  1
  O  O188  1  0.12025513  0.61983040  0.11958318  1
  O  O189  1  0.11782832  0.61932747  0.62034827  1
  O  O190  1  0.63313967  0.11693826  0.11383788  1
  O  O191  1  0.61556547  0.12080867  0.62394829  1
  O  O192  1  0.61961496  0.62392278  0.11558959  1
  O  O193  1  0.61996205  0.62025823  0.61959971  1
  O  O194  1  0.38372587  0.38269822  0.37239137  1
  O  O195  1  0.38115410  0.37992254  0.87973500  1
  O  O196  1  0.37326286  0.87937655  0.38308713  1
  O  O197  1  0.37470491  0.88646504  0.87722201  1
  O  O198  1  0.88437994  0.38436231  0.38080604  1
  O  O199  1  0.88328283  0.37374930  0.88287803  1
  O  O200  1  0.88026643  0.88064666  0.38193738  1
  O  O201  1  0.88414097  0.88155108  0.87628194  1
  O  O202  1  0.26365025  0.00040401  0.37769667  1
  O  O203  1  0.25519432  0.00318738  0.86829160  1
  O  O204  1  0.25753490  0.50233653  0.37031717  1
  O  O205  1  0.25428682  0.50452092  0.87074768  1
  O  O206  1  0.75500249  -0.00348166  0.36357946  1
  O  O207  1  0.75534607  0.00595310  0.86873994  1
  O  O208  1  0.76245934  0.49814554  0.37701671  1
  O  O209  1  0.75095033  0.51783475  0.87695062  1
  O  O210  1  0.24660263  0.49195968  0.12937966  1
  O  O211  1  0.24483239  0.49503029  0.63040000  1
  O  O212  1  0.24783796  0.98380110  0.12112825  1
  O  O213  1  0.24316297  0.99514542  0.63250761  1
  O  O214  1  0.75314460  0.48700139  0.12375358  1
  O  O215  1  0.74346935  0.49373430  0.62312076  1
  O  O216  1  0.74386097  0.99625902  0.13346204  1
  O  O217  1  0.74538922  0.99540131  0.63096453  1
  O  O218  1  -0.00349288  0.37603498  0.26526548  1
  O  O219  1  0.00907119  0.37254848  0.75681088  1
  O  O220  1  0.00758226  0.86857614  0.25631179  1
  O  O221  1  -0.00087049  0.86371560  0.76301617  1
  O  O222  1  0.50693868  0.36736359  0.25492999  1
  O  O223  1  0.50868293  0.37451561  0.75789807  1
  O  O224  1  0.50635980  0.86648789  0.24997418  1
  O  O225  1  0.50390510  0.86541978  0.74892066  1
  O  O226  1  0.49140958  0.13485468  0.25423336  1
  O  O227  1  0.49335974  0.12656602  0.73831319  1
  O  O228  1  0.49529898  0.62884343  0.24452222  1
  O  O229  1  0.50004642  0.63494514  0.74468704  1
  O  O230  1  0.99489960  0.12689263  0.23703636  1
  O  O231  1  0.99161176  0.12942784  0.74636166  1
  O  O232  1  0.99896893  0.63151426  0.24360429  1
  O  O233  1  1.00441160  0.63716235  0.74498933  1
  O  O234  1  0.37036559  0.25434236  -0.00050160  1
  O  O235  1  0.37487704  0.24853864  0.51304228  1
  O  O236  1  0.36773810  0.74963077  0.00818385  1
  O  O237  1  0.36798513  0.75577814  0.50447824  1
  O  O238  1  0.86952577  0.25639006  0.00873183  1
  O  O239  1  0.86714283  0.25453627  0.50920584  1
  O  O240  1  0.86788183  0.75355528  0.00900173  1
  O  O241  1  0.86921338  0.75743694  0.50644941  1
  O  O242  1  0.12413299  0.23762437  0.49663963  1
  O  O243  1  0.13273232  0.24341818  0.99258361  1
  O  O244  1  0.12926930  0.74498586  0.49586423  1
  O  O245  1  0.13000877  0.74382955  0.99134255  1
  O  O246  1  0.64123501  0.25170551  0.50600558  1
  O  O247  1  0.63033791  0.24377454  0.99524118  1
  O  O248  1  0.62897551  0.74615625  0.49583276  1
  O  O249  1  0.62992425  0.74116548  1.00140953  1
  O  O250  1  0.49711925  0.25596764  0.13736988  1
  O  O251  1  0.49213184  0.24196847  0.62669456  1
  O  O252  1  0.49368647  0.74370547  0.13127841  1
  O  O253  1  0.49398839  0.74470351  0.63380546  1
  O  O254  1  0.99156334  0.24355881  0.12210543  1
  O  O255  1  0.98677254  0.25053751  0.62435013  1
  O  O256  1  0.99583039  0.74525886  0.12980864  1
  O  O257  1  0.99612770  0.74647686  0.63402535  1
  O  O258  1  -0.00645374  0.26621965  0.37630620  1
  O  O259  1  0.00840358  0.25679738  0.87492300  1
  O  O260  1  0.00452124  0.75543580  0.37229908  1
  O  O261  1  0.00606498  0.75478271  0.87001018  1
  O  O262  1  0.49250248  0.26136515  0.36329135  1
  O  O263  1  0.50745602  0.25755357  0.87259326  1
  O  O264  1  0.50529753  0.75109098  0.36812494  1
  O  O265  1  0.49970844  0.75064408  0.86324359  1
  O  O266  1  0.23755003  0.12475466  0.49923099  1
  O  O267  1  0.24471461  0.13006798  0.99402606  1
  O  O268  1  0.24393972  0.62907628  0.49524381  1
  O  O269  1  0.24459692  0.62991339  0.99504692  1
  O  O270  1  0.74991136  0.14103618  0.50138421  1
  O  O271  1  0.74175546  0.13200520  0.99352817  1
  O  O272  1  0.74175933  0.63384405  0.49839932  1
  O  O273  1  0.74197585  0.63107214  0.99490759  1
  O  O274  1  0.25720917  0.36935873  0.00562178  1
  O  O275  1  0.25423832  0.37228962  0.50939386  1
  O  O276  1  0.25128231  0.86675876  0.01146535  1
  O  O277  1  0.25781914  0.86840843  0.50558464  1
  O  O278  1  0.75449035  0.37123660  0.00674286  1
  O  O279  1  0.75492989  0.36532007  0.50591947  1
  O  O280  1  0.74975163  0.86917682  0.00661423  1
  O  O281  1  0.75459288  0.87082419  0.50697231  1
  O  O282  1  0.13480821  0.50526407  0.24166599  1
  O  O283  1  0.13054082  0.49427791  0.74444960  1
  O  O284  1  0.11895505  0.98488707  0.24992054  1
  O  O285  1  0.13460216  1.00633837  0.74026838  1
  O  O286  1  0.62665640  0.48620054  0.24520675  1
  O  O287  1  0.63085328  0.49533284  0.74342501  1
  O  O288  1  0.63236930  0.99667602  0.24304979  1
  O  O289  1  0.63101466  0.99620683  0.74393224  1
  O  O290  1  0.38306924  0.01228279  0.25643642  1
  O  O291  1  0.36458641  0.00388208  0.75575393  1
  O  O292  1  0.36958583  0.50416468  0.25865001  1
  O  O293  1  0.36806443  0.50063211  0.75698363  1
  O  O294  1  0.86469263  -0.00042943  0.25562032  1
  O  O295  1  0.86920247  0.00551291  0.75490021  1
  O  O296  1  0.87280751  0.50119008  0.26152924  1
  O  O297  1  0.87007898  0.49828239  0.75478410  1
  O  O298  1  0.10887987  0.37574238  0.38302642  1
  O  O299  1  0.12214853  0.36914253  0.87041462  1
  O  O300  1  0.12046916  0.86964310  0.37013350  1
  O  O301  1  0.11796089  0.86369588  0.88174679  1
  O  O302  1  0.61492299  0.38087719  0.36468580  1
  O  O303  1  0.62219526  0.37141357  0.87176707  1
  O  O304  1  0.62134375  0.86872347  0.36855372  1
  O  O305  1  0.62246741  0.87353310  0.86658825  1
  O  O306  1  0.37490877  0.12012834  0.13564250  1
  O  O307  1  0.38076883  0.12970533  0.62817408  1
  O  O308  1  0.37906778  0.62916544  0.13111059  1
  O  O309  1  0.38065307  0.63100397  0.62636484  1
  O  O310  1  0.88141447  0.13558093  0.12198378  1
  O  O311  1  0.87555939  0.13404867  0.63056497  1
  O  O312  1  0.88278049  0.63203812  0.12562973  1
  O  O313  1  0.88333395  0.63439221  0.61655362  1
  O  O314  1  0.25355014  0.25723127  0.11653325  1
  O  O315  1  0.25945401  0.25423690  0.62466510  1
  O  O316  1  0.25398508  0.75530099  0.12116782  1
  O  O317  1  0.25249740  0.75347709  0.62093567  1
  O  O318  1  0.75795920  0.25962349  0.11965303  1
  O  O319  1  0.75940195  0.25550184  0.61695476  1
  O  O320  1  0.75489293  0.75627685  0.12162167  1
  O  O321  1  0.75402951  0.75640643  0.62052853  1
  O  O322  1  0.25210731  0.24549148  0.38028598  1
  O  O323  1  0.24638618  0.24362622  0.87863233  1
  O  O324  1  0.24385995  0.74217419  0.38124180  1
  O  O325  1  0.24315940  0.74660622  0.87909760  1
  O  O326  1  0.75821051  0.25408907  0.39059675  1
  O  O327  1  0.74545956  0.24619687  0.88046933  1
  O  O328  1  0.74255821  0.75126222  0.38258723  1
  O  O329  1  0.74808958  0.74112720  0.88218145  1
  O  O330  1  0.00570800  0.12536461  0.00892343  1
  O  O331  1  0.00739097  0.11746540  0.50239952  1
  O  O332  1  0.00620515  0.62042712  0.00606367  1
  O  O333  1  0.00637561  0.61996409  0.50691384  1
  O  O334  1  0.51511750  0.12289674  -0.00658735  1
  O  O335  1  0.49915543  0.12442434  0.51227430  1
  O  O336  1  0.50732774  0.62192202  0.00448356  1
  O  O337  1  0.50648854  0.62395200  0.50793074  1
  O  O338  1  0.49796576  0.37540735  0.48769710  1
  O  O339  1  0.49649477  0.38078628  0.99462041  1
  O  O340  1  0.48467421  0.87256379  0.50148151  1
  O  O341  1  0.49523414  0.88074979  0.99803947  1
  O  O342  1  0.99396128  0.38156551  0.49259725  1
  O  O343  1  0.99707007  0.38045507  0.99539070  1
  O  O344  1  0.99389753  0.87973897  0.49524439  1
  O  O345  1  0.99788059  0.87506310  0.98662265  1
  O  O346  1  0.49047969  0.49029277  0.37295846  1
  O  O347  1  0.49570251  0.49605857  0.88043753  1
  O  O348  1  0.48546738  0.99445177  0.37896856  1
  O  O349  1  0.48691895  1.00002745  0.87117534  1
  O  O350  1  0.99364365  0.49152702  0.38041931  1
  O  O351  1  1.00334554  0.49416276  0.88257909  1
  O  O352  1  0.99250025  0.99395026  0.38103478  1
  O  O353  1  0.99583346  0.99102240  0.87305749  1
  O  O354  1  -0.00056162  0.01094226  0.12275848  1
  O  O355  1  0.00821562  -0.00229629  0.62105614  1
  O  O356  1  0.00598237  0.50430701  0.11994867  1
  O  O357  1  0.00549893  0.50382419  0.62002514  1
  O  O358  1  0.51566924  -0.00303219  0.12594110  1
  O  O359  1  0.50386893  0.00895479  0.62508763  1
  O  O360  1  0.49878043  0.50674721  0.11792152  1
  O  O361  1  0.50606465  0.50591086  0.62411961  1
  O  O362  1  0.26039315  0.37922797  0.23625040  1
  O  O363  1  0.24453109  0.38089028  0.74457170  1
  O  O364  1  0.23823995  0.86519303  0.24161077  1
  O  O365  1  0.25397516  0.88665161  0.74404944  1
  O  O366  1  0.74311284  0.37437899  0.24179899  1
  O  O367  1  0.74270197  0.37600098  0.74298579  1
  O  O368  1  0.74388594  0.88393427  0.24445805  1
  O  O369  1  0.74481893  0.88031657  0.74504591  1
  O  O370  1  0.26772577  0.12731430  0.24936827  1
  O  O371  1  0.25438427  0.11397214  0.75462919  1
  O  O372  1  0.25592140  0.61834218  0.25660059  1
  O  O373  1  0.25007460  0.61805681  0.75705750  1
  O  O374  1  0.75328287  0.11498618  0.24784306  1
  O  O375  1  0.75485357  0.11999093  0.75496196  1
  O  O376  1  0.75278492  0.62002995  0.25500404  1
  O  O377  1  0.74212703  0.62966412  0.76730638  1
  O  O378  1  0.37379487  0.11540380  0.36610669  1
  O  O379  1  0.36885401  0.11730308  0.86852252  1
  O  O380  1  0.37012202  0.61599752  0.37080632  1
  O  O381  1  0.36742654  0.61799777  0.87406281  1
  O  O382  1  0.86826408  0.11722208  0.37345751  1
  O  O383  1  0.86933051  0.12189810  0.86999701  1
  O  O384  1  0.87522372  0.61351212  0.37635108  1
  O  O385  1  0.86003122  0.62784578  0.88248806  1
  O  O386  1  0.13988784  0.38092629  0.11611026  1
  O  O387  1  0.12995973  0.38004406  0.62945702  1
  O  O388  1  0.13095573  0.87354062  0.13399108  1
  O  O389  1  0.13146346  0.88826683  0.61683710  1
  O  O390  1  0.63600068  0.37605955  0.13102162  1
  O  O391  1  0.62896405  0.38051914  0.63062992  1
  O  O392  1  0.63186125  0.88427067  0.13073664  1
  O  O393  1  0.63050457  0.88087049  0.63111102  1
  O  O394  1  0.12149678  0.24517426  0.25551047  1
  O  O395  1  0.12608952  0.25516639  0.75511597  1
  O  O396  1  0.11839414  0.75654174  0.25763776  1
  O  O397  1  0.11619841  0.74711738  0.76285303  1
  O  O398  1  0.61838838  0.26113962  0.24427351  1
  O  O399  1  0.62497438  0.25736258  0.75680071  1
  O  O400  1  0.61983163  0.75546570  0.25483386  1
  O  O401  1  0.61392208  0.75716814  0.74982962  1
  O  O402  1  0.38373382  0.23527735  0.24500535  1
  O  O403  1  0.37583647  0.24271185  0.73911355  1
  O  O404  1  0.37952973  0.74239137  0.24660190  1
  O  O405  1  0.38256608  0.74912510  0.74387342  1
  O  O406  1  0.87745114  0.25135642  0.23590280  1
  O  O407  1  0.87389695  0.24561870  0.73974043  1
  O  O408  1  0.88192771  0.75054193  0.24479007  1
  O  O409  1  0.88630446  0.75444001  0.74384440  1
  O  O410  1  0.37679832  0.49829736  0.48654526  1
  O  O411  1  0.38047209  0.49490576  0.99314128  1
  O  O412  1  0.37456922  0.98936459  0.49430436  1
  O  O413  1  0.37628126  1.00087820  0.98776954  1
  O  O414  1  0.88078633  0.49483985  0.49348823  1
  O  O415  1  0.88421632  0.49416818  0.99579609  1
  O  O416  1  0.87832352  0.99459468  0.49677511  1
  O  O417  1  0.87719667  0.99937184  0.99064828  1
  O  O418  1  0.12204525  0.00885859  0.00272065  1
  O  O419  1  0.11960366  0.00601309  0.50733145  1
  O  O420  1  0.12092895  0.50610243  0.00701641  1
  O  O421  1  0.12062677  0.50611344  0.50656451  1
  O  O422  1  0.62701745  0.00917346  0.00830278  1
  O  O423  1  0.62133950  0.00053106  0.51012520  1
  O  O424  1  0.61892594  0.51058045  0.00271919  1
  O  O425  1  0.62283431  0.50617661  0.50679444  1
  O  O426  1  0.36540321  0.37449680  0.11615344  1
  O  O427  1  0.37139619  0.36517314  0.62553677  1
  O  O428  1  0.36488392  0.86773623  0.12839120  1
  O  O429  1  0.36737041  0.86941506  0.61724321  1
  O  O430  1  0.86986259  0.36862124  0.11948598  1
  O  O431  1  0.87031222  0.36747562  0.61978595  1
  O  O432  1  0.86873133  0.86966448  0.12399663  1
  O  O433  1  0.86931861  0.86904122  0.62077062  1
  O  O434  1  0.12646245  0.12123364  0.38568268  1
  O  O435  1  0.13074614  0.12973244  0.87906801  1
  O  O436  1  0.12946130  0.62873805  0.38167134  1
  O  O437  1  0.13049537  0.63407745  0.88126751  1
  O  O438  1  0.62969648  0.12084001  0.37929145  1
  O  O439  1  0.63151457  0.13024367  0.88086612  1
  O  O440  1  0.62442028  0.63119218  0.38166878  1
  O  O441  1  0.63275729  0.62853270  0.88745826  1
