# generated using pymatgen
data_V93Zn93O256
_symmetry_space_group_name_H-M   'P 1'
_cell_length_a   17.04573882
_cell_length_b   17.04521779
_cell_length_c   17.04399239
_cell_angle_alpha   89.87944086
_cell_angle_beta   90.01812904
_cell_angle_gamma   89.98379568
_symmetry_Int_Tables_number   1
_chemical_formula_structural   V93Zn93O256
_chemical_formula_sum   'V93 Zn93 O256'
_cell_volume   4952.09212647
_cell_formula_units_Z   1
loop_
 _symmetry_equiv_pos_site_id
 _symmetry_equiv_pos_as_xyz
  1  'x, y, z'
loop_
 _atom_site_type_symbol
 _atom_site_label
 _atom_site_symmetry_multiplicity
 _atom_site_fract_x
 _atom_site_fract_y
 _atom_site_fract_z
 _atom_site_occupancy
  V  V0  1  0.24295563  0.24975622  0.49544564  1
  V  V1  1  0.00025659  0.24882698  0.75068941  1
  V  V2  1  0.62514608  0.74989263  0.87565167  1
  V  V3  1  0.74591898  0.00263065  0.24659942  1
  V  V4  1  0.75025680  0.62535634  0.87683762  1
  V  V5  1  0.87459202  0.62639455  0.25127874  1
  V  V6  1  0.74353051  0.37871557  0.62643804  1
  V  V7  1  0.00071787  0.75091319  0.25049278  1
  V  V8  1  0.74911850  0.12444953  0.87632191  1
  V  V9  1  0.24420717  0.62821619  0.87391186  1
  V  V10  1  0.75012896  0.12700942  0.37473500  1
  V  V11  1  0.37446595  0.00017328  0.37524506  1
  V  V12  1  0.25148774  0.24951651  -0.00075675  1
  V  V13  1  0.62523713  0.62216172  0.50442052  1
  V  V14  1  0.87556718  0.12887813  0.24726592  1
  V  V15  1  0.87547409  0.87449195  -0.00089147  1
  V  V16  1  0.25384699  0.75201853  -0.00218833  1
  V  V17  1  0.00362230  0.86969797  0.87489230  1
  V  V18  1  0.12805102  -0.00086363  0.12379787  1
  V  V19  1  0.62471863  0.75085899  0.37480083  1
  V  V20  1  0.62518765  0.12474204  0.50059357  1
  V  V21  1  0.87427250  0.74964114  0.62487131  1
  V  V22  1  0.12432366  0.75014836  0.37401960  1
  V  V23  1  0.12470165  0.24910522  0.87442930  1
  V  V24  1  0.12699521  0.36743123  0.25504659  1
  V  V25  1  0.75067362  0.50201871  0.25189673  1
  V  V26  1  0.12535475  0.50055770  0.12566418  1
  V  V27  1  0.12333945  0.62783043  -0.00222811  1
  V  V28  1  0.37317923  0.49958424  0.87435758  1
  V  V29  1  0.25740194  0.87486066  0.11947023  1
  V  V30  1  0.00327914  0.74795030  0.75218449  1
  V  V31  1  0.12438531  0.62378545  0.50028045  1
  V  V32  1  0.12447857  0.87245586  0.75112668  1
  V  V33  1  0.50019309  0.25137027  0.25091295  1
  V  V34  1  0.25218147  -0.00038999  0.24827839  1
  V  V35  1  0.62511934  0.37630559  0.25261822  1
  V  V36  1  0.12678313  0.12365534  0.00024585  1
  V  V37  1  -0.00123005  0.62384122  0.62496629  1
  V  V38  1  0.87371856  0.87521244  0.49977501  1
  V  V39  1  0.87518021  0.37750372  0.49889687  1
  V  V40  1  0.62515540  0.25034908  0.87568497  1
  V  V41  1  0.24970276  0.75015764  0.49923294  1
  V  V42  1  0.37514413  0.62675892  0.24974846  1
  V  V43  1  0.37643342  0.12398063  0.75010645  1
  V  V44  1  0.37341191  0.25046610  0.62287057  1
  V  V45  1  0.50932468  0.12165228  0.12421899  1
  V  V46  1  0.87472149  -0.00157332  0.87401055  1
  V  V47  1  -0.00033249  0.87515107  0.37453016  1
  V  V48  1  0.49994059  0.75096998  0.24886862  1
  V  V49  1  0.74874630  0.87958694  0.12363938  1
  V  V50  1  0.50241053  0.62037171  0.62707608  1
  V  V51  1  0.87448450  0.49499079  0.88214684  1
  V  V52  1  0.00027918  0.62528534  0.12508968  1
  V  V53  1  0.12312558  0.49952002  0.62596955  1
  V  V54  1  0.87563103  0.75164549  0.12509742  1
  V  V55  1  0.75021913  0.62627809  0.37594764  1
  V  V56  1  0.49900470  0.49904511  0.50145163  1
  V  V57  1  0.74875477  0.87407248  0.62516795  1
  V  V58  1  0.25049573  0.62539294  0.37373823  1
  V  V59  1  0.62413958  0.50202898  0.12531028  1
  V  V60  1  0.62437307  0.87524206  0.75006328  1
  V  V61  1  0.74480280  0.49828352  0.74860741  1
  V  V62  1  0.49216721  0.87451491  0.88073310  1
  V  V63  1  0.25006232  -0.00104078  0.74927391  1
  V  V64  1  0.25011135  0.12366466  0.87417978  1
  V  V65  1  0.49868898  0.74928118  0.75047490  1
  V  V66  1  0.24954945  0.87454979  0.62470435  1
  V  V67  1  0.50151476  -0.00107388  0.00180697  1
  V  V68  1  0.12414691  -0.00001654  0.62292225  1
  V  V69  1  0.87495692  0.24995767  0.62568415  1
  V  V70  1  0.24786374  0.49858556  0.75035099  1
  V  V71  1  0.62457702  -0.00055497  0.62464528  1
  V  V72  1  0.74824036  0.25031431  0.50002613  1
  V  V73  1  0.25129542  0.50142186  0.25056689  1
  V  V74  1  -0.00492519  0.37288549  0.88377813  1
  V  V75  1  0.50072404  0.37429586  0.87492857  1
  V  V76  1  0.50008315  0.00045056  0.49977058  1
  V  V77  1  0.12370098  0.37461704  0.74991014  1
  V  V78  1  0.00066385  0.12401296  0.12411176  1
  V  V79  1  0.00363547  0.36953725  0.37512471  1
  V  V80  1  -0.00088706  -0.00034943  0.49920898  1
  V  V81  1  0.75772858  0.37369759  0.11974418  1
  V  V82  1  0.87508826  0.12380324  0.75080258  1
  V  V83  1  0.37819412  0.25013175  0.12366064  1
  V  V84  1  -0.00007458  0.12358619  0.62451820  1
  V  V85  1  0.49979468  0.62570118  0.12557368  1
  V  V86  1  0.37494390  0.37515579  -0.00060305  1
  V  V87  1  0.62401668  0.87869966  0.24646345  1
  V  V88  1  0.49926045  0.50129283  0.00072566  1
  V  V89  1  0.37485265  0.74914603  0.62472558  1
  V  V90  1  0.37524939  0.87595232  0.49934925  1
  V  V91  1  0.24444189  0.12810309  0.37338877  1
  V  V92  1  0.25065059  0.37526157  0.12538184  1
  Zn  Zn93  1  0.37849127  0.75407594  0.12053927  1
  Zn  Zn94  1  0.74873669  0.75022258  0.00082504  1
  Zn  Zn95  1  0.37314923  0.62325522  0.74937391  1
  Zn  Zn96  1  0.50126315  0.12551347  0.62562207  1
  Zn  Zn97  1  0.88553269  0.25948970  0.11744716  1
  Zn  Zn98  1  0.87609435  0.00071641  0.37388920  1
  Zn  Zn99  1  0.37532479  0.49875870  0.37574857  1
  Zn  Zn100  1  0.62368547  0.62721207  0.00112151  1
  Zn  Zn101  1  0.87495590  0.62282402  0.74988010  1
  Zn  Zn102  1  -0.00353723  0.49557751  0.00387602  1
  Zn  Zn103  1  0.49999739  0.87631227  0.37381796  1
  Zn  Zn104  1  0.62053326  0.37728863  0.74699676  1
  Zn  Zn105  1  0.87685661  0.50170290  0.37543999  1
  Zn  Zn106  1  0.49802259  0.37662948  0.37747993  1
  Zn  Zn107  1  0.50051066  0.25112126  0.74879399  1
  Zn  Zn108  1  0.74842946  0.75015681  0.50113891  1
  Zn  Zn109  1  0.62991656  0.12197781  0.00449802  1
  Zn  Zn110  1  0.00068958  0.49959641  0.49939853  1
  Zn  Zn111  1  0.00635619  0.24591675  0.25451301  1
  Zn  Zn112  1  0.12019271  0.12826054  0.49386745  1
  Zn  Zn113  1  0.37256441  0.37631548  0.49832133  1
  Zn  Zn114  1  0.12552792  0.87459057  0.24771305  1
  Zn  Zn115  1  0.37210239  -0.00529386  0.88043216  1
  Zn  Zn116  1  0.24820548  0.37505278  0.62227173  1
  Zn  Zn117  1  0.74869805  -0.00083996  0.74985422  1
  Zn  Zn118  1  0.62260220  0.25114967  0.37780923  1
  Zn  Zn119  1  0.75795150  0.25462836  -0.00341722  1
  Zn  Zn120  1  0.00240802  -0.00247001  -0.00176410  1
  Zn  Zn121  1  0.37767942  0.12474115  0.24971083  1
  Zn  Zn122  1  0.19102649  0.18577535  0.18699641  1
  Zn  Zn123  1  0.18749313  0.18653872  0.68478622  1
  Zn  Zn124  1  0.18793166  0.68991645  0.18543204  1
  Zn  Zn125  1  0.18522649  0.68640343  0.68711485  1
  Zn  Zn126  1  0.68788671  0.19242992  0.18918040  1
  Zn  Zn127  1  0.68686369  0.18862642  0.68947978  1
  Zn  Zn128  1  0.68711712  0.69040244  0.18781179  1
  Zn  Zn129  1  0.68707520  0.68746060  0.68998280  1
  Zn  Zn130  1  0.31624160  0.31416855  0.31531258  1
  Zn  Zn131  1  0.31219428  0.31205449  0.81096805  1
  Zn  Zn132  1  0.31260103  0.81407374  0.30970460  1
  Zn  Zn133  1  0.31163640  0.80839640  0.81125151  1
  Zn  Zn134  1  0.81386574  0.31149612  0.31195052  1
  Zn  Zn135  1  0.81289746  0.31203307  0.81215862  1
  Zn  Zn136  1  0.81224568  0.81251162  0.31360519  1
  Zn  Zn137  1  0.81393291  0.81118795  0.81029603  1
  Zn  Zn138  1  0.18809695  0.43772042  0.43795535  1
  Zn  Zn139  1  0.18453457  0.43881461  0.93773858  1
  Zn  Zn140  1  0.18616804  0.93881187  0.43600975  1
  Zn  Zn141  1  0.18672399  0.93665679  0.93662449  1
  Zn  Zn142  1  0.68641843  0.44069572  0.43820789  1
  Zn  Zn143  1  0.68457743  0.43946950  0.93764941  1
  Zn  Zn144  1  0.68886305  0.93915017  0.43522744  1
  Zn  Zn145  1  0.68315372  0.93927593  0.93786030  1
  Zn  Zn146  1  0.32010198  0.06264193  0.06250707  1
  Zn  Zn147  1  0.31117251  0.06447261  0.56081642  1
  Zn  Zn148  1  0.31327604  0.56456505  0.06289168  1
  Zn  Zn149  1  0.31280625  0.56219801  0.56361204  1
  Zn  Zn150  1  0.81643935  0.06146462  0.05950630  1
  Zn  Zn151  1  0.81190977  0.06053608  0.56292890  1
  Zn  Zn152  1  0.81228158  0.56165217  0.06356059  1
  Zn  Zn153  1  0.81194432  0.56232287  0.56413037  1
  Zn  Zn154  1  0.43644183  0.43903711  0.18762218  1
  Zn  Zn155  1  0.43483766  0.43607070  0.68801198  1
  Zn  Zn156  1  0.43754869  0.94082141  0.18537968  1
  Zn  Zn157  1  0.43846230  0.93745283  0.68795370  1
  Zn  Zn158  1  0.94071240  0.44117084  0.19288862  1
  Zn  Zn159  1  0.93442879  0.43777354  0.69192346  1
  Zn  Zn160  1  0.93634826  0.94014212  0.18833317  1
  Zn  Zn161  1  0.93586701  0.93658725  0.68772587  1
  Zn  Zn162  1  0.06425849  0.05880671  0.31024204  1
  Zn  Zn163  1  0.06230995  0.05900917  0.81192618  1
  Zn  Zn164  1  0.06243838  0.55846330  0.31368626  1
  Zn  Zn165  1  0.06029367  0.55970991  0.81326658  1
  Zn  Zn166  1  0.56275964  0.06395035  0.31420655  1
  Zn  Zn167  1  0.56178012  0.05999136  0.81409775  1
  Zn  Zn168  1  0.56230735  0.56368533  0.31526606  1
  Zn  Zn169  1  0.56321483  0.56206202  0.81353801  1
  Zn  Zn170  1  0.43441018  0.18588494  0.43678580  1
  Zn  Zn171  1  0.43963627  0.18473563  0.93799599  1
  Zn  Zn172  1  0.43815665  0.68823521  0.43591421  1
  Zn  Zn173  1  0.43447466  0.68571134  0.93651641  1
  Zn  Zn174  1  0.93553412  0.18841518  0.43706357  1
  Zn  Zn175  1  0.93493197  0.18795967  0.94125381  1
  Zn  Zn176  1  0.93704033  0.68897379  0.43902985  1
  Zn  Zn177  1  0.93433207  0.68635930  0.93839299  1
  Zn  Zn178  1  0.06684033  0.30962726  0.06535810  1
  Zn  Zn179  1  0.06223572  0.31237335  0.56283288  1
  Zn  Zn180  1  0.06669158  0.81151350  0.06148584  1
  Zn  Zn181  1  0.06147151  0.81198240  0.56264998  1
  Zn  Zn182  1  0.56753143  0.31190696  0.06102889  1
  Zn  Zn183  1  0.56052295  0.31041516  0.56365355  1
  Zn  Zn184  1  0.56374848  0.81241103  0.06067890  1
  Zn  Zn185  1  0.56123638  0.81130343  0.56248357  1
  O  O186  1  0.12015426  0.11957254  0.12044902  1
  O  O187  1  0.11660402  0.11679880  0.62466199  1
  O  O188  1  0.12009451  0.61989489  0.11849973  1
  O  O189  1  0.11839022  0.61954610  0.61938228  1
  O  O190  1  0.61385732  0.13417447  0.12400977  1
  O  O191  1  0.62524681  0.11889658  0.61910493  1
  O  O192  1  0.61922842  0.61957978  0.12528342  1
  O  O193  1  0.61356162  0.63274595  0.61631034  1
  O  O194  1  0.38107551  0.38044726  0.38002492  1
  O  O195  1  0.37927118  0.37929241  0.88059323  1
  O  O196  1  0.37489546  0.88203128  0.38175603  1
  O  O197  1  0.38830748  0.87392485  0.86803222  1
  O  O198  1  0.88080655  0.37568157  0.38416860  1
  O  O199  1  0.88471299  0.38163626  0.87081553  1
  O  O200  1  0.88134772  0.87616818  0.38113564  1
  O  O201  1  0.88229464  0.87842567  0.87884717  1
  O  O202  1  0.25518462  0.00634964  0.36932077  1
  O  O203  1  0.25173600  0.00451343  0.86794326  1
  O  O204  1  0.25005638  0.50872866  0.36830118  1
  O  O205  1  0.25330507  0.50693125  0.87081501  1
  O  O206  1  0.75328176  0.00760506  0.36346992  1
  O  O207  1  0.75486108  0.00786080  0.87260872  1
  O  O208  1  0.75162042  0.50829513  0.36917133  1
  O  O209  1  0.75609065  0.50475705  0.87041290  1
  O  O210  1  0.24573055  0.49430736  0.13025046  1
  O  O211  1  0.24186362  0.49958518  0.63214098  1
  O  O212  1  0.24799625  0.99450764  0.12645444  1
  O  O213  1  0.24457274  0.99347917  0.62923276  1
  O  O214  1  0.74521614  0.49280732  0.13222897  1
  O  O215  1  0.75823115  0.48997118  0.63660753  1
  O  O216  1  0.75618323  0.99032779  0.13428816  1
  O  O217  1  0.74253897  0.99237422  0.62683570  1
  O  O218  1  0.00934626  0.37263269  0.25682566  1
  O  O219  1  0.00412437  0.36752344  0.75960499  1
  O  O220  1  0.00051278  0.86913662  0.25532584  1
  O  O221  1  0.00342286  0.86706908  0.75570112  1
  O  O222  1  0.50972928  0.36858517  0.24683413  1
  O  O223  1  0.50166024  0.37334170  0.75829425  1
  O  O224  1  0.51020735  0.87242777  0.24774614  1
  O  O225  1  0.50528081  0.86878654  0.75738277  1
  O  O226  1  0.50177312  0.13495715  0.24311498  1
  O  O227  1  0.48721688  0.12597293  0.74987963  1
  O  O228  1  0.49604534  0.63094340  0.24513873  1
  O  O229  1  0.50009360  0.62941314  0.74208311  1
  O  O230  1  0.99330587  0.12442698  0.24338733  1
  O  O231  1  0.99477983  0.12951002  0.74534158  1
  O  O232  1  0.99516094  0.63023581  0.24514835  1
  O  O233  1  0.99970488  0.63316618  0.74598041  1
  O  O234  1  0.37039251  0.25598477  0.00343053  1
  O  O235  1  0.36632103  0.24808327  0.50954385  1
  O  O236  1  0.35875624  0.74266466  0.00274756  1
  O  O237  1  0.36928583  0.75551376  0.50463257  1
  O  O238  1  0.86980532  0.24773440  0.00705089  1
  O  O239  1  0.86850355  0.25952952  0.50548196  1
  O  O240  1  0.87123901  0.75663187  0.00730902  1
  O  O241  1  0.87309857  0.75731396  0.50776343  1
  O  O242  1  0.13802145  0.24666105  0.50641082  1
  O  O243  1  0.13260255  0.24306686  0.99448730  1
  O  O244  1  0.13034555  0.74439747  0.49494477  1
  O  O245  1  0.13522725  0.73489214  1.00476359  1
  O  O246  1  0.63080729  0.24385657  0.49906494  1
  O  O247  1  0.63272205  0.24801454  0.98750372  1
  O  O248  1  0.62369725  0.73946513  0.49379973  1
  O  O249  1  0.62973995  0.74735915  0.99157168  1
  O  O250  1  0.49789736  0.24576523  0.13175470  1
  O  O251  1  0.48793923  0.24633400  0.62736240  1
  O  O252  1  0.49936191  0.74485265  0.13038739  1
  O  O253  1  0.49406787  0.74191365  0.63018189  1
  O  O254  1  1.00364723  0.23598663  0.12974955  1
  O  O255  1  0.99423871  0.24410160  0.63064735  1
  O  O256  1  0.99544474  0.74522773  0.13043741  1
  O  O257  1  0.99447652  0.74448176  0.63249779  1
  O  O258  1  -0.00394433  0.26385774  0.37320446  1
  O  O259  1  0.00491639  0.25451257  0.87048833  1
  O  O260  1  0.00528187  0.75515223  0.36982373  1
  O  O261  1  -0.00798880  0.75893410  0.86471392  1
  O  O262  1  0.50055700  0.25124484  0.36278605  1
  O  O263  1  0.50881403  0.25542216  0.87539212  1
  O  O264  1  0.50681096  0.75355184  0.36715066  1
  O  O265  1  0.50367777  0.75485534  0.87133458  1
  O  O266  1  0.24713733  0.13106023  0.49051663  1
  O  O267  1  0.24695651  0.12989661  0.99468740  1
  O  O268  1  0.24445118  0.63126106  0.49497627  1
  O  O269  1  0.24235104  0.62931484  0.99337514  1
  O  O270  1  0.74638128  0.13057675  0.49528648  1
  O  O271  1  0.74899477  0.12265991  0.98682391  1
  O  O272  1  0.74033256  0.62537220  0.49708768  1
  O  O273  1  0.74801100  0.62505162  0.98797863  1
  O  O274  1  0.25405994  0.36948497  0.00478997  1
  O  O275  1  0.25108894  0.36434404  0.50117428  1
  O  O276  1  0.24095203  0.86295976  0.00576825  1
  O  O277  1  0.25451181  0.86963047  0.50553061  1
  O  O278  1  0.74591891  0.38067114  0.01811379  1
  O  O279  1  0.75608833  0.37248024  0.50620046  1
  O  O280  1  0.75451193  0.87716433  0.00942328  1
  O  O281  1  0.75499176  0.87346126  0.50599768  1
  O  O282  1  0.13179379  0.49195514  0.24394825  1
  O  O283  1  0.12857450  0.49408483  0.74572251  1
  O  O284  1  0.13451617  0.99807986  0.24074340  1
  O  O285  1  0.13050090  0.99302455  0.74310826  1
  O  O286  1  0.62910679  0.49393986  0.24583102  1
  O  O287  1  0.64032565  0.49612884  0.75780975  1
  O  O288  1  0.63608802  0.99240729  0.25404183  1
  O  O289  1  0.62508023  0.99296482  0.74279781  1
  O  O290  1  0.36922846  0.00140162  0.25686674  1
  O  O291  1  0.36806746  0.00904101  0.74927497  1
  O  O292  1  0.36832055  0.50798923  0.25078973  1
  O  O293  1  0.36588981  0.50103758  0.75648573  1
  O  O294  1  0.86513301  0.01106295  0.25099295  1
  O  O295  1  0.87289750  0.00613908  0.75577834  1
  O  O296  1  0.86855949  0.50983637  0.25252465  1
  O  O297  1  0.86449876  0.50107234  0.76268823  1
  O  O298  1  0.11708907  0.38129000  0.36479912  1
  O  O299  1  0.11680508  0.36882952  0.86977747  1
  O  O300  1  0.11829934  0.86768624  0.37329046  1
  O  O301  1  0.11146407  0.87942404  0.86780300  1
  O  O302  1  0.62259511  0.37559223  0.36320764  1
  O  O303  1  0.61988862  0.36635170  0.87505711  1
  O  O304  1  0.62576064  0.87056932  0.36244981  1
  O  O305  1  0.61674316  0.86867107  0.86898158  1
  O  O306  1  0.38762774  0.13415766  0.12743106  1
  O  O307  1  0.37368955  0.13194140  0.63407666  1
  O  O308  1  0.38190877  0.62665759  0.13272318  1
  O  O309  1  0.38441352  0.63168773  0.62618795  1
  O  O310  1  0.88584424  0.12117597  0.13246254  1
  O  O311  1  0.87968632  0.13014934  0.63026979  1
  O  O312  1  0.87974675  0.63109734  0.13023210  1
  O  O313  1  0.88078541  0.63068742  0.62712712  1
  O  O314  1  0.25717755  0.25510813  0.11846585  1
  O  O315  1  0.25768418  0.24877157  0.61571038  1
  O  O316  1  0.25152775  0.75839567  0.11689054  1
  O  O317  1  0.25383518  0.75454170  0.61941569  1
  O  O318  1  0.74810560  0.26796351  0.12590755  1
  O  O319  1  0.75659585  0.25799848  0.62050560  1
  O  O320  1  0.75721326  0.76230575  0.12642565  1
  O  O321  1  0.75591005  0.75578076  0.62535169  1
  O  O322  1  0.25873536  0.23941644  0.38375080  1
  O  O323  1  0.24390059  0.24432857  0.87991526  1
  O  O324  1  0.24430650  0.74564478  0.37973863  1
  O  O325  1  0.25251964  0.73702233  0.88111306  1
  O  O326  1  0.74805647  0.24501412  0.38172884  1
  O  O327  1  0.74394039  0.24187590  0.87430410  1
  O  O328  1  0.74270782  0.74392887  0.37685475  1
  O  O329  1  0.74613885  0.74013045  0.87367869  1
  O  O330  1  0.00770332  0.12253745  0.00917572  1
  O  O331  1  -0.00055373  0.11969815  0.50553572  1
  O  O332  1  0.00833690  0.62506696  0.00539670  1
  O  O333  1  0.00634614  0.62335741  0.50624303  1
  O  O334  1  0.50453620  0.12041432  0.00816200  1
  O  O335  1  0.50687664  0.11842587  0.50074123  1
  O  O336  1  0.49939767  0.61858200  0.00657909  1
  O  O337  1  0.50564699  0.62016821  0.50779753  1
  O  O338  1  0.50251802  0.38849439  0.50206442  1
  O  O339  1  0.49442593  0.38076645  0.99584185  1
  O  O340  1  0.49308973  0.88150640  0.49826767  1
  O  O341  1  0.50549623  0.88199964  0.99001405  1
  O  O342  1  0.99100835  0.37412005  0.49402566  1
  O  O343  1  1.00906911  0.37447295  0.98756549  1
  O  O344  1  0.99383224  0.87961491  0.49497263  1
  O  O345  1  0.99600622  0.87244987  0.99031324  1
  O  O346  1  0.49805016  0.50196584  0.38796095  1
  O  O347  1  0.49374948  0.49530276  0.88048195  1
  O  O348  1  0.49307911  0.99895645  0.38101357  1
  O  O349  1  0.49722401  0.99002427  0.88037648  1
  O  O350  1  0.99636997  0.48687580  0.37775029  1
  O  O351  1  0.99135746  0.49008590  0.87593065  1
  O  O352  1  0.99898680  0.99348683  0.38044048  1
  O  O353  1  0.99350899  0.98777153  0.87405346  1
  O  O354  1  0.00758741  0.00925332  0.12452521  1
  O  O355  1  0.00406120  0.00391800  0.61978758  1
  O  O356  1  0.00594666  0.50691303  0.12370460  1
  O  O357  1  0.00448915  0.50579788  0.62645004  1
  O  O358  1  0.49662354  0.01212020  0.11832896  1
  O  O359  1  0.50652455  0.00116838  0.61763535  1
  O  O360  1  0.50486644  0.50573610  0.12057905  1
  O  O361  1  0.49406922  0.51249024  0.61883840  1
  O  O362  1  0.24499603  0.38016754  0.24545418  1
  O  O363  1  0.24095821  0.38074974  0.75003191  1
  O  O364  1  0.24762416  0.88066469  0.23861419  1
  O  O365  1  0.24465161  0.87789656  0.74473986  1
  O  O366  1  0.74190162  0.38063622  0.24470058  1
  O  O367  1  0.75099389  0.38119303  0.74182014  1
  O  O368  1  0.74556755  0.88348914  0.24357327  1
  O  O369  1  0.74246655  0.87538505  0.74402103  1
  O  O370  1  0.25462505  0.11949332  0.25600246  1
  O  O371  1  0.25587190  0.11898097  0.75444793  1
  O  O372  1  0.25442066  0.62134628  0.25376530  1
  O  O373  1  0.24678116  0.61922540  0.75921079  1
  O  O374  1  0.75546202  0.12031203  0.25114599  1
  O  O375  1  0.75678265  0.12443928  0.76020144  1
  O  O376  1  0.75454847  0.62193893  0.25507545  1
  O  O377  1  0.75059838  0.61664573  0.75952689  1
  O  O378  1  0.36476318  0.11707605  0.37243144  1
  O  O379  1  0.36799761  0.12624117  0.86432089  1
  O  O380  1  0.36756378  0.62575491  0.36764261  1
  O  O381  1  0.36253909  0.61698454  0.87311938  1
  O  O382  1  0.86920966  0.12554468  0.36366109  1
  O  O383  1  0.86839082  0.11936357  0.86998141  1
  O  O384  1  0.86848371  0.62600400  0.36974398  1
  O  O385  1  0.86611763  0.61668961  0.87273618  1
  O  O386  1  0.13132772  0.38046200  0.13283436  1
  O  O387  1  0.12385725  0.38115482  0.63294770  1
  O  O388  1  0.13523652  0.88171427  0.12469449  1
  O  O389  1  0.13024020  0.87996205  0.63011966  1
  O  O390  1  0.63349467  0.38156488  0.13535986  1
  O  O391  1  0.64028036  0.36887575  0.62618460  1
  O  O392  1  0.63657651  0.86946042  0.13653576  1
  O  O393  1  0.62877330  0.87866407  0.63005638  1
  O  O394  1  0.12809488  0.26421451  0.24512397  1
  O  O395  1  0.11969536  0.25324585  0.75531274  1
  O  O396  1  0.11811293  0.75055402  0.25607388  1
  O  O397  1  0.11109349  0.75612645  0.74319280  1
  O  O398  1  0.61685655  0.26045435  0.25210376  1
  O  O399  1  0.62285561  0.25329219  0.76193496  1
  O  O400  1  0.62008837  0.75917252  0.25511519  1
  O  O401  1  0.61748879  0.75514860  0.75606249  1
  O  O402  1  0.38687304  0.25237889  0.24257577  1
  O  O403  1  0.37188384  0.24021857  0.74111579  1
  O  O404  1  0.38250906  0.74521842  0.24735396  1
  O  O405  1  0.38074318  0.74574829  0.74233867  1
  O  O406  1  0.87548836  0.23767944  0.24245212  1
  O  O407  1  0.88130767  0.24379564  0.74519743  1
  O  O408  1  0.88068127  0.74536198  0.24472253  1
  O  O409  1  0.88670741  0.74858009  0.74275424  1
  O  O410  1  0.38549212  0.50018092  0.49957597  1
  O  O411  1  0.37894891  0.49388691  0.99482759  1
  O  O412  1  0.37924223  0.99500904  0.49569218  1
  O  O413  1  0.39249164  1.00635189  0.99524759  1
  O  O414  1  0.87562007  0.48709911  0.49966223  1
  O  O415  1  0.87695241  0.50350634  0.98689679  1
  O  O416  1  0.88143611  0.99355429  0.49804236  1
  O  O417  1  0.88029242  0.99163686  0.99225862  1
  O  O418  1  0.12423518  0.00697022  0.00566359  1
  O  O419  1  0.11710095  0.00111303  0.50625352  1
  O  O420  1  0.12395207  0.51039384  0.00767433  1
  O  O421  1  0.12377745  0.50633473  0.50772049  1
  O  O422  1  0.60923644  0.00490537  -0.00518068  1
  O  O423  1  0.62035076  0.00469497  0.50460836  1
  O  O424  1  0.61630084  0.50273558  0.00719122  1
  O  O425  1  0.61603074  0.51446383  0.49683670  1
  O  O426  1  0.36990104  0.37060349  0.11859415  1
  O  O427  1  0.37064531  0.36258722  0.62363055  1
  O  O428  1  0.36125397  0.87558834  0.12528018  1
  O  O429  1  0.36874477  0.86935368  0.61989219  1
  O  O430  1  0.86069880  0.37816814  0.13558840  1
  O  O431  1  0.86857505  0.36950543  0.61750463  1
  O  O432  1  0.86846819  0.87164996  0.12032127  1
  O  O433  1  0.86911888  0.86993533  0.61971184  1
  O  O434  1  0.13951196  0.12027159  0.37345791  1
  O  O435  1  0.12970535  0.12912263  0.87928128  1
  O  O436  1  0.12982262  0.63032929  0.38003487  1
  O  O437  1  0.13397177  0.61601076  0.88510047  1
  O  O438  1  0.63316939  0.12702244  0.38204034  1
  O  O439  1  0.63414582  0.13258670  0.87246296  1
  O  O440  1  0.63040634  0.63167482  0.38308650  1
  O  O441  1  0.63456814  0.63058792  0.87567136  1
