# generated using pymatgen
data_V93Zn93O256
_symmetry_space_group_name_H-M   'P 1'
_cell_length_a   17.04922735
_cell_length_b   17.04921119
_cell_length_c   17.04799646
_cell_angle_alpha   90.05984706
_cell_angle_beta   89.91880800
_cell_angle_gamma   89.99113800
_symmetry_Int_Tables_number   1
_chemical_formula_structural   V93Zn93O256
_chemical_formula_sum   'V93 Zn93 O256'
_cell_volume   4955.43359307
_cell_formula_units_Z   1
loop_
 _symmetry_equiv_pos_site_id
 _symmetry_equiv_pos_as_xyz
  1  'x, y, z'
loop_
 _atom_site_type_symbol
 _atom_site_label
 _atom_site_symmetry_multiplicity
 _atom_site_fract_x
 _atom_site_fract_y
 _atom_site_fract_z
 _atom_site_occupancy
  V  V0  1  0.37147776  0.87720864  0.50315156  1
  V  V1  1  0.62320050  0.50244379  0.12513800  1
  V  V2  1  0.12313228  0.49875409  0.12521911  1
  V  V3  1  0.74751499  0.50164162  0.24946003  1
  V  V4  1  0.12982096  0.12289714  0.49320857  1
  V  V5  1  0.62374928  0.87689286  0.25161978  1
  V  V6  1  0.37117943  0.75463499  0.62573248  1
  V  V7  1  0.87681579  0.87622050  0.49959348  1
  V  V8  1  0.75292639  -0.00091050  0.75026450  1
  V  V9  1  0.24839947  0.62344188  0.87521652  1
  V  V10  1  0.37192521  0.50242989  0.37516866  1
  V  V11  1  0.25194377  -0.00554544  0.74629482  1
  V  V12  1  0.00120036  0.62370350  0.62320770  1
  V  V13  1  0.61923775  0.00640478  0.62258507  1
  V  V14  1  0.87689214  0.74892910  0.62471315  1
  V  V15  1  0.87607049  0.87464687  -0.00037818  1
  V  V16  1  -0.00159096  0.49649493  -0.00123882  1
  V  V17  1  0.87588431  -0.00013474  0.87447673  1
  V  V18  1  0.87824843  0.12553244  0.74937601  1
  V  V19  1  0.12975708  -0.00396118  0.62318622  1
  V  V20  1  0.12638637  0.12391927  -0.00042640  1
  V  V21  1  0.12653708  0.00007614  0.12605514  1
  V  V22  1  0.37434293  0.25047847  0.12601356  1
  V  V23  1  0.12752065  0.74725285  0.37465940  1
  V  V24  1  0.87604740  0.62425603  0.74792339  1
  V  V25  1  -0.00098179  0.62401826  0.12425649  1
  V  V26  1  0.74971174  0.74919567  -0.00044640  1
  V  V27  1  0.12641332  0.87535288  0.25016223  1
  V  V28  1  0.12424285  0.24953062  0.87153376  1
  V  V29  1  0.24870005  0.37387941  0.62469858  1
  V  V30  1  0.00013829  0.87527207  0.37559125  1
  V  V31  1  0.87541954  0.24928982  0.62504699  1
  V  V32  1  0.62432931  0.25052467  0.37511332  1
  V  V33  1  0.62469246  0.75281236  0.37546993  1
  V  V34  1  0.25024373  0.37475507  0.12499495  1
  V  V35  1  0.37508559  0.37437395  0.00047283  1
  V  V36  1  0.74961382  0.62605246  0.37568263  1
  V  V37  1  0.49893573  0.75170995  0.25097603  1
  V  V38  1  0.25002458  0.75062342  0.00119680  1
  V  V39  1  0.62526993  0.24943391  0.87520582  1
  V  V40  1  0.37422693  0.37523456  0.49985788  1
  V  V41  1  0.37441795  0.00234159  0.37563100  1
  V  V42  1  0.49832091  0.50101760  0.00050232  1
  V  V43  1  0.75470847  0.12686173  0.37298342  1
  V  V44  1  0.12544726  0.49879854  0.62304272  1
  V  V45  1  0.00134964  -0.00038716  0.00082150  1
  V  V46  1  0.24964861  0.49857472  0.74837011  1
  V  V47  1  0.49910611  0.50192308  0.49972630  1
  V  V48  1  0.37137294  0.12704821  0.25578431  1
  V  V49  1  0.87516630  0.75052587  0.12543770  1
  V  V50  1  -0.00565455  0.12915635  0.13337866  1
  V  V51  1  0.49833810  0.62597997  0.12550343  1
  V  V52  1  0.88105639  0.37530372  0.49590908  1
  V  V53  1  0.75120465  0.87472020  0.62462109  1
  V  V54  1  0.50045593  0.00015085  0.00072480  1
  V  V55  1  0.62379544  0.62657683  0.50077239  1
  V  V56  1  0.12079478  0.25205392  0.37470670  1
  V  V57  1  0.74969952  0.37551194  0.62470461  1
  V  V58  1  0.25097354  0.24550503  0.49392364  1
  V  V59  1  0.00142449  0.87358150  0.87403044  1
  V  V60  1  0.50017485  0.87297635  0.87672229  1
  V  V61  1  0.38239051  0.12459285  0.74581704  1
  V  V62  1  0.87957216  0.49629428  0.37533816  1
  V  V63  1  0.87569197  0.49824052  0.87466995  1
  V  V64  1  0.87401425  0.62607394  0.25104185  1
  V  V65  1  0.74898223  0.25015364  0.49862805  1
  V  V66  1  0.12992557  0.62354185  0.49435371  1
  V  V67  1  0.00170160  -0.00090452  0.49988632  1
  V  V68  1  0.49790324  0.25168412  0.25169145  1
  V  V69  1  0.37459502  0.62432852  0.74855841  1
  V  V70  1  0.75046930  0.75069130  0.50008080  1
  V  V71  1  0.75030994  0.87599095  0.12606768  1
  V  V72  1  0.38113073  0.24559295  0.62376611  1
  V  V73  1  0.74950162  0.37566034  0.12276204  1
  V  V74  1  0.25059967  0.12384940  0.87542774  1
  V  V75  1  0.11662790  0.37253543  0.25361831  1
  V  V76  1  0.37605580  0.00018288  0.87555443  1
  V  V77  1  0.74943647  0.62590764  0.87513747  1
  V  V78  1  0.49970045  0.37596225  0.37488129  1
  V  V79  1  0.49909309  0.62582673  0.62470476  1
  V  V80  1  0.24784269  0.50427736  0.25504749  1
  V  V81  1  0.49886915  0.37529166  0.87417746  1
  V  V82  1  0.37027665  0.62771866  0.25456239  1
  V  V83  1  0.75623343  0.00580701  0.25144938  1
  V  V84  1  0.24988869  0.00380881  0.25367659  1
  V  V85  1  0.62548952  0.87283322  0.75071456  1
  V  V86  1  0.62457132  0.00164906  0.12634399  1
  V  V87  1  0.62466573  0.37496233  0.74937068  1
  V  V88  1  0.00070235  0.75090624  0.24974352  1
  V  V89  1  0.12701761  0.87247123  0.74767385  1
  V  V90  1  0.25100609  0.74972211  0.49649955  1
  V  V91  1  0.74994947  0.49943145  0.74949521  1
  V  V92  1  0.62573346  0.12588130  0.00053291  1
  Zn  Zn93  1  0.00199931  0.74826569  0.75042262  1
  Zn  Zn94  1  0.25079600  0.24971085  -0.00057311  1
  Zn  Zn95  1  0.12337385  0.37338667  0.74899171  1
  Zn  Zn96  1  0.75255144  0.12565736  0.87647557  1
  Zn  Zn97  1  0.12432493  0.62446901  -0.00041391  1
  Zn  Zn98  1  0.49926260  0.12608423  0.12708117  1
  Zn  Zn99  1  0.37442340  0.49788282  0.87456479  1
  Zn  Zn100  1  0.25210879  0.87491751  0.12456611  1
  Zn  Zn101  1  0.49395162  0.00675213  0.50501721  1
  Zn  Zn102  1  0.37437603  0.75360576  0.12614930  1
  Zn  Zn103  1  0.61808945  0.13024976  0.50417394  1
  Zn  Zn104  1  0.62430200  0.74842615  0.87715223  1
  Zn  Zn105  1  0.00239203  0.12551091  0.62373644  1
  Zn  Zn106  1  0.87364105  0.36929622  -0.00219867  1
  Zn  Zn107  1  0.37372233  0.87588954  0.00318840  1
  Zn  Zn108  1  -0.01334541  0.24922856  0.26175064  1
  Zn  Zn109  1  0.62424659  0.50046313  0.62465703  1
  Zn  Zn110  1  -0.00127986  0.37234728  0.87147980  1
  Zn  Zn111  1  0.50076941  0.87767136  0.37785780  1
  Zn  Zn112  1  0.00377261  0.49654136  0.49500680  1
  Zn  Zn113  1  0.62304930  0.37644822  0.25009827  1
  Zn  Zn114  1  0.86964583  0.24778895  0.12856623  1
  Zn  Zn115  1  0.87816983  0.00550602  0.37327298  1
  Zn  Zn116  1  0.12405151  0.74906785  0.87490995  1
  Zn  Zn117  1  0.62245590  0.62740531  -0.00192056  1
  Zn  Zn118  1  0.49978583  0.74814430  0.75104369  1
  Zn  Zn119  1  0.50297408  0.24712513  0.74489854  1
  Zn  Zn120  1  0.75248203  0.25026512  0.00138422  1
  Zn  Zn121  1  0.00162786  0.25189366  0.74726704  1
  Zn  Zn122  1  0.18660959  0.18733089  0.18733920  1
  Zn  Zn123  1  0.19207652  0.18317046  0.68521216  1
  Zn  Zn124  1  0.18603309  0.68683287  0.18468648  1
  Zn  Zn125  1  0.18965547  0.68614407  0.68339026  1
  Zn  Zn126  1  0.68631613  0.18954102  0.18976049  1
  Zn  Zn127  1  0.69252266  0.18807857  0.68991366  1
  Zn  Zn128  1  0.68540462  0.68838232  0.18706855  1
  Zn  Zn129  1  0.68819136  0.68693550  0.68710286  1
  Zn  Zn130  1  0.30866337  0.31581288  0.31279201  1
  Zn  Zn131  1  0.31118924  0.31118138  0.81153144  1
  Zn  Zn132  1  0.31199499  0.81618093  0.31521254  1
  Zn  Zn133  1  0.31253901  0.81070595  0.81506976  1
  Zn  Zn134  1  0.81163625  0.31320425  0.30808456  1
  Zn  Zn135  1  0.81223538  0.31272364  0.81335248  1
  Zn  Zn136  1  0.81239446  0.81579029  0.31300662  1
  Zn  Zn137  1  0.81403550  0.81052715  0.81255418  1
  Zn  Zn138  1  0.18757284  0.43394934  0.43639141  1
  Zn  Zn139  1  0.18687249  0.43593328  0.93753330  1
  Zn  Zn140  1  0.19141553  0.93386631  0.43605128  1
  Zn  Zn141  1  0.18785532  0.93647980  0.93537536  1
  Zn  Zn142  1  0.68825213  0.43774401  0.43760813  1
  Zn  Zn143  1  0.68534857  0.43958279  0.93815730  1
  Zn  Zn144  1  0.68970346  0.93908791  0.43731206  1
  Zn  Zn145  1  0.68895221  0.93798242  0.93783632  1
  Zn  Zn146  1  0.31336123  0.06300930  0.06514912  1
  Zn  Zn147  1  0.31136536  0.06399542  0.56374043  1
  Zn  Zn148  1  0.31277107  0.56266099  0.06502989  1
  Zn  Zn149  1  0.31164014  0.56449229  0.56284644  1
  Zn  Zn150  1  0.81228988  0.06153212  0.06188846  1
  Zn  Zn151  1  0.80951003  0.06327807  0.56140039  1
  Zn  Zn152  1  0.81208761  0.56200685  0.06099410  1
  Zn  Zn153  1  0.81217463  0.56090556  0.56195671  1
  Zn  Zn154  1  0.43630458  0.43888535  0.18785818  1
  Zn  Zn155  1  0.43711802  0.43637527  0.68713887  1
  Zn  Zn156  1  0.43738362  0.93681509  0.18610785  1
  Zn  Zn157  1  0.43879078  0.93483302  0.68949048  1
  Zn  Zn158  1  0.93357333  0.43602367  0.18717008  1
  Zn  Zn159  1  0.94049178  0.43598227  0.68605362  1
  Zn  Zn160  1  0.93898677  0.93866399  0.18680603  1
  Zn  Zn161  1  0.94183217  0.93782760  0.68581520  1
  Zn  Zn162  1  0.06419558  0.06330610  0.31467734  1
  Zn  Zn163  1  0.06252614  0.06157955  0.81245677  1
  Zn  Zn164  1  0.06159749  0.56324094  0.31143038  1
  Zn  Zn165  1  0.06301012  0.56038701  0.81053698  1
  Zn  Zn166  1  0.56223967  0.06597403  0.31566106  1
  Zn  Zn167  1  0.56423912  0.06041815  0.81301315  1
  Zn  Zn168  1  0.56031488  0.56471817  0.31266721  1
  Zn  Zn169  1  0.56260393  0.56185324  0.81279327  1
  Zn  Zn170  1  0.44127031  0.18446818  0.43878073  1
  Zn  Zn171  1  0.43858801  0.18786019  0.93655172  1
  Zn  Zn172  1  0.43780559  0.68883532  0.43575731  1
  Zn  Zn173  1  0.43411907  0.68760134  0.93798425  1
  Zn  Zn174  1  0.93884127  0.18642540  0.44111761  1
  Zn  Zn175  1  0.93858895  0.18803552  0.94168651  1
  Zn  Zn176  1  0.94010131  0.68627547  0.43780559  1
  Zn  Zn177  1  0.93786832  0.68621012  0.93580671  1
  Zn  Zn178  1  0.06532667  0.31113718  0.06093412  1
  Zn  Zn179  1  0.06148160  0.30993472  0.56310805  1
  Zn  Zn180  1  0.06602262  0.81196728  0.06209347  1
  Zn  Zn181  1  0.06349388  0.81132826  0.56365710  1
  Zn  Zn182  1  0.56184071  0.31389218  0.06397471  1
  Zn  Zn183  1  0.56288574  0.31498889  0.56082293  1
  Zn  Zn184  1  0.56315723  0.81169780  0.06433574  1
  Zn  Zn185  1  0.55818254  0.81637462  0.56249070  1
  O  O186  1  0.11831002  0.11874071  0.11953792  1
  O  O187  1  0.12580074  0.11362704  0.61497648  1
  O  O188  1  0.11583872  0.61615439  0.12530088  1
  O  O189  1  0.12182067  0.61941349  0.61461162  1
  O  O190  1  0.62310487  0.12083458  0.11613167  1
  O  O191  1  0.63304865  0.10851195  0.62933107  1
  O  O192  1  0.61639818  0.61991214  0.12424287  1
  O  O193  1  0.61772546  0.62555844  0.61839525  1
  O  O194  1  0.37904478  0.38145471  0.38127193  1
  O  O195  1  0.38058459  0.37407354  0.88107103  1
  O  O196  1  0.37657983  0.88422081  0.38493844  1
  O  O197  1  0.38605953  0.88126173  0.87430152  1
  O  O198  1  0.86508843  0.38581599  0.38438409  1
  O  O199  1  0.87701598  0.38270150  0.87766495  1
  O  O200  1  0.88256205  0.87628713  0.38246454  1
  O  O201  1  0.88133796  0.87989431  0.87977696  1
  O  O202  1  0.26099093  -0.00451474  0.36430419  1
  O  O203  1  0.25581348  0.00455813  0.86590447  1
  O  O204  1  0.25500641  0.49369360  0.36208486  1
  O  O205  1  0.25078900  0.50786221  0.86901253  1
  O  O206  1  0.75062778  0.00908863  0.36806510  1
  O  O207  1  0.75816707  0.00013385  0.86830939  1
  O  O208  1  0.75701804  0.50752115  0.37011425  1
  O  O209  1  0.75526558  0.50548775  0.86917733  1
  O  O210  1  0.24340516  0.49512532  0.13502512  1
  O  O211  1  0.24515235  0.49424655  0.62791395  1
  O  O212  1  0.24439819  0.99923965  0.13616803  1
  O  O213  1  0.24172551  1.00323499  0.63569250  1
  O  O214  1  0.74319989  0.49668667  0.12976621  1
  O  O215  1  0.74820123  0.49375816  0.63137278  1
  O  O216  1  0.74508726  0.99617818  0.13264632  1
  O  O217  1  0.74297241  0.99226733  0.63092877  1
  O  O218  1  0.01442024  0.37195126  0.24141325  1
  O  O219  1  0.00545587  0.37048482  0.75281410  1
  O  O220  1  0.00591272  0.87029312  0.25511917  1
  O  O221  1  0.01087382  0.87450370  0.75494190  1
  O  O222  1  0.49817093  0.37014246  0.25803707  1
  O  O223  1  0.50605975  0.37290054  0.75582256  1
  O  O224  1  0.50663768  0.86954394  0.25214873  1
  O  O225  1  0.50924312  0.87430246  0.76010703  1
  O  O226  1  0.48888147  0.13253939  0.25013679  1
  O  O227  1  0.48584009  0.12463741  0.75550767  1
  O  O228  1  0.49047543  0.63118930  0.24558520  1
  O  O229  1  0.49315144  0.62676268  0.74422924  1
  O  O230  1  1.00615819  0.12478058  0.23626812  1
  O  O231  1  0.98775156  0.12338665  0.74731721  1
  O  O232  1  0.99338999  0.63150321  0.24456971  1
  O  O233  1  0.99446138  0.62530345  0.74180981  1
  O  O234  1  0.37443914  0.25551155  0.00706495  1
  O  O235  1  0.36786900  0.25293923  0.50444642  1
  O  O236  1  0.36242174  0.75176480  0.00183513  1
  O  O237  1  0.36934606  0.75616332  0.50425920  1
  O  O238  1  0.87055071  0.25152584  0.00815833  1
  O  O239  1  0.86917217  0.25733930  0.50371784  1
  O  O240  1  0.87079239  0.75559053  0.00626873  1
  O  O241  1  0.87034765  0.75510870  0.50499690  1
  O  O242  1  0.13165965  0.24302662  0.49465662  1
  O  O243  1  0.12828987  0.24251268  0.98950747  1
  O  O244  1  0.13315299  0.74424395  0.49688805  1
  O  O245  1  0.13497260  0.74532758  0.99711026  1
  O  O246  1  0.63204481  0.25226757  0.49364991  1
  O  O247  1  0.62285476  0.24141520  0.99215049  1
  O  O248  1  0.63022574  0.74745229  0.49599148  1
  O  O249  1  0.63429443  0.74875783  0.99873382  1
  O  O250  1  0.49211215  0.25039469  0.13348153  1
  O  O251  1  0.48468193  0.25624108  0.62444647  1
  O  O252  1  0.49813071  0.74428752  0.13316707  1
  O  O253  1  0.48841275  0.74461982  0.62540452  1
  O  O254  1  1.00456220  0.23363558  0.12383537  1
  O  O255  1  0.99127724  0.24461106  0.62615325  1
  O  O256  1  0.99480195  0.74518086  0.13010965  1
  O  O257  1  0.99439912  0.74255440  0.62623494  1
  O  O258  1  0.01550633  0.24379076  0.37612995  1
  O  O259  1  0.01252675  0.24807032  0.87333654  1
  O  O260  1  0.00614790  0.75551916  0.36877563  1
  O  O261  1  0.00353134  0.75649292  0.87126303  1
  O  O262  1  0.50361748  0.25737576  0.37105357  1
  O  O263  1  0.51106102  0.25554986  0.87268769  1
  O  O264  1  0.50753952  0.75277947  0.36891389  1
  O  O265  1  0.50098974  0.76095952  0.87406171  1
  O  O266  1  0.24112599  0.13511800  0.50491069  1
  O  O267  1  0.24430983  0.12405474  0.99335484  1
  O  O268  1  0.23913245  0.63397806  0.50252478  1
  O  O269  1  0.24955886  0.62987752  0.99159146  1
  O  O270  1  0.74387979  0.13211003  0.49248313  1
  O  O271  1  0.73703779  0.12484228  0.99846014  1
  O  O272  1  0.74446602  0.63155044  0.49570080  1
  O  O273  1  0.75020554  0.63185664  0.99308827  1
  O  O274  1  0.25673733  0.37449333  0.00767746  1
  O  O275  1  0.25566237  0.36605027  0.50480911  1
  O  O276  1  0.25052228  0.86419275  -0.00124029  1
  O  O277  1  0.26153758  0.86513132  0.49929770  1
  O  O278  1  0.74787154  0.37568560  0.01093698  1
  O  O279  1  0.75821962  0.37019447  0.50512604  1
  O  O280  1  0.75653494  0.87116539  0.00652457  1
  O  O281  1  0.75667186  0.86947779  0.50480331  1
  O  O282  1  0.12972186  0.49327030  0.24762699  1
  O  O283  1  0.13296339  0.49889182  0.74051044  1
  O  O284  1  0.13356094  0.99628681  0.24831787  1
  O  O285  1  0.13259421  0.99409200  0.74291816  1
  O  O286  1  0.62992777  0.50170154  0.24430826  1
  O  O287  1  0.63201511  0.49278953  0.74813076  1
  O  O288  1  0.63252603  0.99639960  0.24602159  1
  O  O289  1  0.63093294  0.99117612  0.74289065  1
  O  O290  1  0.36882876  0.00707838  0.25615824  1
  O  O291  1  0.36926350  0.00441260  0.75262484  1
  O  O292  1  0.36616171  0.50727044  0.25440149  1
  O  O293  1  0.36712716  0.50647288  0.74954034  1
  O  O294  1  0.86028551  -0.00691577  0.25233569  1
  O  O295  1  0.87261339  0.00547872  0.75354725  1
  O  O296  1  0.86869715  0.50590246  0.25727666  1
  O  O297  1  0.86965169  0.50503315  0.75403050  1
  O  O298  1  0.12823596  0.36515465  0.36561942  1
  O  O299  1  0.12564333  0.36145279  0.87305299  1
  O  O300  1  0.11959472  0.86811111  0.36993501  1
  O  O301  1  0.11934630  0.87541292  0.86311974  1
  O  O302  1  0.61774045  0.36986698  0.37404414  1
  O  O303  1  0.61989385  0.36727430  0.87008133  1
  O  O304  1  0.62461046  0.87040595  0.37020020  1
  O  O305  1  0.61777753  0.87675198  0.86632517  1
  O  O306  1  0.37678675  0.13105750  0.13709269  1
  O  O307  1  0.36847760  0.13415675  0.63444982  1
  O  O308  1  0.37983660  0.62616454  0.13887930  1
  O  O309  1  0.37971692  0.63393883  0.62858749  1
  O  O310  1  0.89223243  0.12146405  0.11980038  1
  O  O311  1  0.87451857  0.12973474  0.63326976  1
  O  O312  1  0.87894593  0.63073120  0.13178060  1
  O  O313  1  0.88034487  0.62913987  0.62787789  1
  O  O314  1  0.25631588  0.25661350  0.12423433  1
  O  O315  1  0.25780466  0.25385751  0.61459429  1
  O  O316  1  0.25017571  0.75043528  0.11405123  1
  O  O317  1  0.26282781  0.74514255  0.61259315  1
  O  O318  1  0.74539191  0.26299902  0.12400344  1
  O  O319  1  0.75582383  0.25562999  0.61892026  1
  O  O320  1  0.75623025  0.75627323  0.12128266  1
  O  O321  1  0.75620581  0.75507041  0.61885014  1
  O  O322  1  0.24157096  0.25481103  0.38807427  1
  O  O323  1  0.24188487  0.24147469  0.87558468  1
  O  O324  1  0.24374182  0.75397504  0.38764716  1
  O  O325  1  0.24857493  0.74017387  0.88204608  1
  O  O326  1  0.74423470  0.24484612  0.37836700  1
  O  O327  1  0.73596851  0.24894204  0.87759789  1
  O  O328  1  0.74534185  0.74572793  0.38049568  1
  O  O329  1  0.75041223  0.74443608  0.88185276  1
  O  O330  1  0.00777073  0.11687214  0.00835805  1
  O  O331  1  0.01245874  0.11715383  0.50117400  1
  O  O332  1  0.00018800  0.61462763  0.00568936  1
  O  O333  1  0.01208734  0.62435338  0.50546876  1
  O  O334  1  0.51066021  0.11888636  0.00028235  1
  O  O335  1  0.50581467  0.11856675  0.49929202  1
  O  O336  1  0.49750931  0.61947753  0.00714495  1
  O  O337  1  0.50401070  0.62124275  0.50423365  1
  O  O338  1  0.49273331  0.38201240  0.49461421  1
  O  O339  1  0.49455020  0.38066440  0.99453977  1
  O  O340  1  0.48597051  0.88234854  0.49877380  1
  O  O341  1  0.50208359  0.88087073  0.99018114  1
  O  O342  1  0.98469358  0.37537821  0.50292547  1
  O  O343  1  0.99913978  0.38710778  1.00028834  1
  O  O344  1  0.99742381  0.87944959  0.49489889  1
  O  O345  1  0.99547231  0.87993646  0.99574415  1
  O  O346  1  0.49251337  0.49612650  0.38046501  1
  O  O347  1  0.49746721  0.49332554  0.88167847  1
  O  O348  1  0.48486708  0.99848159  0.37388549  1
  O  O349  1  0.49652298  0.99113455  0.87976731  1
  O  O350  1  0.98335636  0.50533445  0.37501774  1
  O  O351  1  0.99566455  0.50001164  0.88400798  1
  O  O352  1  0.99938693  0.99387146  0.38098760  1
  O  O353  1  0.99548358  0.99368238  0.88108607  1
  O  O354  1  0.00663768  0.00818072  0.12134397  1
  O  O355  1  0.01283031  0.00159624  0.61788687  1
  O  O356  1  0.00229536  0.50445503  0.11819757  1
  O  O357  1  0.00746511  0.50626138  0.61961829  1
  O  O358  1  0.50757117  0.00235402  0.11909674  1
  O  O359  1  0.51699741  -0.00535139  0.62888171  1
  O  O360  1  0.50358790  0.50592113  0.12101255  1
  O  O361  1  0.49970912  0.50697918  0.61695341  1
  O  O362  1  0.24149420  0.38452884  0.24421702  1
  O  O363  1  0.24829775  0.38055037  0.74203959  1
  O  O364  1  0.24392474  0.88537426  0.24954366  1
  O  O365  1  0.24259977  0.88656889  0.75717361  1
  O  O366  1  0.74534783  0.38492022  0.24050808  1
  O  O367  1  0.74476902  0.37979655  0.74439762  1
  O  O368  1  0.74350468  0.88319583  0.24548759  1
  O  O369  1  0.74362724  0.87897559  0.74553780  1
  O  O370  1  0.25871466  0.11477359  0.24646162  1
  O  O371  1  0.25952046  0.11303564  0.75496454  1
  O  O372  1  0.25653765  0.61412225  0.24453465  1
  O  O373  1  0.25460821  0.61992513  0.75568162  1
  O  O374  1  0.74415662  0.11551984  0.25862829  1
  O  O375  1  0.76270048  0.11800868  0.75272421  1
  O  O376  1  0.75541266  0.62235404  0.25562161  1
  O  O377  1  0.75596226  0.61957537  0.75389128  1
  O  O378  1  0.37579274  0.11771093  0.36410971  1
  O  O379  1  0.37063513  0.11988175  0.86666924  1
  O  O380  1  0.37915307  0.61907624  0.36231427  1
  O  O381  1  0.36386915  0.62330099  0.86774158  1
  O  O382  1  0.85988039  0.12521073  0.38183588  1
  O  O383  1  0.87530571  0.11837238  0.86713429  1
  O  O384  1  0.86863209  0.61918300  0.37091889  1
  O  O385  1  0.86969127  0.61884933  0.86734580  1
  O  O386  1  0.13071466  0.37916117  0.13280256  1
  O  O387  1  0.13209902  0.38038721  0.62192418  1
  O  O388  1  0.12545586  0.88264855  0.13320685  1
  O  O389  1  0.12197328  0.88608139  0.63351935  1
  O  O390  1  0.63117717  0.38413878  0.12727412  1
  O  O391  1  0.63161331  0.37590136  0.63117745  1
  O  O392  1  0.63156918  0.88187415  0.13103654  1
  O  O393  1  0.63066791  0.88133590  0.63391620  1
  O  O394  1  0.12799296  0.25665992  0.26003292  1
  O  O395  1  0.12622020  0.24524606  0.75893019  1
  O  O396  1  0.12033512  0.75424627  0.25454770  1
  O  O397  1  0.12804323  0.76259521  0.74698745  1
  O  O398  1  0.61549065  0.25258813  0.25767349  1
  O  O399  1  0.62392296  0.25370726  0.75800781  1
  O  O400  1  0.62039109  0.75671462  0.25612996  1
  O  O401  1  0.62442681  0.76324342  0.75075828  1
  O  O402  1  0.37599014  0.24393557  0.24847244  1
  O  O403  1  0.37415330  0.24084870  0.74072439  1
  O  O404  1  0.37763730  0.74230779  0.25259353  1
  O  O405  1  0.37382680  0.74539443  0.74026365  1
  O  O406  1  0.87799879  0.25503334  0.24153311  1
  O  O407  1  0.87365662  0.23984482  0.74501041  1
  O  O408  1  0.88034642  0.74653404  0.24519570  1
  O  O409  1  0.87606080  0.74266266  0.74161732  1
  O  O410  1  0.37800747  0.49611327  0.49507713  1
  O  O411  1  0.38082622  0.49234162  1.00019965  1
  O  O412  1  0.36881497  0.99400200  0.49361582  1
  O  O413  1  0.38204098  1.00086837  0.99295338  1
  O  O414  1  0.87470733  0.49247899  0.49171943  1
  O  O415  1  0.88439201  0.50009717  0.99342072  1
  O  O416  1  0.88261424  0.99352653  0.50030673  1
  O  O417  1  0.88062459  0.99337303  0.99481075  1
  O  O418  1  0.12071857  0.00351825  0.00499169  1
  O  O419  1  0.12596435  0.00391508  0.50444899  1
  O  O420  1  0.11562854  0.50059345  0.00631566  1
  O  O421  1  0.12597111  0.50739615  0.50178262  1
  O  O422  1  0.62132311  0.00754810  0.00472213  1
  O  O423  1  0.62713708  -0.00379543  0.51715137  1
  O  O424  1  0.61576911  0.50392214  0.00693863  1
  O  O425  1  0.61789930  0.50822817  0.50021182  1
  O  O426  1  0.36961640  0.36995945  0.12112222  1
  O  O427  1  0.36839590  0.36636236  0.61870385  1
  O  O428  1  0.37060778  0.87211124  0.12128387  1
  O  O429  1  0.38037563  0.86543205  0.61721667  1
  O  O430  1  0.85945595  0.37951820  0.12094000  1
  O  O431  1  0.86847918  0.37005730  0.61666392  1
  O  O432  1  0.87061130  0.87024453  0.11959448  1
  O  O433  1  0.87128291  0.86982542  0.61990127  1
  O  O434  1  0.12685865  0.13140296  0.38656321  1
  O  O435  1  0.13053704  0.12880588  0.87908940  1
  O  O436  1  0.11801709  0.63157682  0.38572658  1
  O  O437  1  0.13766763  0.62587052  0.87406014  1
  O  O438  1  0.63591944  0.13258147  0.37716680  1
  O  O439  1  0.62573120  0.13170497  0.88200257  1
  O  O440  1  0.63012567  0.63239859  0.38080984  1
  O  O441  1  0.63313855  0.62827826  0.87582914  1
