# generated using pymatgen
data_V93Zn93O256
_symmetry_space_group_name_H-M   'P 1'
_cell_length_a   17.05175442
_cell_length_b   17.05005698
_cell_length_c   17.05420841
_cell_angle_alpha   89.98256669
_cell_angle_beta   89.95907160
_cell_angle_gamma   90.01359343
_symmetry_Int_Tables_number   1
_chemical_formula_structural   V93Zn93O256
_chemical_formula_sum   'V93 Zn93 O256'
_cell_volume   4958.22609586
_cell_formula_units_Z   1
loop_
 _symmetry_equiv_pos_site_id
 _symmetry_equiv_pos_as_xyz
  1  'x, y, z'
loop_
 _atom_site_type_symbol
 _atom_site_label
 _atom_site_symmetry_multiplicity
 _atom_site_fract_x
 _atom_site_fract_y
 _atom_site_fract_z
 _atom_site_occupancy
  V  V0  1  0.49915557  0.24345052  0.74646406  1
  V  V1  1  0.87726352  0.74983635  0.12662973  1
  V  V2  1  0.62623336  0.62491755  0.00011454  1
  V  V3  1  0.37919410  0.74976048  0.62584381  1
  V  V4  1  -0.00012349  0.24998156  0.75006216  1
  V  V5  1  0.62260871  -0.00283084  0.12980273  1
  V  V6  1  -0.00504502  0.50091371  -0.00346846  1
  V  V7  1  0.87347358  0.24932856  0.12424740  1
  V  V8  1  0.12685241  0.75148656  0.87364649  1
  V  V9  1  0.12552395  0.62470876  0.00052641  1
  V  V10  1  0.24856113  0.25069230  -0.00175913  1
  V  V11  1  0.25179402  0.62562237  0.87481474  1
  V  V12  1  0.62637238  0.75316462  0.37003898  1
  V  V13  1  0.36648385  0.12559168  0.25256758  1
  V  V14  1  0.75095397  0.74947439  0.00125197  1
  V  V15  1  0.87651481  0.61927806  0.75531605  1
  V  V16  1  -0.00073993  0.12407989  0.62524692  1
  V  V17  1  0.12663454  0.50043441  0.62361674  1
  V  V18  1  0.25146528  0.12363271  0.87236174  1
  V  V19  1  0.25033711  0.37455858  0.62470418  1
  V  V20  1  0.12431351  0.12467956  0.49783583  1
  V  V21  1  0.74600113  -0.00212595  0.25235377  1
  V  V22  1  0.24966778  0.24477461  0.49604157  1
  V  V23  1  0.37681737  0.75132755  0.12541206  1
  V  V24  1  0.62264118  0.37178365  0.25264433  1
  V  V25  1  0.12346419  -0.00027281  0.12534586  1
  V  V26  1  0.62334878  0.12618455  0.00205464  1
  V  V27  1  0.74921246  0.25002936  0.00013554  1
  V  V28  1  0.00156349  0.49973416  0.50060288  1
  V  V29  1  0.50511219  0.01226872  0.50373164  1
  V  V30  1  0.75094153  0.37390569  0.62585049  1
  V  V31  1  0.87499934  0.24825670  0.62432315  1
  V  V32  1  0.74076058  0.12430369  0.37979198  1
  V  V33  1  0.25102739  0.74996834  0.49900421  1
  V  V34  1  0.37564964  0.50055787  0.87436888  1
  V  V35  1  0.37508361  0.37522859  0.49783941  1
  V  V36  1  0.00167522  0.74928657  0.75091984  1
  V  V37  1  0.12352327  0.12594948  -0.00014229  1
  V  V38  1  0.37841351  0.62568367  0.74882984  1
  V  V39  1  0.74516644  0.87412360  0.13070589  1
  V  V40  1  0.12585756  0.87498261  0.74942002  1
  V  V41  1  0.62688292  0.75309049  0.86826972  1
  V  V42  1  0.87456818  -0.00294723  0.87577684  1
  V  V43  1  0.75274592  0.62098833  0.87585359  1
  V  V44  1  0.62527423  0.50059428  0.12568768  1
  V  V45  1  0.37637441  0.62745165  0.24967458  1
  V  V46  1  0.50499432  0.87642170  0.36960224  1
  V  V47  1  -0.00199268  -0.00067040  0.50023213  1
  V  V48  1  -0.00269512  0.12469089  0.12439986  1
  V  V49  1  0.62415970  0.24922566  0.87631566  1
  V  V50  1  0.87501381  0.87496679  0.50202254  1
  V  V51  1  0.37635270  0.49978407  0.37431019  1
  V  V52  1  0.49747198  0.12519966  0.12522460  1
  V  V53  1  0.36984560  0.00448394  0.37602067  1
  V  V54  1  0.75074461  0.37401585  0.12467880  1
  V  V55  1  0.87483534  0.49951173  0.37494151  1
  V  V56  1  0.25059968  0.75088938  -0.00074669  1
  V  V57  1  0.25118489  0.49958218  0.74963328  1
  V  V58  1  0.37814594  0.24417395  0.62463399  1
  V  V59  1  0.75379252  0.49821750  0.75467218  1
  V  V60  1  0.87328737  -0.00086919  0.37737269  1
  V  V61  1  0.73784330  0.87302809  0.62827193  1
  V  V62  1  0.87504691  0.37434141  0.50009986  1
  V  V63  1  0.37443264  0.25008987  0.12508767  1
  V  V64  1  0.12627826  0.24465895  0.37421866  1
  V  V65  1  0.50011740  0.50101447  -0.00010228  1
  V  V66  1  0.75135896  0.49898053  0.25062175  1
  V  V67  1  0.62576770  0.37500367  0.75058512  1
  V  V68  1  0.87277715  0.12475784  0.25018111  1
  V  V69  1  0.12525437  -0.00071782  0.62540392  1
  V  V70  1  0.50010308  0.62704257  0.12539762  1
  V  V71  1  0.12431776  0.37469711  0.74973759  1
  V  V72  1  0.87754408  0.62496794  0.25065461  1
  V  V73  1  0.74250409  0.24563404  0.50045196  1
  V  V74  1  0.62575887  0.49965639  0.62465021  1
  V  V75  1  0.50483161  0.87407943  0.86920772  1
  V  V76  1  0.12695108  0.62513329  0.49899003  1
  V  V77  1  0.24957055  0.87819460  0.12824099  1
  V  V78  1  0.25139876  0.62734504  0.37426081  1
  V  V79  1  0.50002175  0.37543805  0.87497195  1
  V  V80  1  -0.00690481  0.37863377  0.87403106  1
  V  V81  1  0.62213393  0.01958546  0.62267398  1
  V  V82  1  0.37366952  0.37592319  -0.00002607  1
  V  V83  1  0.00005733  0.37402615  0.37485525  1
  V  V84  1  0.37751291  0.87646453  0.50016153  1
  V  V85  1  0.25130694  0.87639984  0.62530715  1
  V  V86  1  0.12468756  0.37714660  0.24874309  1
  V  V87  1  0.87524478  0.74967401  0.62571208  1
  V  V88  1  0.24795077  0.37625740  0.12388552  1
  V  V89  1  0.74143178  -0.00594167  0.75099084  1
  V  V90  1  0.87387869  0.12222679  0.75015323  1
  V  V91  1  0.37722132  0.87901563  -0.00233387  1
  V  V92  1  0.62599939  0.62391925  0.49911299  1
  Zn  Zn93  1  0.50158249  0.00048421  -0.00160626  1
  Zn  Zn94  1  -0.00309611  -0.00162014  -0.00090594  1
  Zn  Zn95  1  0.24975511  0.50289261  0.24665670  1
  Zn  Zn96  1  0.50522157  0.75526301  0.24734950  1
  Zn  Zn97  1  0.00078484  0.87465467  0.87756674  1
  Zn  Zn98  1  0.75058666  0.62657463  0.37599175  1
  Zn  Zn99  1  0.24529065  0.00408244  0.25774363  1
  Zn  Zn100  1  -0.00210710  0.24969100  0.24963247  1
  Zn  Zn101  1  0.00104113  0.62386678  0.62513356  1
  Zn  Zn102  1  0.00150319  0.87313235  0.37378672  1
  Zn  Zn103  1  0.00363195  0.62386044  0.12512043  1
  Zn  Zn104  1  0.87287703  0.37876882  -0.00300425  1
  Zn  Zn105  1  0.50203593  0.62222914  0.62602542  1
  Zn  Zn106  1  0.50719245  0.75208829  0.74606969  1
  Zn  Zn107  1  0.61974102  0.24698991  0.37937446  1
  Zn  Zn108  1  0.12322871  0.24935226  0.87388173  1
  Zn  Zn109  1  0.49746139  0.24997083  0.25298204  1
  Zn  Zn110  1  0.37678526  0.12173463  0.74670526  1
  Zn  Zn111  1  0.25276167  0.00082993  0.74979335  1
  Zn  Zn112  1  0.12497258  0.50203346  0.12387544  1
  Zn  Zn113  1  0.50104642  0.49794616  0.50134744  1
  Zn  Zn114  1  0.75055729  0.75002740  0.49896663  1
  Zn  Zn115  1  0.50028146  0.37315004  0.37539906  1
  Zn  Zn116  1  0.74854571  0.12309431  0.87611278  1
  Zn  Zn117  1  0.12105020  0.87413895  0.25280477  1
  Zn  Zn118  1  0.87653924  0.87487811  0.00088321  1
  Zn  Zn119  1  0.37920461  0.00097991  0.86977239  1
  Zn  Zn120  1  0.12362830  0.75339702  0.37282273  1
  Zn  Zn121  1  0.00345448  0.75253169  0.25265934  1
  Zn  Zn122  1  0.18591234  0.18941637  0.18531983  1
  Zn  Zn123  1  0.18751337  0.18777768  0.68593781  1
  Zn  Zn124  1  0.18785132  0.68975374  0.18828044  1
  Zn  Zn125  1  0.19021329  0.68706209  0.68613427  1
  Zn  Zn126  1  0.68662284  0.18617083  0.18884032  1
  Zn  Zn127  1  0.68997947  0.18804378  0.69206065  1
  Zn  Zn128  1  0.68978884  0.68584788  0.18943621  1
  Zn  Zn129  1  0.69126275  0.68367574  0.68681390  1
  Zn  Zn130  1  0.30989839  0.31317734  0.31111410  1
  Zn  Zn131  1  0.31255321  0.31118092  0.81230380  1
  Zn  Zn132  1  0.31584402  0.81412118  0.31328520  1
  Zn  Zn133  1  0.31438475  0.81407991  0.81074048  1
  Zn  Zn134  1  0.81033904  0.31052385  0.31290038  1
  Zn  Zn135  1  0.81269046  0.30956379  0.81341753  1
  Zn  Zn136  1  0.81195762  0.81291477  0.31379139  1
  Zn  Zn137  1  0.81266781  0.81140024  0.81169806  1
  Zn  Zn138  1  0.19006308  0.43672169  0.43533097  1
  Zn  Zn139  1  0.18278841  0.43763533  0.93561766  1
  Zn  Zn140  1  0.18650548  0.93497230  0.44011850  1
  Zn  Zn141  1  0.18747947  0.93968835  0.93781816  1
  Zn  Zn142  1  0.68964194  0.43670825  0.43717970  1
  Zn  Zn143  1  0.68792747  0.43712261  0.93762782  1
  Zn  Zn144  1  0.68668195  0.93647887  0.44343896  1
  Zn  Zn145  1  0.68848757  0.93605821  0.94279051  1
  Zn  Zn146  1  0.31073626  0.06331705  0.06112075  1
  Zn  Zn147  1  0.31266177  0.06188703  0.56014925  1
  Zn  Zn148  1  0.31145802  0.56242055  0.06352899  1
  Zn  Zn149  1  0.31346259  0.56330563  0.56111138  1
  Zn  Zn150  1  0.80910780  0.06281492  0.06174989  1
  Zn  Zn151  1  0.80897243  0.06068255  0.56402058  1
  Zn  Zn152  1  0.81373747  0.56253177  0.06365498  1
  Zn  Zn153  1  0.81145820  0.56250417  0.56434857  1
  Zn  Zn154  1  0.43694040  0.43902337  0.18777241  1
  Zn  Zn155  1  0.43903338  0.43445353  0.68582865  1
  Zn  Zn156  1  0.43598816  0.94062158  0.18937607  1
  Zn  Zn157  1  0.44091062  0.94085973  0.68769192  1
  Zn  Zn158  1  0.93992050  0.43788984  0.18378275  1
  Zn  Zn159  1  0.93885979  0.43718759  0.68594597  1
  Zn  Zn160  1  0.93563968  0.93640360  0.19026079  1
  Zn  Zn161  1  0.93661627  0.93540926  0.68986099  1
  Zn  Zn162  1  0.05857979  0.06060132  0.31054988  1
  Zn  Zn163  1  0.06293965  0.06134180  0.81264136  1
  Zn  Zn164  1  0.06271293  0.56362494  0.31496059  1
  Zn  Zn165  1  0.06307268  0.56227629  0.81399071  1
  Zn  Zn166  1  0.55598196  0.06262116  0.31096402  1
  Zn  Zn167  1  0.56354583  0.06033447  0.81454860  1
  Zn  Zn168  1  0.56189530  0.56390459  0.31237729  1
  Zn  Zn169  1  0.56472852  0.56475725  0.81094724  1
  Zn  Zn170  1  0.43746640  0.18931935  0.43444152  1
  Zn  Zn171  1  0.43689696  0.18775676  0.93725051  1
  Zn  Zn172  1  0.44172168  0.68727825  0.43774734  1
  Zn  Zn173  1  0.43926343  0.69014111  0.93744097  1
  Zn  Zn174  1  0.93506274  0.18637822  0.43640359  1
  Zn  Zn175  1  0.93651922  0.18691912  0.93685675  1
  Zn  Zn176  1  0.94057547  0.68728127  0.43738250  1
  Zn  Zn177  1  0.93946454  0.68795350  0.93786912  1
  Zn  Zn178  1  0.05982362  0.31202208  0.06108189  1
  Zn  Zn179  1  0.06266262  0.31288115  0.56257649  1
  Zn  Zn180  1  0.06041457  0.81390058  0.06033677  1
  Zn  Zn181  1  0.06222498  0.81192291  0.56125139  1
  Zn  Zn182  1  0.56109024  0.31240170  0.06520446  1
  Zn  Zn183  1  0.55983634  0.31492424  0.56340938  1
  Zn  Zn184  1  0.56346822  0.81253839  0.05868581  1
  Zn  Zn185  1  0.56044496  0.81290779  0.55368293  1
  O  O186  1  0.11941186  0.11815713  0.12054048  1
  O  O187  1  0.11866639  0.12008919  0.61841029  1
  O  O188  1  0.12469179  0.62493551  0.11530444  1
  O  O189  1  0.12652427  0.61742122  0.61824754  1
  O  O190  1  0.61802042  0.11828771  0.12146645  1
  O  O191  1  0.62836434  0.11837130  0.62473524  1
  O  O192  1  0.62096278  0.62012879  0.11999488  1
  O  O193  1  0.62651118  0.61891350  0.61679780  1
  O  O194  1  0.37238104  0.38443198  0.37867002  1
  O  O195  1  0.37991473  0.38118436  0.88005116  1
  O  O196  1  0.38397617  0.88368964  0.38087607  1
  O  O197  1  0.38275391  0.87325324  0.88452799  1
  O  O198  1  0.87990174  0.37900515  0.37985046  1
  O  O199  1  0.88866539  0.37046760  0.87524830  1
  O  O200  1  0.87170752  0.88271724  0.38498141  1
  O  O201  1  0.87496190  0.88502295  0.87527631  1
  O  O202  1  0.26636934  -0.00610895  0.37713715  1
  O  O203  1  0.25226800  0.01179225  0.87455867  1
  O  O204  1  0.26142434  0.50689977  0.37340217  1
  O  O205  1  0.25642202  0.50509204  0.86944608  1
  O  O206  1  0.75243700  0.00600609  0.37355451  1
  O  O207  1  0.75382015  -0.00138993  0.86635122  1
  O  O208  1  0.75864958  0.50019870  0.36801154  1
  O  O209  1  0.74413535  0.50771722  0.86747985  1
  O  O210  1  0.24604124  0.49184586  0.12584421  1
  O  O211  1  0.24711835  0.49410480  0.63002890  1
  O  O212  1  0.24071409  0.99274916  0.12339116  1
  O  O213  1  0.24291405  0.99403098  0.62331429  1
  O  O214  1  0.74456074  0.49437079  0.13006187  1
  O  O215  1  0.74586456  0.49217484  0.63261567  1
  O  O216  1  0.74255006  0.99306277  0.13113703  1
  O  O217  1  0.73978427  0.99243037  0.63069323  1
  O  O218  1  0.00869474  0.37294965  0.25559478  1
  O  O219  1  0.00390665  0.37083542  0.75544924  1
  O  O220  1  0.00127574  0.87256530  0.25426287  1
  O  O221  1  0.00799982  0.86686983  0.75118491  1
  O  O222  1  0.51126717  0.37527645  0.24923822  1
  O  O223  1  0.50616831  0.36700574  0.75630818  1
  O  O224  1  0.49538453  0.87615761  0.26517485  1
  O  O225  1  0.49431896  0.87054490  0.76574482  1
  O  O226  1  0.48664988  0.12653953  0.24211221  1
  O  O227  1  0.49895158  0.14093923  0.75752821  1
  O  O228  1  0.49395797  0.62720228  0.24168556  1
  O  O229  1  0.49368931  0.62962680  0.74697651  1
  O  O230  1  0.99060706  0.12678088  0.24284189  1
  O  O231  1  0.99467647  0.12984116  0.74380965  1
  O  O232  1  0.98703817  0.62318646  0.24760269  1
  O  O233  1  0.99245025  0.62923760  0.74847989  1
  O  O234  1  0.36895604  0.25750076  0.00494411  1
  O  O235  1  0.36722684  0.25390974  0.50468111  1
  O  O236  1  0.37049602  0.75916053  0.00498427  1
  O  O237  1  0.37241040  0.75473779  0.50817231  1
  O  O238  1  0.86678111  0.25067749  0.00645833  1
  O  O239  1  0.86690392  0.25506628  0.50547333  1
  O  O240  1  0.86813269  0.74657937  0.01101077  1
  O  O241  1  0.87481802  0.75301518  0.51224044  1
  O  O242  1  0.13073634  0.24610532  0.49349056  1
  O  O243  1  0.13112690  0.24331449  0.99919566  1
  O  O244  1  0.13426750  0.74291311  0.50164475  1
  O  O245  1  0.13138788  0.74525768  0.99380579  1
  O  O246  1  0.63963562  0.25746658  0.50128331  1
  O  O247  1  0.62871390  0.24642949  0.99616839  1
  O  O248  1  0.62672178  0.73988494  0.49078586  1
  O  O249  1  0.63236176  0.74294535  0.99302159  1
  O  O250  1  0.49090442  0.24401464  0.12678237  1
  O  O251  1  0.48998530  0.25787803  0.63506463  1
  O  O252  1  0.49585327  0.74549635  0.12539827  1
  O  O253  1  0.48899574  0.75143642  0.62465436  1
  O  O254  1  0.99183383  0.24289782  0.12633799  1
  O  O255  1  0.99408851  0.24454074  0.62906210  1
  O  O256  1  0.98636037  0.74767024  0.12547102  1
  O  O257  1  0.99017641  0.74799327  0.63123464  1
  O  O258  1  0.00884073  0.25604734  0.37534828  1
  O  O259  1  0.00149934  0.25765594  0.86771507  1
  O  O260  1  0.00324407  0.75352486  0.37286522  1
  O  O261  1  0.00913364  0.75039687  0.86816795  1
  O  O262  1  0.50426053  0.25448656  0.37083504  1
  O  O263  1  0.50391340  0.25731872  0.86820885  1
  O  O264  1  0.50757891  0.75960374  0.37501994  1
  O  O265  1  0.51092958  0.75621889  0.87584724  1
  O  O266  1  0.24206680  0.13822535  0.50458647  1
  O  O267  1  0.24434796  0.13116712  0.99268671  1
  O  O268  1  0.24649815  0.63057391  0.49416143  1
  O  O269  1  0.24702735  0.63120855  0.99375254  1
  O  O270  1  0.75603969  0.13431406  0.49143511  1
  O  O271  1  0.74070783  0.13286732  0.99976654  1
  O  O272  1  0.73939677  0.62654706  0.49879345  1
  O  O273  1  0.74549166  0.62869168  0.99591369  1
  O  O274  1  0.25413119  0.37110471  0.00278322  1
  O  O275  1  0.25406701  0.36496400  0.50517370  1
  O  O276  1  0.25830850  0.87128476  0.00708950  1
  O  O277  1  0.25846497  0.86981445  0.50682236  1
  O  O278  1  0.75098427  0.36937003  0.00629718  1
  O  O279  1  0.75683686  0.36689603  0.50582989  1
  O  O280  1  0.75388850  0.86785262  0.01281925  1
  O  O281  1  0.75782467  0.87291681  0.51288207  1
  O  O282  1  0.12618234  0.48744013  0.25094855  1
  O  O283  1  0.13216180  0.49547007  0.74427964  1
  O  O284  1  0.12828315  1.00080508  0.23768983  1
  O  O285  1  0.12661049  0.99333594  0.74193388  1
  O  O286  1  0.63049192  0.49372414  0.24461689  1
  O  O287  1  0.63233882  0.49401685  0.74517855  1
  O  O288  1  0.62907023  1.00598304  0.23667407  1
  O  O289  1  0.63459764  1.00473641  0.74099262  1
  O  O290  1  0.37222244  0.00833691  0.25871072  1
  O  O291  1  0.37176917  0.00525092  0.75120138  1
  O  O292  1  0.37328701  0.50719495  0.25766200  1
  O  O293  1  0.37072212  0.50408136  0.75465234  1
  O  O294  1  0.86543292  0.00560628  0.25687681  1
  O  O295  1  0.86544353  0.00315425  0.75618849  1
  O  O296  1  0.87166469  0.50587255  0.25380170  1
  O  O297  1  0.87054427  0.51175520  0.74231454  1
  O  O298  1  0.12057966  0.36683240  0.36817543  1
  O  O299  1  0.11496909  0.37212689  0.86658714  1
  O  O300  1  0.12285446  0.87417956  0.37192857  1
  O  O301  1  0.12700855  0.86861835  0.86817240  1
  O  O302  1  0.62547557  0.37518246  0.36298436  1
  O  O303  1  0.61911337  0.36936124  0.87006322  1
  O  O304  1  0.61637948  0.86530389  0.38417881  1
  O  O305  1  0.61735760  0.86374350  0.88512374  1
  O  O306  1  0.37802888  0.12959009  0.13030198  1
  O  O307  1  0.36855625  0.14134214  0.62511550  1
  O  O308  1  0.38032843  0.63154835  0.12805365  1
  O  O309  1  0.37601695  0.63442261  0.62880078  1
  O  O310  1  0.87690931  0.12864388  0.13060627  1
  O  O311  1  0.87971823  0.12817443  0.63014649  1
  O  O312  1  0.87385194  0.63374081  0.13428831  1
  O  O313  1  0.87460265  0.63445564  0.63453182  1
  O  O314  1  0.25498023  0.25639212  0.11756234  1
  O  O315  1  0.25612867  0.25630294  0.61656939  1
  O  O316  1  0.25666614  0.76042184  0.11802624  1
  O  O317  1  0.26112991  0.75520780  0.61964320  1
  O  O318  1  0.75334895  0.25459120  0.11959892  1
  O  O319  1  0.75573991  0.25369262  0.61942347  1
  O  O320  1  0.75510434  0.75606975  0.12235583  1
  O  O321  1  0.76078293  0.75668421  0.62783148  1
  O  O322  1  0.23845964  0.25649288  0.38588035  1
  O  O323  1  0.24756352  0.24223034  0.88020679  1
  O  O324  1  0.25377609  0.74444262  0.38302819  1
  O  O325  1  0.24729899  0.74493412  0.87982172  1
  O  O326  1  0.74849130  0.24157295  0.38426948  1
  O  O327  1  0.74172810  0.24801898  0.88068820  1
  O  O328  1  0.74105346  0.74878147  0.37862725  1
  O  O329  1  0.74461706  0.74449931  0.88079874  1
  O  O330  1  0.00541964  0.12267202  0.00654529  1
  O  O331  1  0.00381142  0.12008407  0.50651692  1
  O  O332  1  0.00727655  0.61715464  -0.00179640  1
  O  O333  1  0.00774312  0.61618200  0.50245174  1
  O  O334  1  0.50472714  0.12359327  0.00716027  1
  O  O335  1  0.49576744  0.11074389  0.49540704  1
  O  O336  1  0.50566645  0.62011883  0.00505684  1
  O  O337  1  0.51325417  0.62127042  0.50319158  1
  O  O338  1  0.49058511  0.37766989  0.49643424  1
  O  O339  1  0.49433732  0.38124887  0.99525527  1
  O  O340  1  0.49381109  0.88404711  0.48983133  1
  O  O341  1  0.49078212  0.87464281  0.99168567  1
  O  O342  1  0.99461908  0.37963088  0.49516714  1
  O  O343  1  0.99963041  0.38239322  0.99075227  1
  O  O344  1  0.99159557  0.88310713  0.50230866  1
  O  O345  1  0.99414643  0.87977241  0.99575876  1
  O  O346  1  0.48615346  0.49918710  0.37593351  1
  O  O347  1  0.49587459  0.49556913  0.87999787  1
  O  O348  1  0.49446358  0.99392092  0.38249031  1
  O  O349  1  0.50079697  0.98894709  0.87917038  1
  O  O350  1  0.99447276  0.49323442  0.38160269  1
  O  O351  1  1.00545185  0.48992783  0.88273816  1
  O  O352  1  0.99014119  1.00177029  0.38377320  1
  O  O353  1  0.98702110  0.99838534  0.87399375  1
  O  O354  1  0.00806359  0.00560550  0.12432514  1
  O  O355  1  0.00439457  0.00518784  0.62075152  1
  O  O356  1  0.00570671  0.50171729  0.11323640  1
  O  O357  1  0.00860076  0.49976907  0.61777560  1
  O  O358  1  0.50773548  0.00425654  0.12352853  1
  O  O359  1  0.51260183  -0.00647413  0.61670446  1
  O  O360  1  0.50489127  0.50657236  0.11852857  1
  O  O361  1  0.51009373  0.49985196  0.62334506  1
  O  O362  1  0.23959114  0.37605823  0.24343304  1
  O  O363  1  0.24540829  0.38025883  0.74499448  1
  O  O364  1  0.25368738  0.87888922  0.23519248  1
  O  O365  1  0.24366076  0.87592825  0.74238643  1
  O  O366  1  0.74229138  0.37943432  0.24446569  1
  O  O367  1  0.74572391  0.37745800  0.74569244  1
  O  O368  1  0.75332536  0.88132227  0.23839477  1
  O  O369  1  0.75532611  0.88583124  0.74107848  1
  O  O370  1  0.26212000  0.12366269  0.24312615  1
  O  O371  1  0.25019561  0.12604747  0.76052787  1
  O  O372  1  0.25880496  0.62456231  0.25591323  1
  O  O373  1  0.25743876  0.61898137  0.75535507  1
  O  O374  1  0.75408303  0.11868483  0.25876464  1
  O  O375  1  0.75600933  0.11267414  0.75132106  1
  O  O376  1  0.76148584  0.61691667  0.25104844  1
  O  O377  1  0.75885244  0.61824567  0.75551187  1
  O  O378  1  0.37968064  0.11531078  0.36479615  1
  O  O379  1  0.36377483  0.12457351  0.87455420  1
  O  O380  1  0.37199191  0.61899917  0.37103037  1
  O  O381  1  0.37132674  0.62028404  0.87052456  1
  O  O382  1  0.86432215  0.11925832  0.37043009  1
  O  O383  1  0.87164489  0.11515979  0.86824674  1
  O  O384  1  0.87389914  0.61828071  0.36685562  1
  O  O385  1  0.86895465  0.63288889  0.86226724  1
  O  O386  1  0.12887286  0.37210653  0.13509068  1
  O  O387  1  0.13071804  0.38058519  0.62956927  1
  O  O388  1  0.13468299  0.88357569  0.12213777  1
  O  O389  1  0.13138782  0.87962997  0.62868934  1
  O  O390  1  0.63009586  0.38114139  0.13232795  1
  O  O391  1  0.63236737  0.37901133  0.63158755  1
  O  O392  1  0.63402088  0.88395657  0.11853692  1
  O  O393  1  0.63739833  0.86781426  0.62227839  1
  O  O394  1  0.12456942  0.25792687  0.25871530  1
  O  O395  1  0.11683089  0.25726360  0.74760808  1
  O  O396  1  0.12259017  0.75432333  0.25243138  1
  O  O397  1  0.12208351  0.75394908  0.75360996  1
  O  O398  1  0.62408596  0.26184519  0.25002107  1
  O  O399  1  0.61838725  0.25562078  0.75459638  1
  O  O400  1  0.62380872  0.74240799  0.26493942  1
  O  O401  1  0.62780962  0.74322028  0.76480271  1
  O  O402  1  0.37295658  0.24288415  0.24381949  1
  O  O403  1  0.38280365  0.25173379  0.74117709  1
  O  O404  1  0.37853042  0.74513503  0.24244220  1
  O  O405  1  0.37519530  0.74451220  0.73941563  1
  O  O406  1  0.87384206  0.24293810  0.24324891  1
  O  O407  1  0.87909537  0.24285142  0.74325500  1
  O  O408  1  0.87194887  0.74030182  0.24208293  1
  O  O409  1  0.88030445  0.74219628  0.74285824  1
  O  O410  1  0.37416309  0.49411253  0.49084721  1
  O  O411  1  0.38061798  0.49572617  0.99394803  1
  O  O412  1  0.38304967  0.99668615  0.49475340  1
  O  O413  1  0.37612568  0.98788038  0.99850104  1
  O  O414  1  0.87980492  0.49394577  0.49629329  1
  O  O415  1  0.88929658  0.49947947  1.00421895  1
  O  O416  1  0.87865649  0.99498680  0.49781746  1
  O  O417  1  0.87137323  1.00003862  0.98746106  1
  O  O418  1  0.12380549  0.00669670  0.01081272  1
  O  O419  1  0.11879451  0.00604863  0.50548839  1
  O  O420  1  0.11631811  0.50750264  -0.00091505  1
  O  O421  1  0.12232983  0.50359362  0.50411902  1
  O  O422  1  0.62576315  0.00702542  0.01314103  1
  O  O423  1  0.61702270  -0.00373553  0.51146212  1
  O  O424  1  0.61950787  0.50525208  0.00588045  1
  O  O425  1  0.62675121  0.50660322  0.50540233  1
  O  O426  1  0.36900185  0.37113037  0.11904918  1
  O  O427  1  0.36875812  0.36663165  0.61845782  1
  O  O428  1  0.36959653  0.87282256  0.11685357  1
  O  O429  1  0.37197772  0.86776375  0.62029512  1
  O  O430  1  0.86769617  0.36774561  0.12432500  1
  O  O431  1  0.87020500  0.36826084  0.62026576  1
  O  O432  1  0.86436230  0.86521928  0.12535637  1
  O  O433  1  0.86799218  0.86595956  0.62254863  1
  O  O434  1  0.11718082  0.13744366  0.37979317  1
  O  O435  1  0.13292747  0.12592161  0.88118962  1
  O  O436  1  0.13436722  0.62466981  0.38222539  1
  O  O437  1  0.13370321  0.63117941  0.87915816  1
  O  O438  1  0.63808192  0.12511548  0.36834903  1
  O  O439  1  0.62518901  0.13181190  0.88343432  1
  O  O440  1  0.62629932  0.63104726  0.38312366  1
  O  O441  1  0.63141638  0.63250337  0.88167479  1
