# generated using pymatgen
data_V93Zn93O256
_symmetry_space_group_name_H-M   'P 1'
_cell_length_a   17.05440561
_cell_length_b   17.05946722
_cell_length_c   17.05959105
_cell_angle_alpha   89.93111359
_cell_angle_beta   89.95515179
_cell_angle_gamma   89.91512060
_symmetry_Int_Tables_number   1
_chemical_formula_structural   V93Zn93O256
_chemical_formula_sum   'V93 Zn93 O256'
_cell_volume   4963.29106337
_cell_formula_units_Z   1
loop_
 _symmetry_equiv_pos_site_id
 _symmetry_equiv_pos_as_xyz
  1  'x, y, z'
loop_
 _atom_site_type_symbol
 _atom_site_label
 _atom_site_symmetry_multiplicity
 _atom_site_fract_x
 _atom_site_fract_y
 _atom_site_fract_z
 _atom_site_occupancy
  V  V0  1  0.63231582  0.74722389  0.87310819  1
  V  V1  1  0.49948627  0.75057103  0.24796380  1
  V  V2  1  0.74994209  0.37472064  0.12429791  1
  V  V3  1  0.12372666  -0.00068902  0.62648926  1
  V  V4  1  0.00055240  0.62529272  0.12702365  1
  V  V5  1  0.87523687  0.37694805  0.00220449  1
  V  V6  1  0.87577388  0.87599635  0.00099249  1
  V  V7  1  0.62526850  0.00048535  0.62327815  1
  V  V8  1  0.00309320  0.37618394  0.87506730  1
  V  V9  1  0.63013977  0.12563329  -0.00522933  1
  V  V10  1  0.74958221  0.87424344  0.12291931  1
  V  V11  1  0.50072859  0.62677292  0.12371466  1
  V  V12  1  0.75062489  0.49976076  0.24946203  1
  V  V13  1  -0.00362448  -0.00039558  0.49952579  1
  V  V14  1  -0.01021287  0.12716129  0.63517905  1
  V  V15  1  0.62709020  0.37614565  0.74535892  1
  V  V16  1  0.24993949  -0.00033971  0.74966002  1
  V  V17  1  0.62305244  0.25065251  0.37190261  1
  V  V18  1  0.00049818  0.00216869  0.00532134  1
  V  V19  1  0.37370898  0.00138975  0.37380833  1
  V  V20  1  0.75518565  0.25450823  0.50321308  1
  V  V21  1  -0.00025014  0.62516761  0.62618458  1
  V  V22  1  0.74885436  0.50532592  0.74985616  1
  V  V23  1  0.12476259  -0.00125339  0.12581683  1
  V  V24  1  0.87165601  0.62735103  0.75336310  1
  V  V25  1  0.49442986  0.74762068  0.74291528  1
  V  V26  1  0.62432277  0.87552756  0.24746303  1
  V  V27  1  0.62444429  0.62554370  0.49898098  1
  V  V28  1  0.12524510  0.87417674  0.75049861  1
  V  V29  1  0.12407329  0.62335631  0.50112465  1
  V  V30  1  0.12442234  0.74872671  0.37568866  1
  V  V31  1  0.87648935  0.12439603  0.24499204  1
  V  V32  1  0.49933236  0.87615039  0.37312783  1
  V  V33  1  0.12446953  0.12513556  0.00302036  1
  V  V34  1  0.24794975  0.49755279  0.75148254  1
  V  V35  1  0.12270940  0.24826680  0.37720095  1
  V  V36  1  -0.00260568  0.37490383  0.37835588  1
  V  V37  1  0.75491779  0.00647715  0.75540414  1
  V  V38  1  0.00079478  0.87414987  0.37433876  1
  V  V39  1  0.62389807  0.00139981  0.12273480  1
  V  V40  1  0.25032765  -0.00248776  0.24960777  1
  V  V41  1  0.49296763  0.13381201  0.12334663  1
  V  V42  1  0.25150036  0.87038087  0.62531905  1
  V  V43  1  0.37624141  -0.00080927  0.87426266  1
  V  V44  1  0.50057558  0.37514563  0.37523298  1
  V  V45  1  0.00052403  0.50173886  0.00298566  1
  V  V46  1  0.24758100  0.37266384  0.62627709  1
  V  V47  1  0.50010097  0.25041798  0.74927380  1
  V  V48  1  0.37469603  0.87242906  0.00051126  1
  V  V49  1  0.87441811  0.49947439  0.37579292  1
  V  V50  1  0.87527539  0.75037386  0.12572527  1
  V  V51  1  0.62813664  0.49937204  0.62360927  1
  V  V52  1  0.63285727  0.62610611  -0.00594142  1
  V  V53  1  0.37450921  0.37476121  0.50341223  1
  V  V54  1  0.37486229  0.12547141  0.74937164  1
  V  V55  1  0.24938849  0.62235475  0.37492490  1
  V  V56  1  0.62363111  0.12504846  0.49618767  1
  V  V57  1  0.25240845  0.74759954  0.50441974  1
  V  V58  1  0.13110528  0.37328004  0.24695886  1
  V  V59  1  0.74887840  0.75098522  0.49992984  1
  V  V60  1  0.12260290  0.49902857  0.62646526  1
  V  V61  1  0.62887870  0.24862658  0.87208045  1
  V  V62  1  0.50109723  0.50019598  0.50102883  1
  V  V63  1  0.50054805  0.87523415  0.87451310  1
  V  V64  1  0.87559299  0.62515577  0.24973649  1
  V  V65  1  0.62519293  0.87543047  0.74887965  1
  V  V66  1  0.24771900  0.12273641  0.37735326  1
  V  V67  1  0.50155885  0.50096464  -0.00333672  1
  V  V68  1  0.24988271  0.12485759  0.87521149  1
  V  V69  1  0.12560974  0.74834589  0.87641400  1
  V  V70  1  0.49750920  0.12549599  0.62378166  1
  V  V71  1  0.37463828  0.50107157  0.37684213  1
  V  V72  1  0.74866070  0.12439372  0.37173338  1
  V  V73  1  0.75020445  0.87592727  0.62326911  1
  V  V74  1  0.75206545  0.24832763  -0.00422947  1
  V  V75  1  0.00006581  0.87593106  0.87657145  1
  V  V76  1  0.25696128  0.25493407  0.00534099  1
  V  V77  1  0.24979929  0.62520411  0.87684678  1
  V  V78  1  0.62603148  0.75009025  0.37365576  1
  V  V79  1  0.37473039  0.86958170  0.50453402  1
  V  V80  1  0.37517732  0.62560360  0.25085640  1
  V  V81  1  -0.00122538  0.75124166  0.75059762  1
  V  V82  1  0.13155612  0.49789920  0.12735076  1
  V  V83  1  0.86997603  0.50825256  0.87731875  1
  V  V84  1  0.62659165  0.50119100  0.12268934  1
  V  V85  1  0.87339892  0.75089686  0.62514354  1
  V  V86  1  0.62432648  0.37468175  0.24908881  1
  V  V87  1  0.74979533  0.00045485  0.24838199  1
  V  V88  1  0.87546855  0.25048558  0.12598555  1
  V  V89  1  0.37642689  0.49857588  0.87400369  1
  V  V90  1  0.12278921  0.12452782  0.50120849  1
  V  V91  1  -0.00076470  0.24546239  0.24521757  1
  V  V92  1  0.49911368  0.00049776  0.49817581  1
  Zn  Zn93  1  0.12660954  0.62602045  0.00416087  1
  Zn  Zn94  1  0.24934439  0.74927526  0.00329441  1
  Zn  Zn95  1  0.25605360  0.49303063  0.24693777  1
  Zn  Zn96  1  0.49124027  0.62921713  0.61936748  1
  Zn  Zn97  1  0.50013542  0.00137038  -0.00063781  1
  Zn  Zn98  1  0.49155664  0.25460627  0.24686624  1
  Zn  Zn99  1  -0.00326055  0.49986634  0.50325422  1
  Zn  Zn100  1  0.86433637  0.25600326  0.64172024  1
  Zn  Zn101  1  0.12451316  0.25046130  0.87558968  1
  Zn  Zn102  1  0.49922259  0.37368051  0.87513793  1
  Zn  Zn103  1  0.36909001  0.62953897  0.74225920  1
  Zn  Zn104  1  0.86529868  0.38335514  0.51345058  1
  Zn  Zn105  1  0.24812162  0.24688751  0.50441028  1
  Zn  Zn106  1  0.87337922  0.87427455  0.49805610  1
  Zn  Zn107  1  -0.00831511  0.24548289  0.76032853  1
  Zn  Zn108  1  0.87392418  -0.00152900  0.37279414  1
  Zn  Zn109  1  0.12592131  0.87112461  0.24802213  1
  Zn  Zn110  1  0.37149224  0.13121044  0.24709804  1
  Zn  Zn111  1  0.37926859  0.37484946  0.00749989  1
  Zn  Zn112  1  0.12132116  0.36893905  0.74971897  1
  Zn  Zn113  1  0.87662953  0.00628892  0.87559742  1
  Zn  Zn114  1  0.25166126  0.87070127  0.12541878  1
  Zn  Zn115  1  0.37265852  0.24959764  0.62586273  1
  Zn  Zn116  1  0.81298760  0.16867021  0.81560858  1
  Zn  Zn117  1  0.75061892  0.62641033  0.37428458  1
  Zn  Zn118  1  0.75369545  0.74855317  -0.00537865  1
  Zn  Zn119  1  0.00154841  0.75028484  0.25037718  1
  Zn  Zn120  1  0.37276074  0.74884846  0.12401360  1
  Zn  Zn121  1  0.32062203  0.30718350  0.16579118  1
  Zn  Zn122  1  0.18325865  0.18166568  0.18822337  1
  Zn  Zn123  1  0.17933494  0.18853150  0.69094906  1
  Zn  Zn124  1  0.18909693  0.68692879  0.18902878  1
  Zn  Zn125  1  0.18743363  0.68630048  0.68831870  1
  Zn  Zn126  1  0.68529238  0.18814415  0.18398996  1
  Zn  Zn127  1  0.68138128  0.18716040  0.68197729  1
  Zn  Zn128  1  0.68892386  0.68746659  0.18533434  1
  Zn  Zn129  1  0.68397672  0.68606976  0.68515094  1
  Zn  Zn130  1  0.31256982  0.30891726  0.32781176  1
  Zn  Zn131  1  0.31176056  0.31160001  0.81600347  1
  Zn  Zn132  1  0.31229654  0.81066118  0.31598825  1
  Zn  Zn133  1  0.31220444  0.81321363  0.81475536  1
  Zn  Zn134  1  0.81110896  0.31220637  0.31458731  1
  Zn  Zn135  1  0.81249065  0.32955695  0.81281592  1
  Zn  Zn136  1  0.81372518  0.81300755  0.31187535  1
  Zn  Zn137  1  0.81357494  0.82013116  0.81214874  1
  Zn  Zn138  1  0.18608338  0.43741789  0.43921072  1
  Zn  Zn139  1  0.18730382  0.43890572  0.94092149  1
  Zn  Zn140  1  0.18594848  0.93617072  0.43895944  1
  Zn  Zn141  1  0.18894554  0.93629746  0.93703091  1
  Zn  Zn142  1  0.68691721  0.43721967  0.43612228  1
  Zn  Zn143  1  0.68725740  0.43559095  0.93440339  1
  Zn  Zn144  1  0.68734246  0.93746282  0.43512643  1
  Zn  Zn145  1  0.68641487  0.93653613  0.93700220  1
  Zn  Zn146  1  0.31114915  0.06027316  0.06035269  1
  Zn  Zn147  1  0.31182265  0.05908470  0.56293322  1
  Zn  Zn148  1  0.31549829  0.56048370  0.06257835  1
  Zn  Zn149  1  0.31235631  0.56156265  0.56489401  1
  Zn  Zn150  1  0.81304196  0.06295448  0.06214406  1
  Zn  Zn151  1  0.81075409  0.06438460  0.56215074  1
  Zn  Zn152  1  0.81297783  0.56406614  0.06411859  1
  Zn  Zn153  1  0.81050191  0.56601394  0.56360091  1
  Zn  Zn154  1  0.44158569  0.44263240  0.18713491  1
  Zn  Zn155  1  0.43797707  0.43940315  0.68741623  1
  Zn  Zn156  1  0.43755306  0.94177581  0.18385697  1
  Zn  Zn157  1  0.43832501  0.93736751  0.68688969  1
  Zn  Zn158  1  0.94076982  0.43656705  0.18950885  1
  Zn  Zn159  1  0.93519659  0.43705500  0.68917915  1
  Zn  Zn160  1  0.93789935  0.93629005  0.18718140  1
  Zn  Zn161  1  0.93553410  0.93725341  0.68693090  1
  Zn  Zn162  1  0.06258937  0.06095376  0.31208444  1
  Zn  Zn163  1  0.06360811  0.06082415  0.81691661  1
  Zn  Zn164  1  0.06291817  0.56101814  0.31140146  1
  Zn  Zn165  1  0.06220161  0.56169493  0.81267257  1
  Zn  Zn166  1  0.56029852  0.06428130  0.30795488  1
  Zn  Zn167  1  0.56361942  0.06231820  0.81154568  1
  Zn  Zn168  1  0.56262238  0.56299714  0.31231141  1
  Zn  Zn169  1  0.56210586  0.56536248  0.81189863  1
  Zn  Zn170  1  0.43404025  0.18962324  0.43745003  1
  Zn  Zn171  1  0.43973528  0.18785332  0.93533147  1
  Zn  Zn172  1  0.43868978  0.68763208  0.43569005  1
  Zn  Zn173  1  0.44045998  0.68749629  0.93262891  1
  Zn  Zn174  1  0.93671053  0.18391268  0.43443601  1
  Zn  Zn175  1  0.94093726  0.18706170  0.94339247  1
  Zn  Zn176  1  0.93683429  0.68722766  0.43896059  1
  Zn  Zn177  1  0.94025115  0.68858443  0.94051941  1
  Zn  Zn178  1  0.06476476  0.31305940  0.06194289  1
  Zn  Zn179  1  0.05781938  0.31078118  0.56538185  1
  Zn  Zn180  1  0.06401626  0.81212224  0.06296198  1
  Zn  Zn181  1  0.06369677  0.81135252  0.56200385  1
  Zn  Zn182  1  0.56364140  0.31362855  0.05892323  1
  Zn  Zn183  1  0.56415801  0.31174606  0.56230418  1
  Zn  Zn184  1  0.56147513  0.81111684  0.05957554  1
  Zn  Zn185  1  0.56383057  0.81451404  0.56101277  1
  O  O186  1  0.12993440  0.11009437  0.11450955  1
  O  O187  1  0.11424596  0.11678912  0.62071961  1
  O  O188  1  0.11794244  0.61525447  0.12757233  1
  O  O189  1  0.11940957  0.61931433  0.62103771  1
  O  O190  1  0.61624645  0.12166711  0.11538485  1
  O  O191  1  0.61623257  0.11905659  0.61542423  1
  O  O192  1  0.62059123  0.62062578  0.11594353  1
  O  O193  1  0.61938893  0.61578696  0.61751245  1
  O  O194  1  0.38067149  0.38157265  0.38348627  1
  O  O195  1  0.37493121  0.38724697  0.88060549  1
  O  O196  1  0.38018149  0.88161280  0.38347551  1
  O  O197  1  0.38060866  0.88026629  0.88089605  1
  O  O198  1  0.88198183  0.38400555  0.37424221  1
  O  O199  1  0.88300571  0.38907465  0.88371094  1
  O  O200  1  0.88642620  0.87733225  0.37731502  1
  O  O201  1  0.88230502  0.88159905  0.88234448  1
  O  O202  1  0.25213692  0.00329766  0.36842247  1
  O  O203  1  0.25554275  0.00472221  0.86806643  1
  O  O204  1  0.25671152  0.50470811  0.37460198  1
  O  O205  1  0.25615273  0.50608224  0.87255388  1
  O  O206  1  0.75070215  0.00555328  0.36626832  1
  O  O207  1  0.74770786  -0.00492328  0.85737142  1
  O  O208  1  0.75944930  0.49971122  0.36870978  1
  O  O209  1  0.76202596  0.49621139  0.86719736  1
  O  O210  1  0.23532613  0.50591234  0.12702153  1
  O  O211  1  0.24256232  0.49017620  0.63103651  1
  O  O212  1  0.24389234  0.99785240  0.13423327  1
  O  O213  1  0.24313972  0.99212101  0.63089984  1
  O  O214  1  0.74575421  0.49374677  0.12948610  1
  O  O215  1  0.73741900  0.50438901  0.63270975  1
  O  O216  1  0.74367312  0.99418600  0.12981406  1
  O  O217  1  0.74393648  0.99632766  0.63089279  1
  O  O218  1  0.00680265  0.36599171  0.26026425  1
  O  O219  1  -0.00168701  0.37632513  0.76659562  1
  O  O220  1  0.00308984  0.87544716  0.26281915  1
  O  O221  1  0.00509657  0.87132153  0.75530514  1
  O  O222  1  0.50717032  0.37565129  0.25670878  1
  O  O223  1  0.51002484  0.36987029  0.75117634  1
  O  O224  1  0.50464685  0.87190719  0.25377931  1
  O  O225  1  0.50555032  0.86733212  0.75343890  1
  O  O226  1  0.49804225  0.12917759  0.23474549  1
  O  O227  1  0.49550892  0.12974468  0.74334124  1
  O  O228  1  0.49604050  0.63066254  0.24455134  1
  O  O229  1  0.50150963  0.64144877  0.74894278  1
  O  O230  1  0.99080680  0.13593638  0.25696790  1
  O  O231  1  0.99988507  0.11753604  0.73749986  1
  O  O232  1  0.99272794  0.62540995  0.24458796  1
  O  O233  1  0.99301155  0.63216249  0.74587382  1
  O  O234  1  0.36066178  0.24992352  -0.00427934  1
  O  O235  1  0.36990704  0.25863699  0.50443940  1
  O  O236  1  0.37623211  0.76055688  -0.00245552  1
  O  O237  1  0.36998893  0.76296809  0.49213669  1
  O  O238  1  0.87147774  0.25743626  0.00772584  1
  O  O239  1  0.85845863  0.24685952  0.49281048  1
  O  O240  1  0.87387288  0.75721935  0.00597929  1
  O  O241  1  0.86708955  0.75026352  0.50753903  1
  O  O242  1  0.12221614  0.24190749  0.49409874  1
  O  O243  1  0.13191138  0.23897304  1.00133055  1
  O  O244  1  0.13109391  0.74273785  0.49533391  1
  O  O245  1  0.12753990  0.74689364  0.99141091  1
  O  O246  1  0.63343514  0.24453714  0.49291666  1
  O  O247  1  0.63236927  0.24502661  0.99229947  1
  O  O248  1  0.62892114  0.74621745  0.49351081  1
  O  O249  1  0.62601595  0.74284526  0.98996303  1
  O  O250  1  0.50355070  0.23772929  0.12341246  1
  O  O251  1  0.49919491  0.24285435  0.63094268  1
  O  O252  1  0.49917714  0.74389312  0.13117116  1
  O  O253  1  0.50691883  0.75262182  0.63978862  1
  O  O254  1  0.99339203  0.25782059  0.13884506  1
  O  O255  1  1.00127619  0.23089717  0.62768091  1
  O  O256  1  0.99381038  0.74447433  0.12728595  1
  O  O257  1  0.99459187  0.74580513  0.63155640  1
  O  O258  1  0.00238511  0.25644167  0.36621371  1
  O  O259  1  0.00084383  0.26421122  0.88196146  1
  O  O260  1  0.00513603  0.75902992  0.37725488  1
  O  O261  1  0.00488082  0.75604514  0.86956310  1
  O  O262  1  0.50569789  0.25733357  0.37395248  1
  O  O263  1  0.50875941  0.25162698  0.86650444  1
  O  O264  1  0.50652030  0.75714411  0.36815324  1
  O  O265  1  0.51141392  0.75588373  0.86406132  1
  O  O266  1  0.24052258  0.12190336  0.49588756  1
  O  O267  1  0.24326210  0.13024986  0.99468763  1
  O  O268  1  0.24383264  0.62819917  0.49500619  1
  O  O269  1  0.24967902  0.62475978  0.98665444  1
  O  O270  1  0.74299323  0.13070267  0.49124760  1
  O  O271  1  0.73758338  0.13251478  1.00842043  1
  O  O272  1  0.74210177  0.63315931  0.49762970  1
  O  O273  1  0.73671871  0.62744780  1.00460163  1
  O  O274  1  0.24620166  0.35642242  -0.00231268  1
  O  O275  1  0.25415974  0.37473825  0.51136103  1
  O  O276  1  0.26288868  0.87311401  -0.00140501  1
  O  O277  1  0.25696534  0.86963003  0.50456600  1
  O  O278  1  0.75576721  0.36953391  0.00441436  1
  O  O279  1  0.74885403  0.35839120  0.49402504  1
  O  O280  1  0.75718001  0.87554588  0.00617651  1
  O  O281  1  0.75004247  0.86996375  0.50548589  1
  O  O282  1  0.12703811  0.48896483  0.24492238  1
  O  O283  1  0.13023404  0.49629753  0.74394881  1
  O  O284  1  0.13205621  0.99987391  0.24178769  1
  O  O285  1  0.13062069  0.99319472  0.74652904  1
  O  O286  1  0.63061616  0.49538235  0.24327787  1
  O  O287  1  0.62943643  0.49690064  0.74406989  1
  O  O288  1  0.63001899  0.99467589  0.24344072  1
  O  O289  1  0.63205531  0.99506158  0.74291169  1
  O  O290  1  0.36555990  0.00299031  0.25499654  1
  O  O291  1  0.36951261  0.00468446  0.75426386  1
  O  O292  1  0.37549385  0.50755237  0.25961232  1
  O  O293  1  0.36812343  0.49916518  0.76090129  1
  O  O294  1  0.86971695  0.00922551  0.24776690  1
  O  O295  1  0.85819075  -0.00297603  0.74905581  1
  O  O296  1  0.87043869  0.50369412  0.25720952  1
  O  O297  1  0.86698117  0.50625375  0.75750435  1
  O  O298  1  0.11713055  0.37000802  0.36682022  1
  O  O299  1  0.11265430  0.37796056  0.87722791  1
  O  O300  1  0.11535699  0.86832421  0.37689223  1
  O  O301  1  0.12040685  0.86942832  0.86923964  1
  O  O302  1  0.61936393  0.37132608  0.36855172  1
  O  O303  1  0.62424536  0.36911407  0.86204167  1
  O  O304  1  0.61864760  0.87072552  0.36737879  1
  O  O305  1  0.61939040  0.86776710  0.86933139  1
  O  O306  1  0.39039661  0.12059012  0.12117739  1
  O  O307  1  0.37983143  0.12432239  0.63119100  1
  O  O308  1  0.38354587  0.62430008  0.13190885  1
  O  O309  1  0.37913302  0.61977893  0.63067983  1
  O  O310  1  0.86915843  0.13309304  0.13807693  1
  O  O311  1  0.88763722  0.12758363  0.62123086  1
  O  O312  1  0.88044036  0.63009668  0.13042092  1
  O  O313  1  0.87932437  0.63157831  0.63290165  1
  O  O314  1  0.24691520  0.24022714  0.11088628  1
  O  O315  1  0.24790360  0.26076957  0.62595283  1
  O  O316  1  0.25459419  0.75249816  0.12168495  1
  O  O317  1  0.24317119  0.75789700  0.61752358  1
  O  O318  1  0.75539608  0.25723726  0.11831907  1
  O  O319  1  0.75001138  0.24085029  0.60672031  1
  O  O320  1  0.75664229  0.75755515  0.12236989  1
  O  O321  1  0.75314117  0.75585028  0.62048101  1
  O  O322  1  0.23927557  0.24067291  0.38131139  1
  O  O323  1  0.24643227  0.24243213  0.88657585  1
  O  O324  1  0.24404809  0.74276650  0.38328678  1
  O  O325  1  0.24450337  0.73975345  0.87316861  1
  O  O326  1  0.74256934  0.24366088  0.38101009  1
  O  O327  1  0.74616715  0.25245038  0.87832576  1
  O  O328  1  0.74340950  0.75043660  0.38063009  1
  O  O329  1  0.73661203  0.75763595  0.87339781  1
  O  O330  1  0.01340940  0.11326691  -0.00140254  1
  O  O331  1  0.00291586  0.11562061  0.50579149  1
  O  O332  1  0.00185706  0.61817265  0.00911526  1
  O  O333  1  0.00590268  0.62429625  0.50847998  1
  O  O334  1  0.50935987  0.12590961  0.00889376  1
  O  O335  1  0.50339513  0.11929950  0.50291312  1
  O  O336  1  0.51072070  0.62066922  0.00330529  1
  O  O337  1  0.50704833  0.61853527  0.49840312  1
  O  O338  1  0.49607308  0.38064024  0.49535193  1
  O  O339  1  0.50125342  0.38520775  0.99490195  1
  O  O340  1  0.49335705  0.88015058  0.49412706  1
  O  O341  1  0.49246480  0.87720031  0.99250487  1
  O  O342  1  1.00034059  0.37491752  0.48440998  1
  O  O343  1  0.99411592  0.38231450  0.99597420  1
  O  O344  1  0.99978410  0.88381009  0.49360309  1
  O  O345  1  0.99619129  0.88266773  0.99584545  1
  O  O346  1  0.49564118  0.49452489  0.38145956  1
  O  O347  1  0.49140810  0.50129167  0.87735570  1
  O  O348  1  0.49485877  0.99558189  0.37850241  1
  O  O349  1  0.49412828  0.99307255  0.87406920  1
  O  O350  1  0.99020387  0.49141579  0.37429741  1
  O  O351  1  0.99152748  0.49568528  0.88217702  1
  O  O352  1  1.00053474  0.99249480  0.38394741  1
  O  O353  1  1.00227246  0.99270952  0.88830211  1
  O  O354  1  0.01104754  -0.00733334  0.11497761  1
  O  O355  1  0.00242310  0.00671439  0.61808064  1
  O  O356  1  0.00715451  0.50497419  0.12238473  1
  O  O357  1  0.00452680  0.50819239  0.62581990  1
  O  O358  1  0.50738346  0.01234238  0.12220248  1
  O  O359  1  0.50542665  0.00503399  0.61814952  1
  O  O360  1  0.50983293  0.50824199  0.11729013  1
  O  O361  1  0.51221724  0.50039727  0.61894427  1
  O  O362  1  0.23825458  0.36965183  0.25294164  1
  O  O363  1  0.24744028  0.37873408  0.74202529  1
  O  O364  1  0.24863171  0.88741199  0.25251203  1
  O  O365  1  0.24502937  0.87950379  0.74559947  1
  O  O366  1  0.74476800  0.37998721  0.24405708  1
  O  O367  1  0.73851878  0.39184955  0.75071700  1
  O  O368  1  0.74412209  0.88056763  0.24353450  1
  O  O369  1  0.74385449  0.88505371  0.74187817  1
  O  O370  1  0.24892046  0.11335521  0.25701195  1
  O  O371  1  0.25390596  0.11911943  0.75437873  1
  O  O372  1  0.25781623  0.62199382  0.25884081  1
  O  O373  1  0.24848355  0.61762969  0.76076110  1
  O  O374  1  0.75573822  0.12070865  0.25232638  1
  O  O375  1  0.74263348  0.11111558  0.74485867  1
  O  O376  1  0.75688365  0.61738443  0.25051950  1
  O  O377  1  0.75426680  0.61385883  0.74652388  1
  O  O378  1  0.36675556  0.11794226  0.37460935  1
  O  O379  1  0.37065848  0.11872306  0.86865849  1
  O  O380  1  0.36987175  0.61975746  0.37148736  1
  O  O381  1  0.36685950  0.61719312  0.86952868  1
  O  O382  1  0.86815460  0.12279548  0.36083508  1
  O  O383  1  0.87364372  0.11686559  0.89064196  1
  O  O384  1  0.87497478  0.61447864  0.36976664  1
  O  O385  1  0.88170977  0.61499966  0.87062300  1
  O  O386  1  0.11710349  0.38377639  0.13795458  1
  O  O387  1  0.13084107  0.37997374  0.62543124  1
  O  O388  1  0.12979352  0.88602879  0.12615779  1
  O  O389  1  0.12955990  0.88004218  0.63128061  1
  O  O390  1  0.63089175  0.38150559  0.12847100  1
  O  O391  1  0.62107929  0.38503218  0.63513728  1
  O  O392  1  0.62860057  0.88024848  0.12836349  1
  O  O393  1  0.63049758  0.88197706  0.62863743  1
  O  O394  1  0.11688613  0.25349607  0.25417780  1
  O  O395  1  0.11297139  0.25160323  0.75859074  1
  O  O396  1  0.12252918  0.75184229  0.26025741  1
  O  O397  1  0.11802586  0.75533402  0.75579316  1
  O  O398  1  0.62368301  0.25786173  0.25470639  1
  O  O399  1  0.62254872  0.25810665  0.75131452  1
  O  O400  1  0.62006570  0.75605894  0.25337055  1
  O  O401  1  0.61866519  0.75529115  0.75568317  1
  O  O402  1  0.37276113  0.24901735  0.25050699  1
  O  O403  1  0.38118469  0.24297046  0.74991753  1
  O  O404  1  0.38271217  0.74375212  0.25140031  1
  O  O405  1  0.39195581  0.75249790  0.75621145  1
  O  O406  1  0.88044689  0.24433047  0.24656045  1
  O  O407  1  0.87262777  0.24878451  0.75667378  1
  O  O408  1  0.87691698  0.74316802  0.24388061  1
  O  O409  1  0.87892529  0.74735627  0.74618382  1
  O  O410  1  0.38140617  0.49396785  0.49539169  1
  O  O411  1  0.38310226  0.50358474  0.98792537  1
  O  O412  1  0.37957100  0.99092162  0.49334365  1
  O  O413  1  0.37670772  0.99096284  0.99172740  1
  O  O414  1  0.87428651  0.49996399  0.48997626  1
  O  O415  1  0.87856983  0.49748984  0.99472989  1
  O  O416  1  0.88562147  0.99921243  0.49734594  1
  O  O417  1  0.88668159  0.99390231  1.00645732  1
  O  O418  1  0.12129134  0.00410753  0.00679487  1
  O  O419  1  0.11459914  0.00336526  0.50611623  1
  O  O420  1  0.11885720  0.50061035  0.01188951  1
  O  O421  1  0.12104684  0.50624641  0.50749625  1
  O  O422  1  0.62452229  0.00945322  0.00338623  1
  O  O423  1  0.61851964  0.00506844  0.50253985  1
  O  O424  1  0.62275868  0.50746494  0.00159297  1
  O  O425  1  0.62232049  0.50361347  0.50615158  1
  O  O426  1  0.37016519  0.39222653  0.11890846  1
  O  O427  1  0.36411845  0.37562769  0.62155970  1
  O  O428  1  0.37591581  0.87446276  0.11275098  1
  O  O429  1  0.36882223  0.88252740  0.61167741  1
  O  O430  1  0.86968166  0.37154892  0.12139832  1
  O  O431  1  0.89453174  0.36239603  0.61845029  1
  O  O432  1  0.86989016  0.86953102  0.12095662  1
  O  O433  1  0.86877587  0.86771099  0.62248308  1
  O  O434  1  0.12748030  0.12846843  0.38095085  1
  O  O435  1  0.13173893  0.12262260  0.88748876  1
  O  O436  1  0.12866522  0.62805323  0.38101046  1
  O  O437  1  0.13350653  0.62879933  0.87644066  1
  O  O438  1  0.62816206  0.12993338  0.37722432  1
  O  O439  1  0.61922075  0.13123969  0.88670727  1
  O  O440  1  0.62710153  0.63191880  0.38009994  1
  O  O441  1  0.62087607  0.63469422  0.88347992  1
