# generated using pymatgen
data_V93Zn93O256
_symmetry_space_group_name_H-M   'P 1'
_cell_length_a   17.04647548
_cell_length_b   17.04271314
_cell_length_c   17.04660579
_cell_angle_alpha   89.96497438
_cell_angle_beta   89.99301250
_cell_angle_gamma   90.05663020
_symmetry_Int_Tables_number   1
_chemical_formula_structural   V93Zn93O256
_chemical_formula_sum   'V93 Zn93 O256'
_cell_volume   4952.34570789
_cell_formula_units_Z   1
loop_
 _symmetry_equiv_pos_site_id
 _symmetry_equiv_pos_as_xyz
  1  'x, y, z'
loop_
 _atom_site_type_symbol
 _atom_site_label
 _atom_site_symmetry_multiplicity
 _atom_site_fract_x
 _atom_site_fract_y
 _atom_site_fract_z
 _atom_site_occupancy
  V  V0  1  0.37653381  0.87440211  0.49958931  1
  V  V1  1  -0.00018849  0.49906369  -0.00008091  1
  V  V2  1  0.87524368  0.62672862  0.75086497  1
  V  V3  1  0.00072336  0.12685996  0.62163748  1
  V  V4  1  0.49929541  0.24932589  0.25195308  1
  V  V5  1  0.24350019  0.12351968  0.38103644  1
  V  V6  1  0.62387894  0.37690941  0.25187728  1
  V  V7  1  0.00004886  0.87604256  0.87256112  1
  V  V8  1  0.75073353  0.00074265  0.74985136  1
  V  V9  1  0.87510056  0.00131536  0.37430256  1
  V  V10  1  0.49980544  0.37375971  0.87621614  1
  V  V11  1  0.37611583  0.37376600  0.00067792  1
  V  V12  1  0.37557732  0.74911820  0.62378438  1
  V  V13  1  0.25003326  0.74987202  0.49858790  1
  V  V14  1  0.87311718  0.12676337  0.25021624  1
  V  V15  1  0.24998469  0.00014221  0.74933453  1
  V  V16  1  -0.00300498  0.63018445  0.12462144  1
  V  V17  1  0.12261506  -0.00812392  0.12819837  1
  V  V18  1  0.62986541  0.49784878  0.62571637  1
  V  V19  1  0.50075726  0.12542410  0.62601949  1
  V  V20  1  0.87727849  0.63238824  0.24722570  1
  V  V21  1  0.12568343  0.37404687  0.25030094  1
  V  V22  1  0.75375307  0.26731544  0.50296285  1
  V  V23  1  0.75267837  0.50483457  0.25314996  1
  V  V24  1  -0.00071845  0.12489997  0.12494068  1
  V  V25  1  0.75148646  0.87539503  0.62225505  1
  V  V26  1  0.12322899  0.62452543  0.49904122  1
  V  V27  1  0.49900826  0.12289105  0.12600500  1
  V  V28  1  0.37443509  0.75137791  0.12327704  1
  V  V29  1  0.75046220  0.62528766  0.87547725  1
  V  V30  1  0.63091939  0.62929115  0.50081742  1
  V  V31  1  0.25076739  0.62433084  0.87494277  1
  V  V32  1  0.12509207  0.49857790  0.12477104  1
  V  V33  1  0.74883462  0.24968730  0.00101688  1
  V  V34  1  -0.00091256  0.25129394  0.25024227  1
  V  V35  1  0.25061485  0.37181161  0.62501464  1
  V  V36  1  0.37278825  0.12356225  0.25130088  1
  V  V37  1  0.62540180  0.50127809  0.12624870  1
  V  V38  1  0.50085743  0.75060555  0.75037850  1
  V  V39  1  0.37432064  0.37346489  0.50058986  1
  V  V40  1  0.62554213  0.24927454  0.87578132  1
  V  V41  1  0.49988302  0.24883718  0.75018341  1
  V  V42  1  0.25166552  0.49853556  0.25093225  1
  V  V43  1  0.37553703  0.62336578  0.74996231  1
  V  V44  1  0.62609758  0.62586565  -0.00004503  1
  V  V45  1  0.00431923  0.00621165  0.49754349  1
  V  V46  1  0.24922325  0.12363300  0.87443378  1
  V  V47  1  0.00065196  0.75150964  0.74937684  1
  V  V48  1  -0.00018648  0.00052573  -0.00076378  1
  V  V49  1  0.12366705  0.24631526  0.38207447  1
  V  V50  1  0.87526076  0.50065965  0.87517799  1
  V  V51  1  0.63258501  0.75261845  0.37754479  1
  V  V52  1  0.50072750  0.62564122  0.12570540  1
  V  V53  1  -0.00497978  0.38053721  0.38126173  1
  V  V54  1  0.12415370  0.24873100  0.87598261  1
  V  V55  1  0.24927069  0.24745316  0.00038850  1
  V  V56  1  0.37383273  -0.00105343  0.37495978  1
  V  V57  1  0.87249531  0.26630172  0.62080589  1
  V  V58  1  0.49949822  0.87488389  0.87415417  1
  V  V59  1  0.75008659  0.12739070  0.37775187  1
  V  V60  1  0.75473163  0.75021134  0.00440684  1
  V  V61  1  0.24947778  0.87522785  0.62387003  1
  V  V62  1  0.87461852  0.00128519  0.87317971  1
  V  V63  1  0.12561338  0.37504730  0.75086618  1
  V  V64  1  0.12456479  0.75211579  0.36575573  1
  V  V65  1  0.74961609  0.37492507  0.12626212  1
  V  V66  1  0.87377078  0.25137041  0.12547182  1
  V  V67  1  0.37391122  -0.00129773  0.87397286  1
  V  V68  1  -0.00049869  0.37494911  0.87651646  1
  V  V69  1  0.50116436  0.62526030  0.62511635  1
  V  V70  1  -0.00249843  0.24984718  0.74947771  1
  V  V71  1  0.62602669  0.25123072  0.37779982  1
  V  V72  1  0.12608946  0.62442038  -0.00161226  1
  V  V73  1  0.49716451  0.37564357  0.37651856  1
  V  V74  1  0.62565850  0.87512789  0.74916789  1
  V  V75  1  0.63134352  0.37546695  0.74661691  1
  V  V76  1  0.50221243  0.00060610  0.49934334  1
  V  V77  1  0.50079294  0.49862181  0.00055726  1
  V  V78  1  0.37375970  0.24822036  0.12685956  1
  V  V79  1  0.12560266  0.50074672  0.62449723  1
  V  V80  1  0.74950110  0.12504607  0.87466082  1
  V  V81  1  0.00351105  0.87445992  0.36745707  1
  V  V82  1  0.87291070  0.87116048  0.49781621  1
  V  V83  1  0.87436319  0.87375606  -0.00019253  1
  V  V84  1  0.75246028  0.87493683  0.12537780  1
  V  V85  1  0.74775573  0.00069134  0.24961366  1
  V  V86  1  0.49948888  -0.00141109  0.00119912  1
  V  V87  1  0.37594998  0.62384397  0.25242829  1
  V  V88  1  0.12390638  0.87481990  0.74780074  1
  V  V89  1  0.24441195  -0.00896012  0.24934990  1
  V  V90  1  0.24967091  0.37263828  0.12548495  1
  V  V91  1  0.87436791  0.75004370  0.62218466  1
  V  V92  1  0.12452263  0.00323037  0.62095883  1
  Zn  Zn93  1  0.24982090  0.62319784  0.37467538  1
  Zn  Zn94  1  0.37413933  0.50121293  0.37829967  1
  Zn  Zn95  1  0.24867986  0.75176828  -0.00084233  1
  Zn  Zn96  1  0.62523899  0.75050548  0.87506265  1
  Zn  Zn97  1  0.37611984  0.49850895  0.87404566  1
  Zn  Zn98  1  0.62846183  0.12784544  0.50228822  1
  Zn  Zn99  1  0.00030153  0.75691646  0.24160449  1
  Zn  Zn100  1  0.62449971  0.12428449  0.00200714  1
  Zn  Zn101  1  0.87361706  0.37594571  0.00073626  1
  Zn  Zn102  1  0.75250150  0.49784104  0.74882072  1
  Zn  Zn103  1  0.24668769  0.24345552  0.50315636  1
  Zn  Zn104  1  0.87162197  0.50103461  0.38354838  1
  Zn  Zn105  1  0.25330159  0.49822782  0.75159774  1
  Zn  Zn106  1  0.62339912  -0.00009803  0.12736034  1
  Zn  Zn107  1  0.00012035  0.62557487  0.62509625  1
  Zn  Zn108  1  0.37376736  0.24820042  0.62667527  1
  Zn  Zn109  1  0.12661679  0.75054520  0.87393834  1
  Zn  Zn110  1  0.49961079  0.50112489  0.49981565  1
  Zn  Zn111  1  0.62267104  0.87459667  0.24854033  1
  Zn  Zn112  1  0.37481888  0.12547477  0.74979418  1
  Zn  Zn113  1  0.24468622  0.87029388  0.12394670  1
  Zn  Zn114  1  0.50141527  0.75290963  0.25168952  1
  Zn  Zn115  1  0.87308529  0.12716811  0.74690381  1
  Zn  Zn116  1  0.75954246  0.63113722  0.38327791  1
  Zn  Zn117  1  0.12456738  0.12342371  0.00110627  1
  Zn  Zn118  1  0.62771800  0.00157782  0.62366938  1
  Zn  Zn119  1  -0.00956603  0.49636052  0.50698233  1
  Zn  Zn120  1  0.37116698  0.87292032  -0.00016106  1
  Zn  Zn121  1  0.50017890  0.87298596  0.37286933  1
  Zn  Zn122  1  0.18453048  0.18272580  0.19105687  1
  Zn  Zn123  1  0.18413807  0.18656154  0.68891152  1
  Zn  Zn124  1  0.18975189  0.68327830  0.18496371  1
  Zn  Zn125  1  0.18915851  0.68745753  0.68845937  1
  Zn  Zn126  1  0.68461885  0.18702150  0.18790406  1
  Zn  Zn127  1  0.68926383  0.19026612  0.68480359  1
  Zn  Zn128  1  0.68825533  0.68997067  0.18886345  1
  Zn  Zn129  1  0.68927239  0.68822691  0.68740610  1
  Zn  Zn130  1  0.31078492  0.31031593  0.31511400  1
  Zn  Zn131  1  0.31410459  0.30973500  0.81263104  1
  Zn  Zn132  1  0.31367043  0.81025098  0.31283197  1
  Zn  Zn133  1  0.31298581  0.81183525  0.81172398  1
  Zn  Zn134  1  0.81119249  0.31403640  0.31399241  1
  Zn  Zn135  1  0.81453092  0.31074060  0.81242228  1
  Zn  Zn136  1  0.81278979  0.81294318  0.31074093  1
  Zn  Zn137  1  0.81175614  0.81196492  0.81289033  1
  Zn  Zn138  1  0.18695338  0.43626003  0.43744569  1
  Zn  Zn139  1  0.18877648  0.43788973  0.93777527  1
  Zn  Zn140  1  0.18674296  0.93537325  0.43687999  1
  Zn  Zn141  1  0.18660737  0.93593271  0.93967925  1
  Zn  Zn142  1  0.68382900  0.44366408  0.43719222  1
  Zn  Zn143  1  0.68787701  0.43715821  0.93697421  1
  Zn  Zn144  1  0.68837575  0.93903168  0.43765786  1
  Zn  Zn145  1  0.68531690  0.93784091  0.93659932  1
  Zn  Zn146  1  0.31119187  0.05996159  0.06256788  1
  Zn  Zn147  1  0.31570690  0.06091363  0.56299273  1
  Zn  Zn148  1  0.31326830  0.56193343  0.06220203  1
  Zn  Zn149  1  0.31142675  0.56134614  0.56234656  1
  Zn  Zn150  1  0.81191706  0.06187379  0.06156737  1
  Zn  Zn151  1  0.81633943  0.06622694  0.56043549  1
  Zn  Zn152  1  0.81361273  0.56227786  0.06309188  1
  Zn  Zn153  1  0.81209103  0.56067757  0.56389882  1
  Zn  Zn154  1  0.43753405  0.43748831  0.18742622  1
  Zn  Zn155  1  0.44125736  0.43803731  0.68798113  1
  Zn  Zn156  1  0.43645557  0.93476880  0.19005635  1
  Zn  Zn157  1  0.43710703  0.93787973  0.68698504  1
  Zn  Zn158  1  0.93696159  0.43966467  0.19014181  1
  Zn  Zn159  1  0.94037696  0.44057607  0.69139204  1
  Zn  Zn160  1  0.93290902  0.93954866  0.18504364  1
  Zn  Zn161  1  0.93739968  0.93975242  0.68647237  1
  Zn  Zn162  1  0.06237170  0.06313466  0.30979676  1
  Zn  Zn163  1  0.06239405  0.06393522  0.80964157  1
  Zn  Zn164  1  0.06411035  0.56421665  0.30986346  1
  Zn  Zn165  1  0.06294722  0.56278546  0.81110102  1
  Zn  Zn166  1  0.56390484  0.06334665  0.31378500  1
  Zn  Zn167  1  0.56457293  0.06147221  0.81237429  1
  Zn  Zn168  1  0.56184736  0.56458947  0.31666565  1
  Zn  Zn169  1  0.56312706  0.56125868  0.81338915  1
  Zn  Zn170  1  0.43457573  0.18697363  0.43916448  1
  Zn  Zn171  1  0.43645779  0.18458416  0.93755404  1
  Zn  Zn172  1  0.44401944  0.68856432  0.43677537  1
  Zn  Zn173  1  0.43768886  0.68649015  0.93699544  1
  Zn  Zn174  1  0.93415607  0.19222906  0.43881289  1
  Zn  Zn175  1  0.93464097  0.18690182  0.93858964  1
  Zn  Zn176  1  0.94032971  0.68622932  0.43460541  1
  Zn  Zn177  1  0.93844274  0.68847597  0.93689758  1
  Zn  Zn178  1  0.06236294  0.31168689  0.06173337  1
  Zn  Zn179  1  0.06139296  0.31227548  0.56300571  1
  Zn  Zn180  1  0.06285923  0.81095917  0.05618956  1
  Zn  Zn181  1  0.06130935  0.81425802  0.55804199  1
  Zn  Zn182  1  0.56322929  0.31068811  0.06443354  1
  Zn  Zn183  1  0.56355615  0.31232184  0.56277975  1
  Zn  Zn184  1  0.56417892  0.81257970  0.06299684  1
  Zn  Zn185  1  0.56414593  0.81205274  0.56141376  1
  O  O186  1  0.11622744  0.11517574  0.12450101  1
  O  O187  1  0.10973797  0.12019812  0.62749100  1
  O  O188  1  0.11834077  0.61668503  0.11908677  1
  O  O189  1  0.12704946  0.61702152  0.61764168  1
  O  O190  1  0.61470167  0.12201475  0.12364650  1
  O  O191  1  0.61337278  0.12284844  0.62341671  1
  O  O192  1  0.62062752  0.62057326  0.12021808  1
  O  O193  1  0.62060981  0.62172079  0.61983813  1
  O  O194  1  0.37808963  0.37401485  0.38438660  1
  O  O195  1  0.38164291  0.37435164  0.88307587  1
  O  O196  1  0.37519747  0.88124173  0.38284629  1
  O  O197  1  0.38186027  0.88085873  0.87485411  1
  O  O198  1  0.89259873  0.37656835  0.36787187  1
  O  O199  1  0.88211695  0.38163493  0.87579687  1
  O  O200  1  0.88072215  0.87948666  0.38167730  1
  O  O201  1  0.88018748  0.88193933  0.87910098  1
  O  O202  1  0.25111242  0.00483449  0.36876377  1
  O  O203  1  0.25342270  0.00391536  0.86897967  1
  O  O204  1  0.25214073  0.50110340  0.36633751  1
  O  O205  1  0.25288915  0.51038466  0.87306474  1
  O  O206  1  0.75678696  0.00604996  0.37019932  1
  O  O207  1  0.75484378  0.00475893  0.87023409  1
  O  O208  1  0.74803669  0.50566717  0.36228008  1
  O  O209  1  0.75704314  0.50762538  0.87513599  1
  O  O210  1  0.24488519  0.49218873  0.12972177  1
  O  O211  1  0.24090551  0.48952224  0.62639627  1
  O  O212  1  0.24052960  0.99969750  0.13310562  1
  O  O213  1  0.24475606  0.99529558  0.62791491  1
  O  O214  1  0.74471593  0.49560098  0.13341785  1
  O  O215  1  0.73388095  0.50628500  0.62998750  1
  O  O216  1  0.74805292  0.99319539  0.13017665  1
  O  O217  1  0.75296987  0.99066122  0.62925511  1
  O  O218  1  0.00716420  0.37033963  0.25693999  1
  O  O219  1  0.00676372  0.36926581  0.75709296  1
  O  O220  1  -0.01029669  0.87507969  0.26328455  1
  O  O221  1  0.00472334  0.87199512  0.75287812  1
  O  O222  1  0.50391158  0.36873344  0.25503680  1
  O  O223  1  0.50820959  0.36844049  0.75667434  1
  O  O224  1  0.50527223  0.87272769  0.25512419  1
  O  O225  1  0.50557007  0.87056072  0.75316030  1
  O  O226  1  0.49268129  0.12953706  0.24698601  1
  O  O227  1  0.50018503  0.12883960  0.74172975  1
  O  O228  1  0.49028133  0.62344899  0.24375291  1
  O  O229  1  0.49570401  0.63102173  0.74559081  1
  O  O230  1  0.99224350  0.13116709  0.24505771  1
  O  O231  1  0.99772528  0.13212059  0.74010034  1
  O  O232  1  0.99336211  0.62396014  0.24059772  1
  O  O233  1  0.99382625  0.63274834  0.74751308  1
  O  O234  1  0.36952214  0.25396932  0.00713103  1
  O  O235  1  0.36998932  0.26102218  0.50361791  1
  O  O236  1  0.37431817  0.74770602  0.01233004  1
  O  O237  1  0.37080442  0.75400013  0.50460712  1
  O  O238  1  0.86741420  0.25269788  0.00800334  1
  O  O239  1  0.86602936  0.24924790  0.50870024  1
  O  O240  1  0.86314194  0.75715481  -0.00642436  1
  O  O241  1  0.88390165  0.76113700  0.50814696  1
  O  O242  1  0.12619121  0.25363736  0.48603935  1
  O  O243  1  0.13146516  0.24767112  0.99402133  1
  O  O244  1  0.12974354  0.74291119  0.49344349  1
  O  O245  1  0.12726905  0.73945556  0.99420285  1
  O  O246  1  0.63482407  0.25005067  0.49535283  1
  O  O247  1  0.63076039  0.24862104  0.99410515  1
  O  O248  1  0.62117101  0.74257550  0.48886249  1
  O  O249  1  0.63534907  0.74382287  0.99770948  1
  O  O250  1  0.49350971  0.24432080  0.13249857  1
  O  O251  1  0.50011186  0.24027405  0.63049596  1
  O  O252  1  0.49289613  0.74288900  0.12669970  1
  O  O253  1  0.49482882  0.74552257  0.63014708  1
  O  O254  1  0.99465078  0.24590209  0.13083437  1
  O  O255  1  0.99391069  0.24451166  0.62734572  1
  O  O256  1  1.00785645  0.73517730  0.12507780  1
  O  O257  1  0.98969785  0.75273277  0.63006206  1
  O  O258  1  0.00544659  0.25810395  0.37048942  1
  O  O259  1  0.00350598  0.25446271  0.87052662  1
  O  O260  1  0.00804924  0.75919239  0.37264217  1
  O  O261  1  0.00073502  0.75827632  0.86701592  1
  O  O262  1  0.50451389  0.25467021  0.37078463  1
  O  O263  1  0.50573563  0.25356139  0.87097016  1
  O  O264  1  0.51339233  0.75291876  0.37287977  1
  O  O265  1  0.50095778  0.75640267  0.86816223  1
  O  O266  1  0.25508106  0.12294270  0.48522726  1
  O  O267  1  0.24879069  0.13033537  0.99326465  1
  O  O268  1  0.24045165  0.63088386  0.49881645  1
  O  O269  1  0.24488340  0.62344201  0.99106287  1
  O  O270  1  0.74943832  0.13066478  0.49199972  1
  O  O271  1  0.74781843  0.13097225  0.99341727  1
  O  O272  1  0.73493666  0.62268016  0.50075984  1
  O  O273  1  0.74702593  0.63267377  0.99760681  1
  O  O274  1  0.25524118  0.36788993  0.00625626  1
  O  O275  1  0.25618754  0.37329375  0.50946533  1
  O  O276  1  0.25351657  0.87054391  0.00417554  1
  O  O277  1  0.25623593  0.87056955  0.50545464  1
  O  O278  1  0.75013618  0.36873851  0.00849563  1
  O  O279  1  0.74689245  0.36599935  0.49370323  1
  O  O280  1  0.75367018  0.86946480  0.00468480  1
  O  O281  1  0.76394724  0.88339264  0.50848065  1
  O  O282  1  0.13187250  0.49481355  0.24345179  1
  O  O283  1  0.12727553  0.49384603  0.74039711  1
  O  O284  1  0.13257001  1.00430180  0.24075243  1
  O  O285  1  0.12994215  0.99419066  0.74110753  1
  O  O286  1  0.63277557  0.49809022  0.24572766  1
  O  O287  1  0.62529897  0.49225718  0.74390284  1
  O  O288  1  0.63377091  0.99717051  0.25060248  1
  O  O289  1  0.63245194  0.99218489  0.74654278  1
  O  O290  1  0.36519805  0.00490265  0.25542551  1
  O  O291  1  0.36713011  0.00017923  0.75553484  1
  O  O292  1  0.36973742  0.50844659  0.24884417  1
  O  O293  1  0.37427905  0.50746747  0.75182913  1
  O  O294  1  0.86822670  0.00758911  0.25572808  1
  O  O295  1  0.86865701  0.00135335  0.75598582  1
  O  O296  1  0.86557760  0.50769947  0.25320606  1
  O  O297  1  0.87366595  0.50779737  0.75603719  1
  O  O298  1  0.11817856  0.36605089  0.36859365  1
  O  O299  1  0.12022937  0.36924812  0.87067474  1
  O  O300  1  0.11404689  0.86493442  0.38112319  1
  O  O301  1  0.11771974  0.87485750  0.86602480  1
  O  O302  1  0.61760283  0.37099714  0.36995214  1
  O  O303  1  0.61865677  0.36933656  0.86850733  1
  O  O304  1  0.62721103  0.86152496  0.37794732  1
  O  O305  1  0.61777294  0.87394665  0.86666520  1
  O  O306  1  0.37849479  0.12943202  0.13167883  1
  O  O307  1  0.38695203  0.12620338  0.62689722  1
  O  O308  1  0.38010107  0.63051979  0.13308932  1
  O  O309  1  0.37982217  0.63004407  0.62905008  1
  O  O310  1  0.87926399  0.13106156  0.13091197  1
  O  O311  1  0.88857920  0.13118886  0.62587489  1
  O  O312  1  0.88779024  0.61705602  0.13262152  1
  O  O313  1  0.87546668  0.63675000  0.63061846  1
  O  O314  1  0.25385411  0.25264405  0.12195767  1
  O  O315  1  0.24777849  0.25953368  0.62340995  1
  O  O316  1  0.25972741  0.74946096  0.12373964  1
  O  O317  1  0.25567054  0.75559851  0.61869870  1
  O  O318  1  0.75342522  0.25523999  0.12196732  1
  O  O319  1  0.76056633  0.24667897  0.61533907  1
  O  O320  1  0.74603400  0.75961964  0.11347741  1
  O  O321  1  0.76371387  0.76317705  0.63033842  1
  O  O322  1  0.24009637  0.24026344  0.37413258  1
  O  O323  1  0.24414207  0.24426726  0.88027200  1
  O  O324  1  0.24093357  0.74949719  0.38096463  1
  O  O325  1  0.24971611  0.73635796  0.87492179  1
  O  O326  1  0.74631073  0.24726448  0.38257820  1
  O  O327  1  0.74538744  0.24507602  0.88095151  1
  O  O328  1  0.73758146  0.74803611  0.37247066  1
  O  O329  1  0.74797585  0.74454595  0.88486996  1
  O  O330  1  -0.00082834  0.11819413  0.00722377  1
  O  O331  1  -0.00708594  0.11409283  0.50536475  1
  O  O332  1  0.00481306  0.61897528  0.00557850  1
  O  O333  1  0.01421923  0.62503553  0.50338188  1
  O  O334  1  0.49887593  0.11527361  0.00687076  1
  O  O335  1  0.49958857  0.11682169  0.50770042  1
  O  O336  1  0.50611633  0.61878933  0.00567074  1
  O  O337  1  0.50983647  0.62365537  0.50814555  1
  O  O338  1  0.48989600  0.37425672  0.49596274  1
  O  O339  1  0.49568296  0.37820390  0.99702386  1
  O  O340  1  0.49479218  0.88569010  0.50110754  1
  O  O341  1  0.49809162  0.88316681  0.99423226  1
  O  O342  1  1.00652609  0.37666338  0.48394699  1
  O  O343  1  0.99876433  0.38128282  0.99415241  1
  O  O344  1  0.99104698  0.88448938  0.49041297  1
  O  O345  1  0.99387638  0.88045585  0.99299552  1
  O  O346  1  0.49637912  0.49085914  0.37767111  1
  O  O347  1  0.50002562  0.49221138  0.88358812  1
  O  O348  1  0.49343638  1.00110249  0.38525004  1
  O  O349  1  0.49422808  0.99549783  0.88168193  1
  O  O350  1  1.00487486  0.48543889  0.37318412  1
  O  O351  1  0.99568341  0.49496171  0.87998281  1
  O  O352  1  0.99636911  0.99478195  0.37946866  1
  O  O353  1  0.99538483  0.99563268  0.87861270  1
  O  O354  1  0.00427265  0.00453225  0.12066584  1
  O  O355  1  0.00304756  0.00715729  0.61653115  1
  O  O356  1  0.00654379  0.50621534  0.12015152  1
  O  O357  1  0.01440284  0.50133866  0.62483307  1
  O  O358  1  0.49772083  0.00407536  0.11679856  1
  O  O359  1  0.50030097  0.00733731  0.61635619  1
  O  O360  1  0.50672883  0.50445699  0.12042075  1
  O  O361  1  0.51155524  0.50813301  0.62504967  1
  O  O362  1  0.24563300  0.37779585  0.24421489  1
  O  O363  1  0.24471507  0.37429378  0.74124696  1
  O  O364  1  0.25353023  0.88826556  0.24891665  1
  O  O365  1  0.24419529  0.87974159  0.74266843  1
  O  O366  1  0.74409761  0.38487329  0.24707104  1
  O  O367  1  0.73459729  0.37608972  0.75767139  1
  O  O368  1  0.75176267  0.88130712  0.24036515  1
  O  O369  1  0.74691700  0.88070942  0.74174083  1
  O  O370  1  0.25398412  0.11543973  0.26003395  1
  O  O371  1  0.25022233  0.11773637  0.75517569  1
  O  O372  1  0.26059424  0.61710395  0.25022555  1
  O  O373  1  0.25608345  0.62318255  0.75773217  1
  O  O374  1  0.75483015  0.12204679  0.25675629  1
  O  O375  1  0.75017232  0.11872278  0.75567523  1
  O  O376  1  0.75968729  0.61704377  0.24516113  1
  O  O377  1  0.75783226  0.62612246  0.75791225  1
  O  O378  1  0.36559121  0.11909760  0.36982837  1
  O  O379  1  0.36721561  0.11703785  0.87262979  1
  O  O380  1  0.37443624  0.62496285  0.36425670  1
  O  O381  1  0.36758414  0.62282204  0.86916329  1
  O  O382  1  0.87050539  0.12133272  0.36907395  1
  O  O383  1  0.86773082  0.11882466  0.87200834  1
  O  O384  1  0.87560460  0.62273482  0.36345839  1
  O  O385  1  0.87108307  0.62006613  0.87016854  1
  O  O386  1  0.13033221  0.37842258  0.13028254  1
  O  O387  1  0.13164906  0.38098739  0.62897422  1
  O  O388  1  0.12123966  0.88803414  0.12163168  1
  O  O389  1  0.13016775  0.88150286  0.62727273  1
  O  O390  1  0.62922468  0.38052404  0.13308146  1
  O  O391  1  0.61687785  0.38511892  0.63597794  1
  O  O392  1  0.63889687  0.87804838  0.12538498  1
  O  O393  1  0.63758329  0.87471535  0.62782461  1
  O  O394  1  0.11840354  0.25423423  0.25794477  1
  O  O395  1  0.11762627  0.25616528  0.75619188  1
  O  O396  1  0.12394930  0.74121439  0.26277542  1
  O  O397  1  0.11870336  0.75746208  0.74853997  1
  O  O398  1  0.61915306  0.25730181  0.25669313  1
  O  O399  1  0.62015338  0.25770029  0.75457240  1
  O  O400  1  0.62411212  0.74914736  0.26397452  1
  O  O401  1  0.61863566  0.75709626  0.75034291  1
  O  O402  1  0.37934746  0.24382104  0.24619562  1
  O  O403  1  0.38457935  0.24679739  0.74777835  1
  O  O404  1  0.37529429  0.73909082  0.24243693  1
  O  O405  1  0.38077225  0.74430020  0.74234524  1
  O  O406  1  0.87860797  0.24589245  0.24474567  1
  O  O407  1  0.88005906  0.24917339  0.73980245  1
  O  O408  1  0.87752966  0.73670202  0.25195162  1
  O  O409  1  0.88122935  0.74757325  0.74202134  1
  O  O410  1  0.37625553  0.48748699  0.50015963  1
  O  O411  1  0.38310750  0.49131034  1.00126768  1
  O  O412  1  0.38331398  0.99417104  0.49498546  1
  O  O413  1  0.38462333  0.99772527  0.99450123  1
  O  O414  1  0.88000105  0.50852151  0.49550274  1
  O  O415  1  0.88190683  0.49846360  0.99336188  1
  O  O416  1  0.88473086  0.99167559  0.49385655  1
  O  O417  1  0.88042312  0.99442464  0.99273607  1
  O  O418  1  0.11713028  0.00239672  0.00901001  1
  O  O419  1  0.11138498  -0.00658834  0.50443765  1
  O  O420  1  0.11957659  0.50420278  0.00537377  1
  O  O421  1  0.12552357  0.50805849  0.50826710  1
  O  O422  1  0.61042946  0.00153595  0.00045275  1
  O  O423  1  0.61409436  0.00253941  0.50114349  1
  O  O424  1  0.62103569  0.50523634  0.00736065  1
  O  O425  1  0.62108321  0.50852904  0.50858147  1
  O  O426  1  0.36955465  0.36732421  0.12112340  1
  O  O427  1  0.36651511  0.37436997  0.61935769  1
  O  O428  1  0.37330390  0.86097080  0.12573694  1
  O  O429  1  0.36920801  0.86897396  0.61946085  1
  O  O430  1  0.86785869  0.36926307  0.12649846  1
  O  O431  1  0.88330726  0.36501498  0.62770642  1
  O  O432  1  0.86193125  0.88123682  0.11565029  1
  O  O433  1  0.87063319  0.87022227  0.61726106  1
  O  O434  1  0.13193715  0.13401573  0.36839891  1
  O  O435  1  0.13050085  0.13119887  0.87598844  1
  O  O436  1  0.12521257  0.63282955  0.38347718  1
  O  O437  1  0.13426752  0.62412947  0.87911532  1
  O  O438  1  0.63202602  0.13473356  0.37616769  1
  O  O439  1  0.63128067  0.13199769  0.87666180  1
  O  O440  1  0.62639965  0.63493442  0.38357202  1
  O  O441  1  0.63174408  0.62563294  0.88267137  1
