# generated using pymatgen
data_V93Zn93O256
_symmetry_space_group_name_H-M   'P 1'
_cell_length_a   17.03970186
_cell_length_b   17.03718724
_cell_length_c   17.04380010
_cell_angle_alpha   89.96513887
_cell_angle_beta   90.01501744
_cell_angle_gamma   89.96587771
_symmetry_Int_Tables_number   1
_chemical_formula_structural   V93Zn93O256
_chemical_formula_sum   'V93 Zn93 O256'
_cell_volume   4947.95963057
_cell_formula_units_Z   1
loop_
 _symmetry_equiv_pos_site_id
 _symmetry_equiv_pos_as_xyz
  1  'x, y, z'
loop_
 _atom_site_type_symbol
 _atom_site_label
 _atom_site_symmetry_multiplicity
 _atom_site_fract_x
 _atom_site_fract_y
 _atom_site_fract_z
 _atom_site_occupancy
  V  V0  1  0.25399329  0.11969866  0.87640064  1
  V  V1  1  0.87374193  0.75197136  0.12405985  1
  V  V2  1  0.74360103  0.87968288  0.12368734  1
  V  V3  1  0.74908574  0.75174181  0.49845323  1
  V  V4  1  0.74975735  0.37524647  0.12616564  1
  V  V5  1  0.87563672  0.11912743  0.25510975  1
  V  V6  1  0.75251850  -0.00175437  0.75222262  1
  V  V7  1  0.13317563  0.12483469  0.49592792  1
  V  V8  1  -0.00085005  0.62607184  0.62422674  1
  V  V9  1  0.37409182  0.87516763  0.49995719  1
  V  V10  1  0.62297502  0.87847259  0.24656760  1
  V  V11  1  0.75054541  0.24826949  0.00037144  1
  V  V12  1  0.00051082  0.37425606  0.87421236  1
  V  V13  1  0.87585123  0.25009452  0.12595180  1
  V  V14  1  0.49794953  0.75145757  0.24916014  1
  V  V15  1  0.74947863  0.87415062  0.62455376  1
  V  V16  1  -0.00355880  0.00158404  0.49519518  1
  V  V17  1  0.75369738  0.11848627  0.87678635  1
  V  V18  1  0.74537383  0.00051011  0.25109451  1
  V  V19  1  0.49632752  0.87817668  0.87144569  1
  V  V20  1  0.12406186  0.62605455  -0.00209002  1
  V  V21  1  0.24879584  0.00184338  0.25000141  1
  V  V22  1  0.37715754  0.62780049  0.75118846  1
  V  V23  1  0.62689710  0.24887533  0.37690949  1
  V  V24  1  0.25145156  0.25051321  0.00076715  1
  V  V25  1  0.37019429  0.00220504  0.37688683  1
  V  V26  1  0.12265444  0.75099173  0.87217982  1
  V  V27  1  0.00272496  0.24913296  0.75091887  1
  V  V28  1  0.12562745  0.12480218  0.00020514  1
  V  V29  1  -0.00228901  0.62726688  0.12325273  1
  V  V30  1  0.12601221  0.49940795  0.62471290  1
  V  V31  1  0.50109463  0.62687200  0.62868083  1
  V  V32  1  0.37752037  0.12079191  0.75296632  1
  V  V33  1  0.50190436  0.37547718  0.37657944  1
  V  V34  1  0.37207365  0.12547054  0.25634012  1
  V  V35  1  0.74944811  0.62535743  0.37334512  1
  V  V36  1  0.87473071  0.50016970  0.37411509  1
  V  V37  1  0.12485496  -0.00027977  0.12494422  1
  V  V38  1  0.87228775  0.88046826  -0.00497014  1
  V  V39  1  0.25173411  0.37114931  0.62558617  1
  V  V40  1  -0.00067234  0.75171307  0.24798307  1
  V  V41  1  0.75075612  0.49861896  0.75034561  1
  V  V42  1  0.62399744  0.62631095  -0.00093960  1
  V  V43  1  0.00078808  0.49987274  0.49961159  1
  V  V44  1  0.74820395  0.62513950  0.87459365  1
  V  V45  1  0.62646382  0.37587379  0.25078514  1
  V  V46  1  0.37392289  0.50283064  0.37368571  1
  V  V47  1  0.62502950  0.50049366  0.12580765  1
  V  V48  1  0.49899292  0.62645101  0.12468775  1
  V  V49  1  0.62602711  0.24691356  0.87766113  1
  V  V50  1  0.50084835  0.24761163  0.75020766  1
  V  V51  1  0.50113817  0.49951999  0.50225531  1
  V  V52  1  0.49930519  0.49945526  -0.00025424  1
  V  V53  1  0.12607096  -0.00118208  0.62401123  1
  V  V54  1  0.00170198  0.37444638  0.37476547  1
  V  V55  1  0.24894013  0.62555973  0.87378400  1
  V  V56  1  0.50429270  -0.00000879  0.00148266  1
  V  V57  1  0.49947067  0.37425191  0.87735451  1
  V  V58  1  0.25252715  -0.00211084  0.75197874  1
  V  V59  1  0.50682857  0.11968058  0.12584195  1
  V  V60  1  0.37192880  0.75181167  0.12351302  1
  V  V61  1  0.00188292  0.25005509  0.25088591  1
  V  V62  1  0.12530914  0.62563455  0.49842563  1
  V  V63  1  -0.00092027  0.50068790  -0.00109559  1
  V  V64  1  0.62592887  0.49937057  0.62601021  1
  V  V65  1  -0.00476353  0.87872397  0.37235242  1
  V  V66  1  0.87498214  0.74892077  0.62398651  1
  V  V67  1  0.87576999  0.37302717  0.50057802  1
  V  V68  1  -0.00500490  0.87942805  0.87174607  1
  V  V69  1  0.75264829  0.12229550  0.37815638  1
  V  V70  1  -0.00192673  0.00041697  -0.00310444  1
  V  V71  1  0.37522080  0.25087409  0.12515126  1
  V  V72  1  0.61871818  0.75009630  0.87049465  1
  V  V73  1  0.87366973  0.50125938  0.87483482  1
  V  V74  1  -0.00068265  0.12464294  0.12416407  1
  V  V75  1  0.25051802  0.49904914  0.75048702  1
  V  V76  1  0.50049713  0.24983779  0.25149897  1
  V  V77  1  0.12606570  0.49904458  0.12680403  1
  V  V78  1  0.87714837  0.11859074  0.75375434  1
  V  V79  1  0.37791492  0.75022897  0.62656464  1
  V  V80  1  0.49833765  0.87605856  0.37434763  1
  V  V81  1  0.62382954  0.75176974  0.37455332  1
  V  V82  1  0.87490986  0.87830998  0.49770728  1
  V  V83  1  0.87509532  0.37502044  0.00076156  1
  V  V84  1  0.13297797  0.24752509  0.37589924  1
  V  V85  1  0.37295749  0.88128353  -0.00414586  1
  V  V86  1  0.37573021  0.37407010  0.50192787  1
  V  V87  1  0.87535508  0.24986244  0.62614479  1
  V  V88  1  0.12400620  0.75054754  0.37391853  1
  V  V89  1  0.62307390  0.00123943  0.62380210  1
  V  V90  1  0.62196786  0.87230121  0.75008066  1
  V  V91  1  0.75094465  0.37449122  0.62542653  1
  V  V92  1  0.24934938  0.74965095  0.49847940  1
  Zn  Zn93  1  0.24664194  0.87503080  0.12204382  1
  Zn  Zn94  1  0.87344280  0.62500517  0.24740280  1
  Zn  Zn95  1  0.12840688  0.37519158  0.25124845  1
  Zn  Zn96  1  0.62354869  0.12530677  0.50122767  1
  Zn  Zn97  1  0.24977415  0.37730042  0.12598840  1
  Zn  Zn98  1  0.25051015  0.50058198  0.24926811  1
  Zn  Zn99  1  0.37404258  0.49997313  0.87711291  1
  Zn  Zn100  1  0.24910447  0.62526389  0.37193351  1
  Zn  Zn101  1  0.75132527  0.50057511  0.24941909  1
  Zn  Zn102  1  0.50015006  0.00199391  0.49967547  1
  Zn  Zn103  1  0.74753637  0.75221426  -0.00050465  1
  Zn  Zn104  1  0.37398541  0.37750881  0.00147199  1
  Zn  Zn105  1  -0.00011746  0.12479915  0.62363712  1
  Zn  Zn106  1  0.62943891  0.11951671  0.00581398  1
  Zn  Zn107  1  0.12490682  0.87512662  0.24749479  1
  Zn  Zn108  1  0.50003343  0.12439286  0.62263934  1
  Zn  Zn109  1  0.12327450  0.87466480  0.74825039  1
  Zn  Zn110  1  -0.00250816  0.75030464  0.74770483  1
  Zn  Zn111  1  0.12721291  0.37351646  0.75128912  1
  Zn  Zn112  1  0.12755769  0.25136170  0.87498498  1
  Zn  Zn113  1  0.37714268  0.24788726  0.62387440  1
  Zn  Zn114  1  0.62630901  0.37291611  0.75012617  1
  Zn  Zn115  1  0.25547475  0.24528670  0.49709739  1
  Zn  Zn116  1  0.62377119  0.62612780  0.50000716  1
  Zn  Zn117  1  0.87555473  0.62580622  0.74972596  1
  Zn  Zn118  1  0.37190873  0.62558760  0.24914732  1
  Zn  Zn119  1  0.24845720  0.75232799  -0.00059700  1
  Zn  Zn120  1  0.25000466  0.87283000  0.62653046  1
  Zn  Zn121  1  0.75053511  0.24794687  0.50187369  1
  Zn  Zn122  1  0.18754236  0.18593582  0.18818206  1
  Zn  Zn123  1  0.18738050  0.18418805  0.68548284  1
  Zn  Zn124  1  0.18787006  0.68477306  0.18946680  1
  Zn  Zn125  1  0.18831749  0.68658093  0.68645277  1
  Zn  Zn126  1  0.68836600  0.18915897  0.19016770  1
  Zn  Zn127  1  0.68878533  0.18689839  0.68991182  1
  Zn  Zn128  1  0.68613839  0.69128906  0.18704209  1
  Zn  Zn129  1  0.68821466  0.68713725  0.68940529  1
  Zn  Zn130  1  0.31157686  0.31904803  0.31070830  1
  Zn  Zn131  1  0.31538610  0.30981754  0.81285950  1
  Zn  Zn132  1  0.30994348  0.81524715  0.31125662  1
  Zn  Zn133  1  0.31182581  0.81136624  0.81233168  1
  Zn  Zn134  1  0.81369148  0.31048966  0.31292135  1
  Zn  Zn135  1  0.81391283  0.31050772  0.81281537  1
  Zn  Zn136  1  0.81332768  0.81283882  0.31076368  1
  Zn  Zn137  1  0.81002872  0.80892798  0.81111560  1
  Zn  Zn138  1  0.18900041  0.43543075  0.43893025  1
  Zn  Zn139  1  0.18641408  0.43693144  0.93709194  1
  Zn  Zn140  1  0.18708186  0.93495405  0.43611588  1
  Zn  Zn141  1  0.18483783  0.93670929  0.93680796  1
  Zn  Zn142  1  0.68865249  0.43791289  0.44015639  1
  Zn  Zn143  1  0.68608399  0.43653145  0.93814570  1
  Zn  Zn144  1  0.68750577  0.93930012  0.43535622  1
  Zn  Zn145  1  0.68319062  0.93810865  0.93762726  1
  Zn  Zn146  1  0.31600776  0.06234043  0.06542377  1
  Zn  Zn147  1  0.31443343  0.06214087  0.56655563  1
  Zn  Zn148  1  0.31156413  0.56495729  0.05920770  1
  Zn  Zn149  1  0.31158854  0.56177236  0.56097651  1
  Zn  Zn150  1  0.81320873  0.06040551  0.06583948  1
  Zn  Zn151  1  0.81337996  0.06243793  0.56611069  1
  Zn  Zn152  1  0.81031325  0.56345852  0.06070420  1
  Zn  Zn153  1  0.81231471  0.56249155  0.56022947  1
  Zn  Zn154  1  0.43954181  0.43739613  0.18878425  1
  Zn  Zn155  1  0.43713168  0.43820874  0.69042828  1
  Zn  Zn156  1  0.43533832  0.93737955  0.18560029  1
  Zn  Zn157  1  0.43769712  0.93689912  0.68835597  1
  Zn  Zn158  1  0.93894761  0.43851826  0.18973698  1
  Zn  Zn159  1  0.93769866  0.43758312  0.68795159  1
  Zn  Zn160  1  0.93449502  0.93819423  0.18501899  1
  Zn  Zn161  1  0.93853285  0.93641049  0.68398863  1
  Zn  Zn162  1  0.06441068  0.06485930  0.31385454  1
  Zn  Zn163  1  0.06646569  0.06291903  0.81384977  1
  Zn  Zn164  1  0.05996470  0.56552918  0.31065566  1
  Zn  Zn165  1  0.06146121  0.56258990  0.80920143  1
  Zn  Zn166  1  0.56249526  0.06241449  0.31370846  1
  Zn  Zn167  1  0.56537723  0.05864849  0.81596371  1
  Zn  Zn168  1  0.56136775  0.56433828  0.31110402  1
  Zn  Zn169  1  0.56309558  0.56017107  0.81119327  1
  Zn  Zn170  1  0.44052396  0.18712096  0.44075667  1
  Zn  Zn171  1  0.43722338  0.18463890  0.93798489  1
  Zn  Zn172  1  0.43790879  0.68713794  0.43985014  1
  Zn  Zn173  1  0.43733473  0.69057114  0.93821658  1
  Zn  Zn174  1  0.94118694  0.18816586  0.43774882  1
  Zn  Zn175  1  0.93691289  0.18790215  0.93640258  1
  Zn  Zn176  1  0.93658684  0.68917057  0.43668563  1
  Zn  Zn177  1  0.93496457  0.69105569  0.93721075  1
  Zn  Zn178  1  0.06344928  0.31295134  0.06227851  1
  Zn  Zn179  1  0.06397920  0.31150424  0.56291429  1
  Zn  Zn180  1  0.06125332  0.81427590  0.06002221  1
  Zn  Zn181  1  0.06209243  0.81344184  0.56064294  1
  Zn  Zn182  1  0.56385283  0.31017509  0.06302451  1
  Zn  Zn183  1  0.56552438  0.31148003  0.56298902  1
  Zn  Zn184  1  0.56065577  0.81216450  0.05929578  1
  Zn  Zn185  1  0.56115777  0.81392641  0.56061743  1
  O  O186  1  0.11827376  0.11991217  0.11950956  1
  O  O187  1  0.12216309  0.11472690  0.61643416  1
  O  O188  1  0.11788493  0.61901892  0.11749066  1
  O  O189  1  0.12003191  0.61955107  0.61800459  1
  O  O190  1  0.61068391  0.13218160  0.12588766  1
  O  O191  1  0.62671435  0.11224620  0.62693865  1
  O  O192  1  0.61915032  0.62172043  0.11973541  1
  O  O193  1  0.61548284  0.62079422  0.62577261  1
  O  O194  1  0.38280863  0.38259892  0.38095192  1
  O  O195  1  0.38827933  0.37444611  0.87783469  1
  O  O196  1  0.37903069  0.88325960  0.37928616  1
  O  O197  1  0.38513352  0.86408556  0.88466745  1
  O  O198  1  0.88115455  0.37892176  0.38033168  1
  O  O199  1  0.87977388  0.38014983  0.88183032  1
  O  O200  1  0.88743997  0.87062646  0.38065171  1
  O  O201  1  0.88287719  0.86799213  0.88353956  1
  O  O202  1  0.26110202  -0.00451181  0.36562286  1
  O  O203  1  0.24220146  0.01009219  0.86496044  1
  O  O204  1  0.26348379  0.49954784  0.37729092  1
  O  O205  1  0.25124195  0.50683670  0.86942292  1
  O  O206  1  0.74877220  0.01003782  0.36407562  1
  O  O207  1  0.74336751  0.01052667  0.86900776  1
  O  O208  1  0.75458073  0.50979983  0.37511775  1
  O  O209  1  0.75385534  0.50418517  0.87102948  1
  O  O210  1  0.23733962  0.50077229  0.12113979  1
  O  O211  1  0.24633613  0.49128310  0.62986359  1
  O  O212  1  0.24455757  1.00077407  0.13322231  1
  O  O213  1  0.24177272  0.99857485  0.63380507  1
  O  O214  1  0.74292272  0.49366881  0.12560669  1
  O  O215  1  0.74609319  0.49513736  0.62953924  1
  O  O216  1  0.75254215  0.98971406  0.13598177  1
  O  O217  1  0.74264966  0.99303734  0.63114899  1
  O  O218  1  0.00254897  0.36713839  0.25648233  1
  O  O219  1  -0.00013917  0.36426968  0.75515317  1
  O  O220  1  -0.00116754  0.87283832  0.25731201  1
  O  O221  1  0.00063769  0.87397016  0.75911467  1
  O  O222  1  0.50658587  0.36877595  0.25642739  1
  O  O223  1  0.50025623  0.36512520  0.75973378  1
  O  O224  1  0.50333357  0.87137037  0.25390745  1
  O  O225  1  0.50537834  0.88180324  0.76279173  1
  O  O226  1  0.49212968  0.12908873  0.24431057  1
  O  O227  1  0.49288307  0.13041413  0.75579095  1
  O  O228  1  0.49723012  0.63385619  0.24232159  1
  O  O229  1  0.48982514  0.61877080  0.73918759  1
  O  O230  1  0.99242645  0.12812359  0.24568334  1
  O  O231  1  0.99278528  0.13085485  0.75222668  1
  O  O232  1  0.99616254  0.63390859  0.24103233  1
  O  O233  1  0.99650599  0.62727655  0.73966457  1
  O  O234  1  0.36771530  0.24732627  0.00952130  1
  O  O235  1  0.37366077  0.25701848  0.50311275  1
  O  O236  1  0.37475987  0.75980655  0.00917031  1
  O  O237  1  0.36958155  0.75436650  0.50757402  1
  O  O238  1  0.87053008  0.25507348  0.00625004  1
  O  O239  1  0.87636968  0.25502641  0.50786989  1
  O  O240  1  0.87143721  0.76346397  0.00533222  1
  O  O241  1  0.86837325  0.75778954  0.50416394  1
  O  O242  1  0.12514129  0.24092387  0.49319254  1
  O  O243  1  0.13610714  0.24280205  1.00200234  1
  O  O244  1  0.12954035  0.74550849  0.49434908  1
  O  O245  1  0.12374632  0.74525533  0.98829605  1
  O  O246  1  0.62975948  0.24647589  0.49280134  1
  O  O247  1  0.63332648  0.24547129  0.99561594  1
  O  O248  1  0.63097001  0.75037808  0.49250885  1
  O  O249  1  0.62552448  0.74450176  0.98974657  1
  O  O250  1  0.49226509  0.24259650  0.13050416  1
  O  O251  1  0.50206168  0.24819099  0.63980460  1
  O  O252  1  0.49122931  0.74691350  0.12863750  1
  O  O253  1  0.48863215  0.73986470  0.61828641  1
  O  O254  1  0.99576084  0.24381471  0.12985050  1
  O  O255  1  0.99521537  0.24851457  0.63540876  1
  O  O256  1  0.99393208  0.74716983  0.12759888  1
  O  O257  1  0.99352692  0.74491475  0.62309072  1
  O  O258  1  0.00956706  0.25504421  0.37023349  1
  O  O259  1  0.00070157  0.25479999  0.86661531  1
  O  O260  1  0.00406186  0.75872297  0.36935240  1
  O  O261  1  0.00703528  0.75921557  0.87330757  1
  O  O262  1  0.50591134  0.25574656  0.36996344  1
  O  O263  1  0.50448388  0.25458004  0.87019145  1
  O  O264  1  0.50306235  0.75604731  0.36993481  1
  O  O265  1  0.51097912  0.76106895  0.88096682  1
  O  O266  1  0.23745265  0.12580193  0.50638517  1
  O  O267  1  0.24853418  0.12964937  0.99414105  1
  O  O268  1  0.24298504  0.63147999  0.49760263  1
  O  O269  1  0.24216659  0.62893659  0.99090846  1
  O  O270  1  0.75187654  0.12368833  0.48855004  1
  O  O271  1  0.75223468  0.12781868  0.99369070  1
  O  O272  1  0.74755140  0.63189666  0.48887562  1
  O  O273  1  0.74071165  0.62657345  0.99257146  1
  O  O274  1  0.25241765  0.36226230  0.00136695  1
  O  O275  1  0.25697148  0.37413262  0.51183769  1
  O  O276  1  0.25973679  0.87433198  -0.00096849  1
  O  O277  1  0.25675979  0.86836316  0.50221980  1
  O  O278  1  0.75549325  0.36862077  0.00593005  1
  O  O279  1  0.75867737  0.37294075  0.50676625  1
  O  O280  1  0.75522480  0.87857971  0.00684409  1
  O  O281  1  0.75525824  0.87157675  0.50363397  1
  O  O282  1  0.12188785  0.50103136  0.23665164  1
  O  O283  1  0.13251377  0.49831694  0.74241385  1
  O  O284  1  0.13441783  1.00392900  0.24502555  1
  O  O285  1  0.13393419  1.00199417  0.73991353  1
  O  O286  1  0.62551042  0.49371217  0.24345852  1
  O  O287  1  0.63224597  0.49643149  0.74363737  1
  O  O288  1  0.63550576  0.99399793  0.25347365  1
  O  O289  1  0.63177276  0.99292502  0.74274111  1
  O  O290  1  0.36844700  0.00671313  0.25601373  1
  O  O291  1  0.36359605  0.00861673  0.74427411  1
  O  O292  1  0.37803612  0.50082493  0.26226857  1
  O  O293  1  0.36940611  0.51166772  0.75251764  1
  O  O294  1  0.86522135  0.01250687  0.24470669  1
  O  O295  1  0.86992994  0.01118340  0.74219317  1
  O  O296  1  0.87231299  0.50364751  0.25782618  1
  O  O297  1  0.86895138  0.50099982  0.75754862  1
  O  O298  1  0.11811011  0.36669201  0.37591576  1
  O  O299  1  0.11736831  0.37106856  0.87166954  1
  O  O300  1  0.11246075  0.86958051  0.37278371  1
  O  O301  1  0.11480465  0.86644114  0.87445095  1
  O  O302  1  0.62101012  0.37038803  0.37098012  1
  O  O303  1  0.61501709  0.36707591  0.87468242  1
  O  O304  1  0.61878892  0.87108213  0.36794153  1
  O  O305  1  0.61733436  0.86829206  0.87077217  1
  O  O306  1  0.38357257  0.13384390  0.13492837  1
  O  O307  1  0.37778856  0.12754788  0.63896939  1
  O  O308  1  0.38078251  0.63617769  0.12306435  1
  O  O309  1  0.38110853  0.63015126  0.63104063  1
  O  O310  1  0.87969496  0.13062792  0.13381359  1
  O  O311  1  0.87699935  0.13099856  0.63679733  1
  O  O312  1  0.87930753  0.63344823  0.12222995  1
  O  O313  1  0.88099527  0.63143544  0.62205001  1
  O  O314  1  0.25898028  0.24635900  0.11694719  1
  O  O315  1  0.25148239  0.26096719  0.62571870  1
  O  O316  1  0.25952156  0.75189976  0.12285901  1
  O  O317  1  0.26055728  0.74987715  0.61841780  1
  O  O318  1  0.75607708  0.25465932  0.12064809  1
  O  O319  1  0.75722800  0.25549340  0.62586782  1
  O  O320  1  0.75491498  0.76210481  0.12373897  1
  O  O321  1  0.75315919  0.75499454  0.61811666  1
  O  O322  1  0.23686932  0.25805952  0.37706986  1
  O  O323  1  0.25129154  0.24038847  0.88465279  1
  O  O324  1  0.24275701  0.75092314  0.38043335  1
  O  O325  1  0.23835106  0.74476068  0.87460313  1
  O  O326  1  0.74517480  0.23910811  0.37496336  1
  O  O327  1  0.74676268  0.24055755  0.88061151  1
  O  O328  1  0.74495295  0.74479299  0.37838705  1
  O  O329  1  0.73786185  0.74487053  0.87742196  1
  O  O330  1  0.00399793  0.12079126  0.00387150  1
  O  O331  1  0.00915312  0.11579325  0.50049954  1
  O  O332  1  0.00405006  0.62038763  0.00315590  1
  O  O333  1  0.00518689  0.61940537  0.50406640  1
  O  O334  1  0.49850817  0.11665817  0.00791323  1
  O  O335  1  0.50459879  0.11951522  0.50492310  1
  O  O336  1  0.50492249  0.62001603  0.00458440  1
  O  O337  1  0.50048252  0.61878246  0.51277573  1
  O  O338  1  0.49586110  0.37965207  0.49628754  1
  O  O339  1  0.50026437  0.37875912  0.99237881  1
  O  O340  1  0.49180137  0.87804449  0.49234756  1
  O  O341  1  0.49316125  0.88218486  0.99428477  1
  O  O342  1  0.99547529  0.38041203  0.49538697  1
  O  O343  1  0.99410502  0.37962973  0.99465469  1
  O  O344  1  0.99576172  0.88276119  0.49145019  1
  O  O345  1  0.99072655  0.88020025  0.99166237  1
  O  O346  1  0.49485024  0.49533248  0.38164442  1
  O  O347  1  0.50057872  0.48986089  0.88024778  1
  O  O348  1  0.48729444  0.99415691  0.37332280  1
  O  O349  1  0.50278124  0.98818644  0.88522019  1
  O  O350  1  0.99529283  0.49522765  0.38054377  1
  O  O351  1  0.99447671  0.49511699  0.87964874  1
  O  O352  1  1.00692742  0.99177620  0.38482357  1
  O  O353  1  1.00789974  0.98778156  0.88074221  1
  O  O354  1  0.00411118  0.00627340  0.11864421  1
  O  O355  1  0.01081517  -0.00045537  0.61468990  1
  O  O356  1  0.00554447  0.50611399  0.11786472  1
  O  O357  1  0.00562423  0.50401171  0.61864172  1
  O  O358  1  0.49221782  0.01114144  0.11804434  1
  O  O359  1  0.51209512  -0.00043645  0.62586324  1
  O  O360  1  0.50538014  0.50536380  0.11989276  1
  O  O361  1  0.50484613  0.50682193  0.62207539  1
  O  O362  1  0.24565836  0.38244981  0.24337275  1
  O  O363  1  0.25192891  0.37916004  0.74270674  1
  O  O364  1  0.24800256  0.88955388  0.24558871  1
  O  O365  1  0.24831147  0.88626952  0.75005938  1
  O  O366  1  0.74435562  0.37504763  0.24385527  1
  O  O367  1  0.75020181  0.38000903  0.74422598  1
  O  O368  1  0.74581369  0.88269117  0.24414226  1
  O  O369  1  0.74412969  0.87955737  0.74441623  1
  O  O370  1  0.26270863  0.11558325  0.24440917  1
  O  O371  1  0.25683891  0.11933881  0.75711617  1
  O  O372  1  0.25453428  0.61866944  0.25450494  1
  O  O373  1  0.25821022  0.61899872  0.75347768  1
  O  O374  1  0.75625477  0.11910555  0.25557972  1
  O  O375  1  0.75873631  0.11997070  0.75840359  1
  O  O376  1  0.75013059  0.62578424  0.26178030  1
  O  O377  1  0.75133045  0.61668795  0.75702667  1
  O  O378  1  0.38148393  0.11711267  0.36431294  1
  O  O379  1  0.36447814  0.12725471  0.86595157  1
  O  O380  1  0.37619145  0.61388343  0.37561146  1
  O  O381  1  0.37035283  0.62863799  0.86537301  1
  O  O382  1  0.86719848  0.13294782  0.36376706  1
  O  O383  1  0.86494685  0.12926027  0.86565906  1
  O  O384  1  0.86506409  0.62062476  0.37458539  1
  O  O385  1  0.86715927  0.61917999  0.87573224  1
  O  O386  1  0.12419151  0.38712323  0.12513127  1
  O  O387  1  0.13527842  0.38034802  0.62633284  1
  O  O388  1  0.12542483  0.88396237  0.12588370  1
  O  O389  1  0.12730722  0.88625222  0.62538399  1
  O  O390  1  0.62985780  0.37963787  0.13054684  1
  O  O391  1  0.63265582  0.38117344  0.62750448  1
  O  O392  1  0.63580519  0.86771000  0.12993981  1
  O  O393  1  0.62945255  0.88014703  0.63003967  1
  O  O394  1  0.11973063  0.24734959  0.25865041  1
  O  O395  1  0.11338833  0.24739109  0.75077578  1
  O  O396  1  0.11723819  0.75260073  0.25471122  1
  O  O397  1  0.12313318  0.75138645  0.75992584  1
  O  O398  1  0.61950573  0.25606236  0.25674946  1
  O  O399  1  0.61601728  0.24885272  0.75840443  1
  O  O400  1  0.61750822  0.75818403  0.25539510  1
  O  O401  1  0.62867560  0.75657533  0.76119135  1
  O  O402  1  0.37915971  0.24339805  0.24586456  1
  O  O403  1  0.38549783  0.23949079  0.75045380  1
  O  O404  1  0.37959826  0.75312717  0.23915576  1
  O  O405  1  0.36817375  0.73881426  0.73866890  1
  O  O406  1  0.88127817  0.24087036  0.24455692  1
  O  O407  1  0.88439045  0.24073651  0.74668731  1
  O  O408  1  0.88129611  0.74990740  0.24124922  1
  O  O409  1  0.87528008  0.74688787  0.73955670  1
  O  O410  1  0.38175419  0.49427675  0.49373594  1
  O  O411  1  0.38301425  0.49764710  0.99758509  1
  O  O412  1  0.37309433  0.99548689  0.49156584  1
  O  O413  1  0.38376360  0.98868685  1.00443054  1
  O  O414  1  0.88148950  0.49354610  0.49410897  1
  O  O415  1  0.87970723  0.49413705  0.99493851  1
  O  O416  1  0.88916873  0.99541887  0.50839985  1
  O  O417  1  0.88111871  0.98785231  1.00513498  1
  O  O418  1  0.11911554  0.00636172  0.00533144  1
  O  O419  1  0.11997559  0.00572972  0.50482408  1
  O  O420  1  0.11821537  0.50561581  0.00616429  1
  O  O421  1  0.11995404  0.50500933  0.50492869  1
  O  O422  1  0.60987900  0.00101939  0.00104388  1
  O  O423  1  0.62536289  -0.00075537  0.51219573  1
  O  O424  1  0.61888546  0.50567859  0.00606024  1
  O  O425  1  0.61870116  0.50241753  0.50786779  1
  O  O426  1  0.37599318  0.36079433  0.12507383  1
  O  O427  1  0.36733694  0.37490403  0.62132184  1
  O  O428  1  0.37409906  0.86690681  0.11486390  1
  O  O429  1  0.37572635  0.86497764  0.62062018  1
  O  O430  1  0.87079239  0.36991193  0.12026953  1
  O  O431  1  0.87078906  0.36988896  0.61994478  1
  O  O432  1  0.86524621  0.87142558  0.11638581  1
  O  O433  1  0.86850214  0.86951976  0.61794878  1
  O  O434  1  0.12118677  0.13522458  0.38459676  1
  O  O435  1  0.13660476  0.12841363  0.88199174  1
  O  O436  1  0.12353160  0.63239761  0.38166847  1
  O  O437  1  0.12731872  0.63248742  0.87789303  1
  O  O438  1  0.63575463  0.13004797  0.37436157  1
  O  O439  1  0.63700412  0.12936200  0.87756058  1
  O  O440  1  0.63224045  0.63245504  0.37594562  1
  O  O441  1  0.62628358  0.63225545  0.87808855  1
