# generated using pymatgen
data_V93Zn93O256
_symmetry_space_group_name_H-M   'P 1'
_cell_length_a   17.05165173
_cell_length_b   17.04641867
_cell_length_c   17.04661176
_cell_angle_alpha   90.01793191
_cell_angle_beta   90.01561217
_cell_angle_gamma   90.04524569
_symmetry_Int_Tables_number   1
_chemical_formula_structural   V93Zn93O256
_chemical_formula_sum   'V93 Zn93 O256'
_cell_volume   4954.92975156
_cell_formula_units_Z   1
loop_
 _symmetry_equiv_pos_site_id
 _symmetry_equiv_pos_as_xyz
  1  'x, y, z'
loop_
 _atom_site_type_symbol
 _atom_site_label
 _atom_site_symmetry_multiplicity
 _atom_site_fract_x
 _atom_site_fract_y
 _atom_site_fract_z
 _atom_site_occupancy
  V  V0  1  0.37080110  0.50762921  0.37632975  1
  V  V1  1  0.62031068  0.12142821  0.49878529  1
  V  V2  1  0.74885582  0.24639209  -0.00141892  1
  V  V3  1  0.87679639  0.37630206  -0.00153915  1
  V  V4  1  0.00337226  0.00138781  0.49904322  1
  V  V5  1  0.25058810  0.87544076  0.62453461  1
  V  V6  1  0.75066526  0.87518088  0.62390429  1
  V  V7  1  0.75179897  0.62133469  0.87287114  1
  V  V8  1  0.12450195  0.00071050  0.12628587  1
  V  V9  1  0.37614700  0.24852681  0.12681442  1
  V  V10  1  0.25052817  0.00040925  0.74936645  1
  V  V11  1  0.74815836  0.37486527  0.62503227  1
  V  V12  1  0.62441837  0.74953322  0.87377372  1
  V  V13  1  0.24972455  0.37358190  0.12263997  1
  V  V14  1  0.75144310  -0.00094662  0.74871605  1
  V  V15  1  0.37603228  0.62536848  0.75098904  1
  V  V16  1  0.49929214  0.24965989  0.75063459  1
  V  V17  1  0.12931262  0.74243112  0.37485781  1
  V  V18  1  0.37913093  0.49968839  0.88296226  1
  V  V19  1  0.37519332  0.75010646  0.62455337  1
  V  V20  1  0.00096645  0.87532099  0.37462499  1
  V  V21  1  0.49746402  0.62222162  0.12268593  1
  V  V22  1  0.62450529  0.75131775  0.37389645  1
  V  V23  1  0.87532382  -0.00026115  0.87333805  1
  V  V24  1  0.00084322  0.74903532  0.25005481  1
  V  V25  1  0.62368797  0.37557414  0.25121501  1
  V  V26  1  0.87449764  0.49915763  0.37379634  1
  V  V27  1  0.75036061  0.24897450  0.50011264  1
  V  V28  1  0.74788323  0.37483527  0.12623518  1
  V  V29  1  0.12629579  0.00071171  0.62302367  1
  V  V30  1  0.87459671  0.37431605  0.49917300  1
  V  V31  1  0.12627654  0.24940388  0.87764794  1
  V  V32  1  0.75004746  0.74935389  -0.00146574  1
  V  V33  1  0.12852912  0.14032790  0.49792331  1
  V  V34  1  0.25150060  0.50064375  0.74970154  1
  V  V35  1  0.87629477  0.87601816  0.49844638  1
  V  V36  1  0.87668941  0.74922099  0.62274429  1
  V  V37  1  0.87565597  0.87438923  -0.00072986  1
  V  V38  1  0.50021301  0.88337618  0.37810648  1
  V  V39  1  -0.00110572  0.12395760  0.12797302  1
  V  V40  1  0.87592804  0.00448013  0.36787242  1
  V  V41  1  0.12575209  0.87460526  0.25073374  1
  V  V42  1  0.87486020  0.74872160  0.12442885  1
  V  V43  1  0.37457166  0.12459196  0.74995037  1
  V  V44  1  0.50015023  0.75072926  0.75046556  1
  V  V45  1  -0.00032728  0.25122089  0.75181122  1
  V  V46  1  0.75085457  0.62543366  0.37401237  1
  V  V47  1  0.24991077  0.37027499  0.62317292  1
  V  V48  1  0.62407127  0.24906901  0.87591491  1
  V  V49  1  0.00131237  0.87408437  0.87351040  1
  V  V50  1  -0.00251950  0.24617137  0.25094585  1
  V  V51  1  0.12535917  0.50038552  0.62527921  1
  V  V52  1  0.37202668  0.37060598  0.50071745  1
  V  V53  1  0.75392986  0.12443515  0.36833914  1
  V  V54  1  -0.00114637  0.62358202  0.12329612  1
  V  V55  1  0.62492605  0.62507259  0.49955046  1
  V  V56  1  0.50135584  0.00248363  0.00392720  1
  V  V57  1  0.12443977  0.36995157  0.25431681  1
  V  V58  1  0.87438173  0.62367449  0.24947458  1
  V  V59  1  0.25077477  0.87612659  0.12587056  1
  V  V60  1  0.75113893  0.74969713  0.49902898  1
  V  V61  1  0.87489798  0.12391322  0.74912257  1
  V  V62  1  0.50122482  0.62553313  0.62478674  1
  V  V63  1  0.00164331  0.37065769  0.37551111  1
  V  V64  1  0.49968380  0.12304237  0.62304897  1
  V  V65  1  0.24749562  0.14319398  0.37893192  1
  V  V66  1  0.62217208  0.62281803  0.00028823  1
  V  V67  1  0.62131096  -0.00055415  0.62201452  1
  V  V68  1  0.00117919  0.00012065  0.00058255  1
  V  V69  1  0.37408515  0.87555408  0.00130259  1
  V  V70  1  0.49977137  0.75103910  0.25046170  1
  V  V71  1  0.00258973  0.75016257  0.74895260  1
  V  V72  1  0.24890896  0.50590096  0.25531640  1
  V  V73  1  0.12370386  0.49995157  0.12533551  1
  V  V74  1  0.12496225  0.62573941  -0.00138697  1
  V  V75  1  0.74700549  0.87574147  0.12658153  1
  V  V76  1  0.37874174  0.88203924  0.49903713  1
  V  V77  1  0.87473207  0.24873265  0.62559298  1
  V  V78  1  0.37444627  0.75063699  0.12593286  1
  V  V79  1  0.25085966  0.74375895  0.49587290  1
  V  V80  1  0.49994188  0.87422254  0.87490418  1
  V  V81  1  0.50043823  0.37535301  0.37597455  1
  V  V82  1  0.25040485  0.62526011  0.87598771  1
  V  V83  1  0.62483460  0.25064017  0.37497126  1
  V  V84  1  0.00143088  0.62383325  0.62206724  1
  V  V85  1  0.61935284  0.49933574  0.12138043  1
  V  V86  1  0.87388826  0.24455407  0.12894824  1
  V  V87  1  0.37329986  0.25022464  0.62461626  1
  V  V88  1  0.62528630  0.37478036  0.74824864  1
  V  V89  1  0.37487053  0.00061733  0.87437771  1
  V  V90  1  0.49923605  0.37847934  0.88133680  1
  V  V91  1  0.50000112  0.50134372  0.50093834  1
  V  V92  1  0.25230806  0.00051206  0.25739416  1
  Zn  Zn93  1  0.12569017  0.37437148  0.75232434  1
  Zn  Zn94  1  0.87420643  0.62079302  0.74850826  1
  Zn  Zn95  1  0.13074428  0.62042511  0.49439223  1
  Zn  Zn96  1  0.12655623  0.87673760  0.75038475  1
  Zn  Zn97  1  0.74719691  0.12216666  0.87403151  1
  Zn  Zn98  1  0.24988872  0.12488086  0.87785042  1
  Zn  Zn99  1  0.12796373  0.75112272  0.87361769  1
  Zn  Zn100  1  0.49932274  0.24789507  0.25134136  1
  Zn  Zn101  1  0.62626137  0.00426505  0.12745085  1
  Zn  Zn102  1  0.37707465  0.12687113  0.25396810  1
  Zn  Zn103  1  0.00212084  0.12553435  0.62218407  1
  Zn  Zn104  1  0.00158226  0.49907214  0.49857857  1
  Zn  Zn105  1  0.62486188  0.87857350  0.25067301  1
  Zn  Zn106  1  0.75050235  0.49930700  0.74774665  1
  Zn  Zn107  1  -0.00184045  0.49987658  -0.00302303  1
  Zn  Zn108  1  0.75144997  0.00311546  0.24630926  1
  Zn  Zn109  1  0.37087279  0.62737899  0.25306376  1
  Zn  Zn110  1  0.24970003  0.75196642  -0.00092851  1
  Zn  Zn111  1  0.37806662  0.37639888  0.00297398  1
  Zn  Zn112  1  0.74840451  0.50071068  0.24924590  1
  Zn  Zn113  1  0.62328304  0.12351774  0.00088988  1
  Zn  Zn114  1  0.87750878  0.49851673  0.87147971  1
  Zn  Zn115  1  0.62601129  0.50043136  0.62578106  1
  Zn  Zn116  1  0.37899060  0.00584413  0.37911507  1
  Zn  Zn117  1  0.25102894  0.24616696  -0.00034985  1
  Zn  Zn118  1  0.00148088  0.37805112  0.87581556  1
  Zn  Zn119  1  0.62529143  0.87571942  0.74929103  1
  Zn  Zn120  1  0.50202180  0.12564484  0.13034256  1
  Zn  Zn121  1  0.12685336  0.12538741  0.00155161  1
  Zn  Zn122  1  0.18694497  0.18639640  0.19025704  1
  Zn  Zn123  1  0.18614623  0.18569526  0.68869694  1
  Zn  Zn124  1  0.18692290  0.68845030  0.18506392  1
  Zn  Zn125  1  0.18866127  0.68713622  0.68623107  1
  Zn  Zn126  1  0.68284363  0.18757720  0.18626568  1
  Zn  Zn127  1  0.68774882  0.18697201  0.68841359  1
  Zn  Zn128  1  0.68579878  0.68879204  0.18832846  1
  Zn  Zn129  1  0.68680068  0.68832230  0.68772926  1
  Zn  Zn130  1  0.31533779  0.31856396  0.30981487  1
  Zn  Zn131  1  0.31161103  0.31344003  0.81131847  1
  Zn  Zn132  1  0.31455047  0.81342997  0.31373630  1
  Zn  Zn133  1  0.31219975  0.81303641  0.81329628  1
  Zn  Zn134  1  0.81139738  0.31265264  0.31177633  1
  Zn  Zn135  1  0.81143097  0.31219806  0.81281538  1
  Zn  Zn136  1  0.81392392  0.81276444  0.31154824  1
  Zn  Zn137  1  0.81424560  0.81071656  0.80987428  1
  Zn  Zn138  1  0.18739090  0.43536086  0.43874223  1
  Zn  Zn139  1  0.18657617  0.43810117  0.93651867  1
  Zn  Zn140  1  0.18796152  0.93576594  0.43954205  1
  Zn  Zn141  1  0.18671634  0.93815187  0.93689292  1
  Zn  Zn142  1  0.68810633  0.43916318  0.43844135  1
  Zn  Zn143  1  0.68651491  0.43621888  0.93842003  1
  Zn  Zn144  1  0.68869538  0.93840544  0.43657678  1
  Zn  Zn145  1  0.68656155  0.93626208  0.93718851  1
  Zn  Zn146  1  0.31178313  0.06469001  0.06316224  1
  Zn  Zn147  1  0.30916213  0.06531519  0.56152778  1
  Zn  Zn148  1  0.30971905  0.56264245  0.06489685  1
  Zn  Zn149  1  0.31411416  0.56101473  0.56361415  1
  Zn  Zn150  1  0.81467215  0.06163308  0.06141955  1
  Zn  Zn151  1  0.81246655  0.06263365  0.55968643  1
  Zn  Zn152  1  0.80810648  0.56028325  0.06231601  1
  Zn  Zn153  1  0.81345292  0.55981426  0.56121984  1
  Zn  Zn154  1  0.43636790  0.43689199  0.19097101  1
  Zn  Zn155  1  0.43878745  0.43882673  0.69036937  1
  Zn  Zn156  1  0.43686483  0.93780038  0.19045297  1
  Zn  Zn157  1  0.43810691  0.93720398  0.68731483  1
  Zn  Zn158  1  0.93615238  0.43626013  0.18582491  1
  Zn  Zn159  1  0.93422513  0.43749339  0.68928792  1
  Zn  Zn160  1  0.93706037  0.93543011  0.18716604  1
  Zn  Zn161  1  0.93966474  0.93756362  0.68528994  1
  Zn  Zn162  1  0.06717955  0.06521463  0.31548868  1
  Zn  Zn163  1  0.06318366  0.06444303  0.81172292  1
  Zn  Zn164  1  0.05990014  0.55903353  0.31020762  1
  Zn  Zn165  1  0.06129225  0.56110804  0.81269406  1
  Zn  Zn166  1  0.56613151  0.06279123  0.30654154  1
  Zn  Zn167  1  0.56322234  0.06238393  0.81264963  1
  Zn  Zn168  1  0.56078439  0.56255117  0.31068621  1
  Zn  Zn169  1  0.56415330  0.56066103  0.81119574  1
  Zn  Zn170  1  0.43692930  0.18797765  0.43661696  1
  Zn  Zn171  1  0.43471871  0.18883086  0.94003011  1
  Zn  Zn172  1  0.43906718  0.69143754  0.43819071  1
  Zn  Zn173  1  0.43663768  0.68837530  0.93971779  1
  Zn  Zn174  1  0.93902168  0.18658163  0.43832020  1
  Zn  Zn175  1  0.93845349  0.18548897  0.93761851  1
  Zn  Zn176  1  0.94001694  0.68639552  0.43700414  1
  Zn  Zn177  1  0.93772214  0.68730977  0.93608967  1
  Zn  Zn178  1  0.06210027  0.31197287  0.06323301  1
  Zn  Zn179  1  0.05945775  0.31489861  0.56627067  1
  Zn  Zn180  1  0.06315780  0.81228849  0.06235189  1
  Zn  Zn181  1  0.06558771  0.81360490  0.56061086  1
  Zn  Zn182  1  0.56166578  0.31131893  0.06341678  1
  Zn  Zn183  1  0.56116735  0.31096332  0.56165714  1
  Zn  Zn184  1  0.56183547  0.81120115  0.06097128  1
  Zn  Zn185  1  0.56282391  0.81282524  0.56070072  1
  O  O186  1  0.11764903  0.11792673  0.12594753  1
  O  O187  1  0.12677701  0.11827794  0.61466734  1
  O  O188  1  0.11928913  0.62042889  0.11791144  1
  O  O189  1  0.11882829  0.61581390  0.62366295  1
  O  O190  1  0.62060651  0.12249190  0.11833174  1
  O  O191  1  0.62128186  0.11896985  0.61748547  1
  O  O192  1  0.61771717  0.61849517  0.12158848  1
  O  O193  1  0.61882957  0.62565634  0.61707723  1
  O  O194  1  0.37888651  0.38325456  0.38426112  1
  O  O195  1  0.38204563  0.38309817  0.87470460  1
  O  O196  1  0.38348472  0.87583388  0.38333070  1
  O  O197  1  0.38051907  0.88053682  0.88087910  1
  O  O198  1  0.88153522  0.37936875  0.37890559  1
  O  O199  1  0.87460428  0.37349360  0.88794650  1
  O  O200  1  0.88107091  0.88232896  0.37968829  1
  O  O201  1  0.88098659  0.87905206  0.87991516  1
  O  O202  1  0.25052670  0.00026301  0.36522813  1
  O  O203  1  0.25750145  -0.00054497  0.86730929  1
  O  O204  1  0.25838140  0.49233687  0.36683558  1
  O  O205  1  0.25802184  0.50460771  0.86882313  1
  O  O206  1  0.75963226  0.00734891  0.37543016  1
  O  O207  1  0.75718673  -0.00160896  0.86816987  1
  O  O208  1  0.75630335  0.50754664  0.37315742  1
  O  O209  1  0.74841024  0.51201986  0.87582960  1
  O  O210  1  0.24508340  0.49121821  0.13439895  1
  O  O211  1  0.24389592  0.49368700  0.62965115  1
  O  O212  1  0.24480666  0.99638897  0.13680868  1
  O  O213  1  0.24620639  0.99459612  0.62964558  1
  O  O214  1  0.73807699  0.49373433  0.12775398  1
  O  O215  1  0.74677202  0.49028961  0.62389770  1
  O  O216  1  0.75345520  0.98825861  0.12468082  1
  O  O217  1  0.74310135  0.99491005  0.62853252  1
  O  O218  1  0.00596591  0.36830122  0.25564679  1
  O  O219  1  0.00015105  0.36128262  0.75042433  1
  O  O220  1  0.00596686  0.86817394  0.25440034  1
  O  O221  1  0.00097401  0.86536969  0.75353110  1
  O  O222  1  0.50652622  0.37468740  0.25923198  1
  O  O223  1  0.50453622  0.36839356  0.75776312  1
  O  O224  1  0.50000387  0.86807224  0.25991868  1
  O  O225  1  0.50053345  0.86788857  0.75666678  1
  O  O226  1  0.49449012  0.12936136  0.24962120  1
  O  O227  1  0.49432131  0.13013682  0.74330219  1
  O  O228  1  0.49811177  0.63192824  0.23901257  1
  O  O229  1  0.49538449  0.63116661  0.74511568  1
  O  O230  1  1.00776276  0.13940630  0.24712134  1
  O  O231  1  0.99364453  0.13525971  0.74722012  1
  O  O232  1  0.99435346  0.62981487  0.24321711  1
  O  O233  1  1.00027987  0.63299420  0.73833764  1
  O  O234  1  0.37077002  0.25580657  0.01127376  1
  O  O235  1  0.38117195  0.26429295  0.50707658  1
  O  O236  1  0.37335388  0.75800149  0.00779602  1
  O  O237  1  0.36806521  0.75763799  0.50419936  1
  O  O238  1  0.86807379  0.25630834  0.00796552  1
  O  O239  1  0.87027302  0.25455538  0.50522770  1
  O  O240  1  0.87033900  0.75492971  0.00501037  1
  O  O241  1  0.87119735  0.75578560  0.50285186  1
  O  O242  1  0.12151203  0.23898933  0.50671151  1
  O  O243  1  0.12494979  0.24919326  0.99042244  1
  O  O244  1  0.13402467  0.74956911  0.49122675  1
  O  O245  1  0.12641401  0.73741047  0.99926959  1
  O  O246  1  0.63083184  0.24128676  0.49520264  1
  O  O247  1  0.63513592  0.25144201  0.99527603  1
  O  O248  1  0.63160878  0.74431160  0.49419412  1
  O  O249  1  0.63040257  0.74314455  0.99333639  1
  O  O250  1  0.48787372  0.25197705  0.12677621  1
  O  O251  1  0.49347978  0.24379229  0.63086902  1
  O  O252  1  0.49466211  0.74379442  0.13100085  1
  O  O253  1  0.49458412  0.74541616  0.62968039  1
  O  O254  1  0.99222379  0.24573345  0.13234731  1
  O  O255  1  0.99340731  0.24851554  0.63495994  1
  O  O256  1  0.99456733  0.74459235  0.13063296  1
  O  O257  1  0.99783460  0.74344766  0.62893807  1
  O  O258  1  -0.00992698  0.26174963  0.36438564  1
  O  O259  1  0.00661164  0.25100868  0.86725988  1
  O  O260  1  0.00748902  0.75587272  0.36965439  1
  O  O261  1  0.00049064  0.75394942  0.86381189  1
  O  O262  1  0.50730790  0.25830067  0.37661976  1
  O  O263  1  0.50311758  0.25782895  0.86971861  1
  O  O264  1  0.50528932  0.75731320  0.36943464  1
  O  O265  1  0.50425142  0.75404848  0.87031626  1
  O  O266  1  0.24378672  0.12346866  0.48638617  1
  O  O267  1  0.24482425  0.12743284  0.99638721  1
  O  O268  1  0.25079347  0.63956356  0.50589789  1
  O  O269  1  0.24017852  0.62604213  0.99603389  1
  O  O270  1  0.74079962  0.13007598  0.49206704  1
  O  O271  1  0.75150188  0.13736089  0.99816146  1
  O  O272  1  0.74611839  0.63083645  0.49371571  1
  O  O273  1  0.74317330  0.63055354  0.99281458  1
  O  O274  1  0.24787991  0.37520841  0.01538259  1
  O  O275  1  0.26077671  0.38134739  0.51149699  1
  O  O276  1  0.25603315  0.87613117  0.00816594  1
  O  O277  1  0.25849237  0.86468711  0.50465655  1
  O  O278  1  0.75569943  0.36463690  0.00588231  1
  O  O279  1  0.75489541  0.36773495  0.50361233  1
  O  O280  1  0.75645654  0.86890573  0.00623051  1
  O  O281  1  0.75651915  0.86911514  0.50418921  1
  O  O282  1  0.13054103  0.49090052  0.24618675  1
  O  O283  1  0.13135562  0.49864330  0.73964429  1
  O  O284  1  0.13224542  0.99403592  0.24674933  1
  O  O285  1  0.13165857  1.00051479  0.74173978  1
  O  O286  1  0.62601662  0.49471323  0.23999490  1
  O  O287  1  0.62804507  0.49045778  0.74623995  1
  O  O288  1  0.63329558  0.99418699  0.24511584  1
  O  O289  1  0.63214145  0.99928145  0.73904334  1
  O  O290  1  0.36268649  0.00301074  0.25280331  1
  O  O291  1  0.37101875  0.00530001  0.75382651  1
  O  O292  1  0.36558010  0.49941327  0.26026184  1
  O  O293  1  0.37054767  0.50684416  0.75852672  1
  O  O294  1  0.87486835  -0.00397962  0.26412624  1
  O  O295  1  0.87138260  0.00374310  0.75335002  1
  O  O296  1  0.87262098  0.50579445  0.25486649  1
  O  O297  1  0.86828286  0.50325983  0.75356938  1
  O  O298  1  0.11452434  0.38031455  0.36557498  1
  O  O299  1  0.12322872  0.36513355  0.87218777  1
  O  O300  1  0.11969608  0.86550211  0.36991952  1
  O  O301  1  0.11711317  0.87159506  0.87176077  1
  O  O302  1  0.62061512  0.37072513  0.37220909  1
  O  O303  1  0.61743067  0.37012678  0.86953834  1
  O  O304  1  0.61692423  0.86889056  0.37793322  1
  O  O305  1  0.61832283  0.86705504  0.87303255  1
  O  O306  1  0.37344870  0.13796632  0.12939220  1
  O  O307  1  0.37955317  0.13025990  0.62782761  1
  O  O308  1  0.38277593  0.62935835  0.12615870  1
  O  O309  1  0.38093974  0.63053513  0.63085321  1
  O  O310  1  0.88021555  0.13771006  0.12160842  1
  O  O311  1  0.87659892  0.13099717  0.62959619  1
  O  O312  1  0.87832670  0.62952689  0.12848559  1
  O  O313  1  0.88537532  0.63033400  0.62291781  1
  O  O314  1  0.25564917  0.26008892  0.12900661  1
  O  O315  1  0.25613073  0.26297086  0.63309696  1
  O  O316  1  0.25628640  0.75800622  0.12496876  1
  O  O317  1  0.25593294  0.75547913  0.61785803  1
  O  O318  1  0.75641646  0.25377566  0.11864481  1
  O  O319  1  0.75516750  0.25438445  0.61924924  1
  O  O320  1  0.75531723  0.75512313  0.11829386  1
  O  O321  1  0.75612817  0.75451910  0.61839329  1
  O  O322  1  0.25241386  0.24121955  0.37060685  1
  O  O323  1  0.23961461  0.25006761  0.87495827  1
  O  O324  1  0.24048418  0.75581118  0.38288515  1
  O  O325  1  0.24873580  0.74142760  0.87752144  1
  O  O326  1  0.74629916  0.24301533  0.38055474  1
  O  O327  1  0.74367142  0.24941111  0.88454645  1
  O  O328  1  0.74602612  0.74565322  0.38025831  1
  O  O329  1  0.74520421  0.74265380  0.87919376  1
  O  O330  1  0.00101820  0.11709105  0.00900024  1
  O  O331  1  0.01121320  0.11949057  0.49823324  1
  O  O332  1  0.00819464  0.62461986  0.00534722  1
  O  O333  1  0.00462082  0.62328504  0.51158543  1
  O  O334  1  0.49783520  0.11237414  0.00158875  1
  O  O335  1  0.51329652  0.13047472  0.50497469  1
  O  O336  1  0.50619141  0.63211015  0.01464311  1
  O  O337  1  0.50490488  0.62190101  0.50536846  1
  O  O338  1  0.49130343  0.38151740  0.49681736  1
  O  O339  1  0.50006516  0.37186844  0.98442823  1
  O  O340  1  0.48942958  0.86697175  0.49048318  1
  O  O341  1  0.49397578  0.88166718  0.99479595  1
  O  O342  1  0.99460180  0.37395071  0.49038436  1
  O  O343  1  0.98798690  0.37551228  1.00173974  1
  O  O344  1  0.99592219  0.88020748  0.49338667  1
  O  O345  1  0.99459229  0.87932357  0.99515547  1
  O  O346  1  0.49145168  0.49492427  0.38072783  1
  O  O347  1  0.48999708  0.49088096  0.86778786  1
  O  O348  1  0.49926057  0.98673927  0.37079322  1
  O  O349  1  0.49469186  0.99393878  0.88169055  1
  O  O350  1  0.99392114  0.48783487  0.37474454  1
  O  O351  1  0.99613319  0.49585212  0.87887236  1
  O  O352  1  0.99503889  0.99597946  0.37829300  1
  O  O353  1  0.99500647  0.99418989  0.87930723  1
  O  O354  1  0.00374514  0.00393863  0.12194195  1
  O  O355  1  0.00716018  0.00198287  0.61693734  1
  O  O356  1  0.00615926  0.50613405  0.12386024  1
  O  O357  1  0.00875938  0.50619209  0.62555954  1
  O  O358  1  0.49901016  -0.00166948  0.11372393  1
  O  O359  1  0.51311994  0.00613690  0.63053112  1
  O  O360  1  0.50753459  0.50958353  0.13154071  1
  O  O361  1  0.49983371  0.50777448  0.61891737  1
  O  O362  1  0.24120860  0.38299760  0.24368661  1
  O  O363  1  0.25064548  0.38300241  0.73843227  1
  O  O364  1  0.24553643  0.88245910  0.24626587  1
  O  O365  1  0.25060074  0.88131453  0.74201759  1
  O  O366  1  0.74212565  0.37575683  0.24351029  1
  O  O367  1  0.74234014  0.37223067  0.74276427  1
  O  O368  1  0.75107847  0.87321029  0.23692264  1
  O  O369  1  0.74960694  0.87979897  0.74114644  1
  O  O370  1  0.24772542  0.11879251  0.26523348  1
  O  O371  1  0.25827731  0.11783283  0.75026444  1
  O  O372  1  0.24915145  0.60953386  0.24368789  1
  O  O373  1  0.25665187  0.62046836  0.75487255  1
  O  O374  1  0.74596422  0.12676311  0.26563621  1
  O  O375  1  0.75717085  0.11761769  0.75073624  1
  O  O376  1  0.75689477  0.62617599  0.25634756  1
  O  O377  1  0.75044118  0.62587567  0.76079791  1
  O  O378  1  0.36044429  0.12324115  0.37857183  1
  O  O379  1  0.37520055  0.11865246  0.86692895  1
  O  O380  1  0.38026212  0.61119383  0.37542552  1
  O  O381  1  0.37196194  0.61817884  0.87122436  1
  O  O382  1  0.86558860  0.11564653  0.38336902  1
  O  O383  1  0.87346230  0.11707562  0.86799760  1
  O  O384  1  0.87165447  0.62006297  0.36964630  1
  O  O385  1  0.86246755  0.62460451  0.87510120  1
  O  O386  1  0.13037647  0.37980290  0.13414131  1
  O  O387  1  0.13323484  0.38344414  0.62552606  1
  O  O388  1  0.12978171  0.88001373  0.13183562  1
  O  O389  1  0.13309931  0.88238917  0.62473255  1
  O  O390  1  0.62681385  0.38193957  0.12966063  1
  O  O391  1  0.63009653  0.37365432  0.63003071  1
  O  O392  1  0.63835130  0.87346311  0.12283898  1
  O  O393  1  0.63084235  0.88392942  0.62289445  1
  O  O394  1  0.11406187  0.26307923  0.24376013  1
  O  O395  1  0.11578952  0.24997674  0.75717176  1
  O  O396  1  0.12124199  0.75421811  0.25639316  1
  O  O397  1  0.11351321  0.75137785  0.74873218  1
  O  O398  1  0.62359327  0.25837893  0.25792869  1
  O  O399  1  0.61869743  0.25401001  0.75564918  1
  O  O400  1  0.61811218  0.75356495  0.25664461  1
  O  O401  1  0.61761213  0.75244859  0.75552760  1
  O  O402  1  0.37665058  0.25189629  0.24000603  1
  O  O403  1  0.38031643  0.24449564  0.74429339  1
  O  O404  1  0.38028193  0.74708866  0.24483070  1
  O  O405  1  0.38035879  0.74446569  0.74458883  1
  O  O406  1  0.88428071  0.25862944  0.23810243  1
  O  O407  1  0.88114127  0.24456147  0.74618739  1
  O  O408  1  0.88203055  0.74376606  0.24483457  1
  O  O409  1  0.88702013  0.74754567  0.74133172  1
  O  O410  1  0.37897511  0.49211668  0.49445734  1
  O  O411  1  0.36881922  0.49857209  0.98636128  1
  O  O412  1  0.36834593  0.98530539  0.49982935  1
  O  O413  1  0.38210244  0.99449714  0.99523023  1
  O  O414  1  0.87850745  0.49170819  0.49234272  1
  O  O415  1  0.87290471  0.48707989  1.00088333  1
  O  O416  1  0.88203540  0.99481469  0.49120530  1
  O  O417  1  0.88165907  0.99352330  0.99375594  1
  O  O418  1  0.11728402  -0.00111033  0.00856758  1
  O  O419  1  0.12107768  0.00536499  0.50441747  1
  O  O420  1  0.12475314  0.51054725  0.00654310  1
  O  O421  1  0.12451725  0.50164943  0.51105457  1
  O  O422  1  0.61324826  -0.00087892  0.00088633  1
  O  O423  1  0.63293762  0.01058967  0.51056368  1
  O  O424  1  0.62864438  0.50502129  0.01383953  1
  O  O425  1  0.61741786  0.50754404  0.50037329  1
  O  O426  1  0.36579975  0.37062774  0.12548920  1
  O  O427  1  0.36909703  0.37237063  0.61925701  1
  O  O428  1  0.36957994  0.87022080  0.12117851  1
  O  O429  1  0.37220967  0.86939253  0.61749623  1
  O  O430  1  0.86907740  0.36559955  0.11787176  1
  O  O431  1  0.86917911  0.36817415  0.61849694  1
  O  O432  1  0.86859066  0.86788279  0.11915473  1
  O  O433  1  0.87090411  0.86965939  0.61725102  1
  O  O434  1  0.13926149  0.12449432  0.38304435  1
  O  O435  1  0.12584644  0.13658371  0.87694407  1
  O  O436  1  0.11676375  0.63814264  0.37502763  1
  O  O437  1  0.13108518  0.62457872  0.88351307  1
  O  O438  1  0.63248083  0.12879443  0.38319971  1
  O  O439  1  0.62676043  0.13312936  0.87880054  1
  O  O440  1  0.62988199  0.63081537  0.37956664  1
  O  O441  1  0.63071229  0.62967312  0.88012104  1
