# generated using pymatgen
data_V93Zn93O256
_symmetry_space_group_name_H-M   'P 1'
_cell_length_a   17.04588214
_cell_length_b   17.05123654
_cell_length_c   17.05151628
_cell_angle_alpha   90.00510150
_cell_angle_beta   89.92230507
_cell_angle_gamma   90.02016425
_symmetry_Int_Tables_number   1
_chemical_formula_structural   V93Zn93O256
_chemical_formula_sum   'V93 Zn93 O256'
_cell_volume   4956.07576071
_cell_formula_units_Z   1
loop_
 _symmetry_equiv_pos_site_id
 _symmetry_equiv_pos_as_xyz
  1  'x, y, z'
loop_
 _atom_site_type_symbol
 _atom_site_label
 _atom_site_symmetry_multiplicity
 _atom_site_fract_x
 _atom_site_fract_y
 _atom_site_fract_z
 _atom_site_occupancy
  V  V0  1  0.74478576  -0.01105111  0.74690194  1
  V  V1  1  -0.00047309  0.75065153  0.25159608  1
  V  V2  1  0.87424083  0.37388001  0.00072004  1
  V  V3  1  -0.00043050  0.87505741  0.37725602  1
  V  V4  1  0.12476497  0.12521690  0.50117710  1
  V  V5  1  0.75094216  0.49890558  0.25195746  1
  V  V6  1  0.50163240  0.50117576  0.49964526  1
  V  V7  1  0.25106389  0.50091697  0.24984508  1
  V  V8  1  0.50695710  0.75336438  0.24816039  1
  V  V9  1  0.50046837  0.25066379  0.24883920  1
  V  V10  1  0.37538083  0.25070274  0.12273023  1
  V  V11  1  0.62526648  0.25424745  0.87013461  1
  V  V12  1  0.00035791  0.37451651  0.37501379  1
  V  V13  1  0.74975649  0.74885773  0.00020837  1
  V  V14  1  0.37587635  -0.00058010  0.37442911  1
  V  V15  1  0.37514325  0.75070968  0.12340956  1
  V  V16  1  0.24969241  0.62669042  0.37544878  1
  V  V17  1  0.25027850  0.25048507  0.50009635  1
  V  V18  1  0.62536683  0.37301780  0.24916722  1
  V  V19  1  0.12449791  0.75076801  0.87479390  1
  V  V20  1  0.12485927  0.50137092  0.62523850  1
  V  V21  1  -0.00063918  0.50018379  0.50064016  1
  V  V22  1  0.00000871  0.12586310  0.62653528  1
  V  V23  1  0.74903102  0.24924359  0.50084488  1
  V  V24  1  0.87487415  0.62538504  0.75014670  1
  V  V25  1  0.74921603  0.12354738  0.37562818  1
  V  V26  1  0.50296765  0.37536966  0.87040339  1
  V  V27  1  0.12921355  0.00122095  0.62945100  1
  V  V28  1  0.25126429  0.37594572  0.12354407  1
  V  V29  1  -0.00085634  0.62509450  0.62403902  1
  V  V30  1  0.62596392  -0.00695467  0.13213435  1
  V  V31  1  0.37375765  0.12350484  0.74926642  1
  V  V32  1  0.37331310  0.87589690  -0.00142018  1
  V  V33  1  0.87370831  0.87482948  0.00268978  1
  V  V34  1  -0.00212548  0.00182781  0.00466336  1
  V  V35  1  0.87469845  0.62347559  0.25091734  1
  V  V36  1  0.37427856  0.12527846  0.24845013  1
  V  V37  1  0.37112518  -0.00036994  0.86945140  1
  V  V38  1  0.50088126  0.00102127  -0.00223351  1
  V  V39  1  0.12405177  0.87547071  0.25076590  1
  V  V40  1  0.87497852  0.74947350  0.12548455  1
  V  V41  1  0.75227423  0.36876812  0.12506141  1
  V  V42  1  0.50144567  0.12514503  0.62403972  1
  V  V43  1  0.25004988  0.75058549  0.49980671  1
  V  V44  1  0.00021913  0.50087093  0.00033628  1
  V  V45  1  0.25037591  0.87508683  0.12514404  1
  V  V46  1  0.62565487  -0.01128590  0.62853488  1
  V  V47  1  0.49911738  0.62522905  0.12352927  1
  V  V48  1  0.50438829  0.75590255  0.74926245  1
  V  V49  1  0.00106623  0.62432635  0.12550114  1
  V  V50  1  0.24983186  0.12490151  0.37496314  1
  V  V51  1  0.25029998  0.50015190  0.74875194  1
  V  V52  1  0.88087015  0.12468605  0.24450826  1
  V  V53  1  0.12444003  0.25059240  0.37474398  1
  V  V54  1  0.62443578  0.50044519  0.62549919  1
  V  V55  1  0.87479611  0.50022218  0.87506000  1
  V  V56  1  0.62471711  0.62498691  -0.00086569  1
  V  V57  1  0.24851632  0.12208687  0.87006768  1
  V  V58  1  0.62514813  0.75613962  0.87110531  1
  V  V59  1  0.50068415  0.50072409  -0.00172517  1
  V  V60  1  0.87457466  0.37640448  0.49964202  1
  V  V61  1  0.37578686  0.49990867  0.87318387  1
  V  V62  1  0.50271440  0.25364613  0.74906815  1
  V  V63  1  0.24966917  0.62561855  0.87486284  1
  V  V64  1  0.37625562  0.24980812  0.62478533  1
  V  V65  1  0.12299617  0.00289558  0.12494781  1
  V  V66  1  0.00034722  0.37533018  0.87406484  1
  V  V67  1  0.49988348  0.12468089  0.12421279  1
  V  V68  1  0.37460283  0.87517931  0.49925203  1
  V  V69  1  0.12461474  0.37451740  0.25010605  1
  V  V70  1  0.37592681  0.62658924  0.74879284  1
  V  V71  1  0.25007479  0.87927695  0.62729896  1
  V  V72  1  0.74806746  0.12507082  0.87493252  1
  V  V73  1  0.74662311  0.37375118  0.62812000  1
  V  V74  1  0.87542548  -0.00056687  0.37831644  1
  V  V75  1  0.37541247  0.50008726  0.37430474  1
  V  V76  1  0.87192019  0.75767117  0.62632633  1
  V  V77  1  0.25006533  0.37632337  0.62527470  1
  V  V78  1  0.00027764  -0.00076371  0.50191870  1
  V  V79  1  0.11971137  0.12618476  0.00389583  1
  V  V80  1  0.50062293  0.37489952  0.37318216  1
  V  V81  1  0.74517074  0.49575439  0.75087114  1
  V  V82  1  0.50134273  0.00033507  0.50040685  1
  V  V83  1  0.12948113  0.88154250  0.75195065  1
  V  V84  1  0.74571039  0.75544432  0.50487788  1
  V  V85  1  0.37572688  0.37518222  0.49924316  1
  V  V86  1  0.37597182  0.37465291  -0.00124055  1
  V  V87  1  0.50762166  0.87350537  0.37023624  1
  V  V88  1  0.12513222  0.50049249  0.12404484  1
  V  V89  1  0.12438827  0.25102834  0.87335273  1
  V  V90  1  0.24987134  -0.00003690  0.24949336  1
  V  V91  1  0.87501323  0.12561928  0.74996672  1
  V  V92  1  0.37562052  0.75062157  0.62542277  1
  Zn  Zn93  1  0.74068335  0.86646366  0.13706194  1
  Zn  Zn94  1  0.75011504  0.62533875  0.37801347  1
  Zn  Zn95  1  0.74881953  0.62393807  0.87563571  1
  Zn  Zn96  1  0.24926111  0.74903836  0.00094734  1
  Zn  Zn97  1  0.25048046  0.24991207  -0.00094182  1
  Zn  Zn98  1  0.62430894  0.49809663  0.12352390  1
  Zn  Zn99  1  0.50148508  0.62665200  0.62251639  1
  Zn  Zn100  1  0.87378101  -0.00200922  0.87562376  1
  Zn  Zn101  1  0.62649361  0.12566811  0.00083146  1
  Zn  Zn102  1  0.12552972  0.62698158  -0.00008093  1
  Zn  Zn103  1  0.88449038  0.24175164  0.11761428  1
  Zn  Zn104  1  0.62573420  0.12356053  0.50174117  1
  Zn  Zn105  1  0.87618783  0.50075039  0.37573403  1
  Zn  Zn106  1  0.37650583  0.62609456  0.24852272  1
  Zn  Zn107  1  0.12287069  0.62784213  0.50062454  1
  Zn  Zn108  1  0.00363065  0.24646077  0.24258271  1
  Zn  Zn109  1  0.87265299  0.87762948  0.50610449  1
  Zn  Zn110  1  0.63271592  0.75090999  0.36636584  1
  Zn  Zn111  1  0.87645584  0.25081035  0.62581640  1
  Zn  Zn112  1  0.12328346  0.37558287  0.74928281  1
  Zn  Zn113  1  0.74522684  -0.00885965  0.25851175  1
  Zn  Zn114  1  0.12403177  0.75100904  0.37694148  1
  Zn  Zn115  1  0.62561376  0.62481774  0.49444660  1
  Zn  Zn116  1  -0.00079926  0.75418027  0.74901900  1
  Zn  Zn117  1  -0.00108227  0.25259664  0.74819033  1
  Zn  Zn118  1  -0.00032631  0.87518923  0.87530404  1
  Zn  Zn119  1  0.50368986  0.87979886  0.86953978  1
  Zn  Zn120  1  0.74936528  0.24846257  -0.00033038  1
  Zn  Zn121  1  0.62331100  0.24752047  0.37512938  1
  Zn  Zn122  1  0.18841826  0.18963388  0.18625566  1
  Zn  Zn123  1  0.18804040  0.18818324  0.68844238  1
  Zn  Zn124  1  0.18703360  0.68840037  0.18889625  1
  Zn  Zn125  1  0.18691321  0.69032185  0.68843514  1
  Zn  Zn126  1  0.68777957  0.18293093  0.18878101  1
  Zn  Zn127  1  0.68603426  0.18265296  0.68814408  1
  Zn  Zn128  1  0.68732590  0.68355952  0.18483165  1
  Zn  Zn129  1  0.68785149  0.68532359  0.68617490  1
  Zn  Zn130  1  0.31232717  0.31288187  0.31124014  1
  Zn  Zn131  1  0.31291420  0.31161096  0.81167493  1
  Zn  Zn132  1  0.31672821  0.81157345  0.31059050  1
  Zn  Zn133  1  0.31161548  0.81271241  0.81169888  1
  Zn  Zn134  1  0.81438051  0.30985051  0.31374268  1
  Zn  Zn135  1  0.81320109  0.31193629  0.81313470  1
  Zn  Zn136  1  0.81256158  0.81399177  0.31566158  1
  Zn  Zn137  1  0.81232638  0.81080102  0.81668050  1
  Zn  Zn138  1  0.18599410  0.43940064  0.43867001  1
  Zn  Zn139  1  0.18795525  0.43828642  0.93783406  1
  Zn  Zn140  1  0.18641595  0.93760423  0.43905929  1
  Zn  Zn141  1  0.18766320  0.93811015  0.93871787  1
  Zn  Zn142  1  0.68574224  0.43558425  0.43713814  1
  Zn  Zn143  1  0.68726687  0.43641954  0.93800200  1
  Zn  Zn144  1  0.68744191  0.93632431  0.44331785  1
  Zn  Zn145  1  0.68905116  0.93696932  0.94010350  1
  Zn  Zn146  1  0.30974367  0.06339004  0.05886092  1
  Zn  Zn147  1  0.31285261  0.06182781  0.56216717  1
  Zn  Zn148  1  0.31268359  0.56409586  0.06018421  1
  Zn  Zn149  1  0.31349640  0.56428345  0.56162754  1
  Zn  Zn150  1  0.80897813  0.05966393  0.06270364  1
  Zn  Zn151  1  0.81212021  0.06137557  0.56564957  1
  Zn  Zn152  1  0.81148942  0.56113394  0.06451658  1
  Zn  Zn153  1  0.81177270  0.56613396  0.56207289  1
  Zn  Zn154  1  0.43775989  0.43893099  0.18634990  1
  Zn  Zn155  1  0.43817055  0.43696142  0.68744889  1
  Zn  Zn156  1  0.43817019  0.93641827  0.18682493  1
  Zn  Zn157  1  0.43866508  0.93720088  0.68640256  1
  Zn  Zn158  1  0.93774585  0.43477303  0.18746500  1
  Zn  Zn159  1  0.93569505  0.43729463  0.68740657  1
  Zn  Zn160  1  0.93500061  0.93854436  0.18910330  1
  Zn  Zn161  1  0.94102441  0.94002724  0.69161835  1
  Zn  Zn162  1  0.06188355  0.06106668  0.31436188  1
  Zn  Zn163  1  0.05923427  0.06062949  0.81644084  1
  Zn  Zn164  1  0.06325718  0.56171775  0.31304011  1
  Zn  Zn165  1  0.06263506  0.56318310  0.81131049  1
  Zn  Zn166  1  0.56153765  0.06378665  0.31318596  1
  Zn  Zn167  1  0.56282393  0.06572461  0.81022905  1
  Zn  Zn168  1  0.56580555  0.56582314  0.31136931  1
  Zn  Zn169  1  0.56236230  0.56826644  0.81170581  1
  Zn  Zn170  1  0.43775856  0.18725308  0.43682394  1
  Zn  Zn171  1  0.43820060  0.18759166  0.93609274  1
  Zn  Zn172  1  0.43863354  0.68729113  0.43623535  1
  Zn  Zn173  1  0.43828906  0.68892168  0.93564554  1
  Zn  Zn174  1  0.93668708  0.18837589  0.43637362  1
  Zn  Zn175  1  0.93676173  0.18836487  0.93642398  1
  Zn  Zn176  1  0.93281252  0.68774213  0.43816568  1
  Zn  Zn177  1  0.93927482  0.68755622  0.93726781  1
  Zn  Zn178  1  0.06021901  0.31227441  0.06303160  1
  Zn  Zn179  1  0.06217010  0.31316650  0.56343566  1
  Zn  Zn180  1  0.06183348  0.81417625  0.06273054  1
  Zn  Zn181  1  0.06231107  0.81191167  0.56431070  1
  Zn  Zn182  1  0.56503349  0.31180490  0.05853505  1
  Zn  Zn183  1  0.56439598  0.31432292  0.56233674  1
  Zn  Zn184  1  0.55988861  0.81258176  0.05763435  1
  Zn  Zn185  1  0.56026169  0.81326086  0.56121229  1
  O  O186  1  0.13445809  0.11977491  0.11100810  1
  O  O187  1  0.12140706  0.12128505  0.62074162  1
  O  O188  1  0.11900489  0.61848657  0.12479438  1
  O  O189  1  0.11760830  0.61976417  0.62553248  1
  O  O190  1  0.61800682  0.11458444  0.12158222  1
  O  O191  1  0.61723005  0.11553445  0.62372194  1
  O  O192  1  0.61688527  0.62213918  0.11564428  1
  O  O193  1  0.62441922  0.61048935  0.62109170  1
  O  O194  1  0.37988981  0.38001278  0.37991378  1
  O  O195  1  0.38089136  0.38035667  0.87938584  1
  O  O196  1  0.38233182  0.88137709  0.38003532  1
  O  O197  1  0.37352759  0.88593171  0.87898946  1
  O  O198  1  0.88198657  0.37586038  0.38179602  1
  O  O199  1  0.87964428  0.38087741  0.88020660  1
  O  O200  1  0.88369698  0.88316509  0.37949361  1
  O  O201  1  0.87581188  0.87577840  0.89002814  1
  O  O202  1  0.25551698  0.00547315  0.36997621  1
  O  O203  1  0.26045857  0.01018791  0.88085344  1
  O  O204  1  0.25499373  0.50714005  0.37089214  1
  O  O205  1  0.25607666  0.50480675  0.86852365  1
  O  O206  1  0.75502009  0.00863035  0.38079354  1
  O  O207  1  0.74750505  0.00852605  0.86465759  1
  O  O208  1  0.75190284  0.49681677  0.36152902  1
  O  O209  1  0.75508406  0.49946554  0.86592853  1
  O  O210  1  0.24616143  0.49577288  0.12980121  1
  O  O211  1  0.24597003  0.49570129  0.62892307  1
  O  O212  1  0.24486093  0.99538293  0.13057374  1
  O  O213  1  0.24210117  0.99236723  0.61872015  1
  O  O214  1  0.74896972  0.48843149  0.13508141  1
  O  O215  1  0.74429929  0.49283404  0.63108087  1
  O  O216  1  0.73113946  0.99939846  0.12340650  1
  O  O217  1  0.74207169  1.00497573  0.63923343  1
  O  O218  1  0.00805485  0.37529134  0.25795027  1
  O  O219  1  0.00120461  0.37364398  0.75802310  1
  O  O220  1  0.00432046  0.87098236  0.25611114  1
  O  O221  1  0.01225268  0.87408364  0.75501661  1
  O  O222  1  0.50483378  0.37003807  0.25324822  1
  O  O223  1  0.49342975  0.36584850  0.75764796  1
  O  O224  1  0.49346756  0.86684741  0.25972332  1
  O  O225  1  0.49555947  0.86057226  0.75163228  1
  O  O226  1  0.49291725  0.13048694  0.24466914  1
  O  O227  1  0.49309936  0.13283099  0.74351435  1
  O  O228  1  0.49769679  0.63372387  0.24229650  1
  O  O229  1  0.49290568  0.63573316  0.74683127  1
  O  O230  1  0.98440655  0.12375647  0.25640567  1
  O  O231  1  0.98939953  0.12309587  0.74676173  1
  O  O232  1  0.99538994  0.62941184  0.24509066  1
  O  O233  1  0.98726605  0.62389382  0.74423107  1
  O  O234  1  0.37517905  0.25633590  0.00516850  1
  O  O235  1  0.36986812  0.25512242  0.50509692  1
  O  O236  1  0.37476877  0.75841435  0.00487239  1
  O  O237  1  0.37080109  0.75624840  0.50548019  1
  O  O238  1  0.87006286  0.25749340  -0.00055595  1
  O  O239  1  0.86349480  0.25547232  0.50217909  1
  O  O240  1  0.87105876  0.75591050  0.00501992  1
  O  O241  1  0.86562896  0.75136740  0.51051234  1
  O  O242  1  0.13147470  0.24466906  0.49509339  1
  O  O243  1  0.12514250  0.24225035  0.98954030  1
  O  O244  1  0.13403727  0.74846827  0.49770371  1
  O  O245  1  0.12657912  0.75053496  0.98850080  1
  O  O246  1  0.63747086  0.24828520  0.49845362  1
  O  O247  1  0.62733644  0.24468552  0.98686347  1
  O  O248  1  0.63869864  0.74942318  0.50565344  1
  O  O249  1  0.62895137  0.74430645  0.99272576  1
  O  O250  1  0.49504180  0.24497206  0.12880140  1
  O  O251  1  0.49546805  0.24652255  0.62824061  1
  O  O252  1  0.49488700  0.74681538  0.12950641  1
  O  O253  1  0.49464892  0.74916121  0.63208417  1
  O  O254  1  0.99633822  0.25206363  0.12991482  1
  O  O255  1  0.99796120  0.24204661  0.62786451  1
  O  O256  1  0.99523401  0.74451622  0.13118878  1
  O  O257  1  0.99061411  0.74255203  0.62707296  1
  O  O258  1  0.00797921  0.25636628  0.37377941  1
  O  O259  1  0.00969764  0.25549910  0.87380132  1
  O  O260  1  -0.00000124  0.75629971  0.36943772  1
  O  O261  1  0.01148790  0.75167540  0.87224185  1
  O  O262  1  0.49965732  0.25620964  0.36743292  1
  O  O263  1  0.50673756  0.25385864  0.86917033  1
  O  O264  1  0.49918502  0.75798182  0.36546046  1
  O  O265  1  0.50760993  0.75218935  0.86661092  1
  O  O266  1  0.24544858  0.13095926  0.49449876  1
  O  O267  1  0.23982846  0.12663064  0.98793524  1
  O  O268  1  0.25011701  0.63111989  0.49059183  1
  O  O269  1  0.24661758  0.62745232  0.99053788  1
  O  O270  1  0.75178147  0.13327974  0.49372197  1
  O  O271  1  0.75068032  0.12448487  0.98593725  1
  O  O272  1  0.74912323  0.63696924  0.49850733  1
  O  O273  1  0.74402863  0.63022631  0.99933102  1
  O  O274  1  0.25806041  0.37463278  0.00562256  1
  O  O275  1  0.25606780  0.36999365  0.50459186  1
  O  O276  1  0.25617348  0.87546148  0.00807916  1
  O  O277  1  0.25579605  0.87028656  0.50491171  1
  O  O278  1  0.75533750  0.37543041  0.00990177  1
  O  O279  1  0.75405742  0.36783329  0.50720957  1
  O  O280  1  0.75919089  0.86904926  0.00517289  1
  O  O281  1  0.75341665  0.86062182  0.50049115  1
  O  O282  1  0.13161301  0.49411653  0.24402834  1
  O  O283  1  0.13267429  0.49887303  0.74365231  1
  O  O284  1  0.13020329  0.99655754  0.24498756  1
  O  O285  1  0.12060785  0.99071787  0.74594105  1
  O  O286  1  0.63426572  0.49216093  0.24687576  1
  O  O287  1  0.63709091  0.50741421  0.74247243  1
  O  O288  1  0.62095320  1.00266740  0.23470390  1
  O  O289  1  0.63703899  1.00414988  0.74520187  1
  O  O290  1  0.36975819  0.00589747  0.25417153  1
  O  O291  1  0.38342830  0.00666361  0.76240017  1
  O  O292  1  0.36869230  0.50101331  0.25666391  1
  O  O293  1  0.37046786  0.50606067  0.75417293  1
  O  O294  1  0.87367170  0.01107723  0.25854728  1
  O  O295  1  0.86347801  0.00865161  0.75098891  1
  O  O296  1  0.86640907  0.50424796  0.24972592  1
  O  O297  1  0.86632422  0.50747942  0.75394320  1
  O  O298  1  0.12158558  0.36988888  0.37038447  1
  O  O299  1  0.12073963  0.36579156  0.87517302  1
  O  O300  1  0.11841016  0.87584751  0.36793794  1
  O  O301  1  0.12805887  0.86854958  0.86808117  1
  O  O302  1  0.61791942  0.37154022  0.36740740  1
  O  O303  1  0.61908555  0.36325798  0.87916910  1
  O  O304  1  0.61059517  0.87197786  0.38175965  1
  O  O305  1  0.62369907  0.86036471  0.88151040  1
  O  O306  1  0.37868864  0.12953714  0.12917593  1
  O  O307  1  0.38003881  0.13027800  0.62909021  1
  O  O308  1  0.38154369  0.63223015  0.12402729  1
  O  O309  1  0.37574499  0.63285212  0.63120121  1
  O  O310  1  0.86512256  0.12184025  0.14199206  1
  O  O311  1  0.88044039  0.12568957  0.63482033  1
  O  O312  1  0.88169733  0.62969748  0.13065357  1
  O  O313  1  0.87934799  0.63190805  0.63441186  1
  O  O314  1  0.25750993  0.25777958  0.12221767  1
  O  O315  1  0.25609541  0.25502298  0.61947583  1
  O  O316  1  0.25631895  0.75718197  0.12493053  1
  O  O317  1  0.25623105  0.75760632  0.61965180  1
  O  O318  1  0.75290697  0.25923838  0.12464499  1
  O  O319  1  0.74826725  0.25733885  0.61901696  1
  O  O320  1  0.75669847  0.74900179  0.11803678  1
  O  O321  1  0.75917272  0.74417903  0.61560283  1
  O  O322  1  0.24580837  0.24462313  0.38057355  1
  O  O323  1  0.24180376  0.24208177  0.87679424  1
  O  O324  1  0.25194647  0.74190883  0.37933140  1
  O  O325  1  0.24111799  0.74416308  0.87526602  1
  O  O326  1  0.74912087  0.24124393  0.38444914  1
  O  O327  1  0.74157240  0.24236566  0.87251648  1
  O  O328  1  0.75115379  0.74924777  0.39062672  1
  O  O329  1  0.74153038  0.74642167  0.88106862  1
  O  O330  1  0.01052778  0.11648127  -0.00663643  1
  O  O331  1  0.00561002  0.12015770  0.50545144  1
  O  O332  1  0.00098019  0.61823724  0.00760526  1
  O  O333  1  -0.00071811  0.61872638  0.50647171  1
  O  O334  1  0.49791250  0.11430197  0.00493414  1
  O  O335  1  0.50028928  0.11831363  0.50532272  1
  O  O336  1  0.50456560  0.62005133  0.00351806  1
  O  O337  1  0.50200122  0.61665685  0.50226590  1
  O  O338  1  0.49473543  0.37978853  0.49365429  1
  O  O339  1  0.49504141  0.38098107  0.99221902  1
  O  O340  1  0.49288226  0.88003867  0.49112880  1
  O  O341  1  0.49189998  0.88719276  0.99614300  1
  O  O342  1  0.99440956  0.37995432  0.49592467  1
  O  O343  1  0.99400834  0.38223965  0.99336776  1
  O  O344  1  0.99988332  0.88248675  0.49566606  1
  O  O345  1  0.99113249  0.88292511  0.99946529  1
  O  O346  1  0.49514413  0.49429534  0.37866162  1
  O  O347  1  0.49525015  0.49588629  0.87726283  1
  O  O348  1  0.49540388  0.99328341  0.37885852  1
  O  O349  1  0.49244787  1.00172986  0.88171010  1
  O  O350  1  1.00054513  0.49264417  0.38259882  1
  O  O351  1  0.99457243  0.49571556  0.87985609  1
  O  O352  1  0.99552502  0.99522714  0.38320813  1
  O  O353  1  0.99596395  0.99672870  0.89015414  1
  O  O354  1  0.00652072  -0.00442111  0.11298208  1
  O  O355  1  0.00777558  0.00705539  0.62093785  1
  O  O356  1  0.00543061  0.50432799  0.12027407  1
  O  O357  1  0.00425027  0.50481504  0.62027067  1
  O  O358  1  0.50589363  0.00419827  0.11704144  1
  O  O359  1  0.50551305  0.00553799  0.62081143  1
  O  O360  1  0.50074468  0.50604947  0.11644834  1
  O  O361  1  0.50983286  0.49771166  0.62007983  1
  O  O362  1  0.24515409  0.38116345  0.24419918  1
  O  O363  1  0.25044554  0.38188651  0.74274005  1
  O  O364  1  0.24548795  0.88144047  0.24564630  1
  O  O365  1  0.23885170  0.87080024  0.74220556  1
  O  O366  1  0.74727032  0.37871146  0.24363172  1
  O  O367  1  0.75741547  0.38539605  0.74043278  1
  O  O368  1  0.75420789  0.87974449  0.24776455  1
  O  O369  1  0.75572302  0.89150688  0.75621812  1
  O  O370  1  0.25482584  0.11978190  0.25535614  1
  O  O371  1  0.25625106  0.12968967  0.76240898  1
  O  O372  1  0.25228143  0.61976549  0.25891218  1
  O  O373  1  0.25639696  0.62012987  0.75481692  1
  O  O374  1  0.75692736  0.11961285  0.26253528  1
  O  O375  1  0.75759440  0.11883930  0.75795779  1
  O  O376  1  0.75589007  0.61345431  0.24706123  1
  O  O377  1  0.76058583  0.61467021  0.74973974  1
  O  O378  1  0.36958913  0.11951358  0.36876614  1
  O  O379  1  0.36732748  0.11930699  0.87081473  1
  O  O380  1  0.36478378  0.61884854  0.37384176  1
  O  O381  1  0.37023343  0.61941010  0.86897826  1
  O  O382  1  0.86649448  0.11938948  0.36967393  1
  O  O383  1  0.86586846  0.12295758  0.86704080  1
  O  O384  1  0.87183723  0.62096355  0.36512926  1
  O  O385  1  0.87405330  0.61962253  0.86589079  1
  O  O386  1  0.13193319  0.38131730  0.12952052  1
  O  O387  1  0.13256491  0.38165789  0.62626673  1
  O  O388  1  0.13026829  0.88204776  0.13131716  1
  O  O389  1  0.12954968  0.88066283  0.63364453  1
  O  O390  1  0.63480665  0.37465352  0.12971567  1
  O  O391  1  0.63712910  0.38574661  0.62155457  1
  O  O392  1  0.62108907  0.88980754  0.11838658  1
  O  O393  1  0.61861622  0.88990915  0.62380600  1
  O  O394  1  0.12664437  0.25612089  0.25755323  1
  O  O395  1  0.12315805  0.25084297  0.76261694  1
  O  O396  1  0.11752212  0.75799733  0.25198409  1
  O  O397  1  0.12323842  0.75997548  0.75863442  1
  O  O398  1  0.61789011  0.25433620  0.25084262  1
  O  O399  1  0.61780022  0.24331872  0.76101333  1
  O  O400  1  0.61110400  0.74820758  0.24568548  1
  O  O401  1  0.61680182  0.74098921  0.75854224  1
  O  O402  1  0.37994491  0.24499623  0.24303696  1
  O  O403  1  0.38091404  0.24356364  0.74328538  1
  O  O404  1  0.38597709  0.74863106  0.24116632  1
  O  O405  1  0.38245685  0.74588278  0.74531339  1
  O  O406  1  0.87466795  0.23241260  0.25215254  1
  O  O407  1  0.87539203  0.23746141  0.74863358  1
  O  O408  1  0.88067718  0.74332022  0.24449433  1
  O  O409  1  0.87285434  0.74080408  0.74506606  1
  O  O410  1  0.38071949  0.49363521  0.49480066  1
  O  O411  1  0.38122448  0.49476395  0.99228008  1
  O  O412  1  0.38128546  0.99520467  0.49387288  1
  O  O413  1  0.38245318  0.99742349  0.99109311  1
  O  O414  1  0.88051954  0.49366999  0.50005792  1
  O  O415  1  0.87993150  0.49496750  0.99446059  1
  O  O416  1  0.88172456  0.99890534  0.49747248  1
  O  O417  1  0.88077615  0.99230657  1.00243811  1
  O  O418  1  0.11757848  0.00693184  0.00409521  1
  O  O419  1  0.12006353  0.00707238  0.50697666  1
  O  O420  1  0.11794215  0.50150974  0.00614930  1
  O  O421  1  0.11814270  0.50296438  0.50800869  1
  O  O422  1  0.61361424  0.00231840  0.00517128  1
  O  O423  1  0.61905584  0.00224091  0.51014783  1
  O  O424  1  0.61804350  0.50660500  -0.00100997  1
  O  O425  1  0.62013543  0.49913312  0.50856765  1
  O  O426  1  0.37100884  0.37035855  0.11872603  1
  O  O427  1  0.37007048  0.36944958  0.61833300  1
  O  O428  1  0.36974063  0.87154260  0.11875519  1
  O  O429  1  0.37013723  0.87126508  0.61896372  1
  O  O430  1  0.86533130  0.37420000  0.11941745  1
  O  O431  1  0.86299649  0.37371219  0.61907481  1
  O  O432  1  0.87583629  0.86812586  0.11499690  1
  O  O433  1  0.88205342  0.86139209  0.62855338  1
  O  O434  1  0.13094060  0.12946116  0.38111949  1
  O  O435  1  0.13093647  0.13051437  0.88112086  1
  O  O436  1  0.13846674  0.62644689  0.37638109  1
  O  O437  1  0.13040985  0.63478057  0.87322083  1
  O  O438  1  0.63613606  0.12525437  0.37777341  1
  O  O439  1  0.63331276  0.13310310  0.87545249  1
  O  O440  1  0.63083616  0.63237536  0.37674954  1
  O  O441  1  0.62646173  0.63546129  0.88218743  1
