# generated using pymatgen
data_V93Zn93O256
_symmetry_space_group_name_H-M   'P 1'
_cell_length_a   17.04893499
_cell_length_b   17.05028696
_cell_length_c   17.04888983
_cell_angle_alpha   90.06218550
_cell_angle_beta   90.02948705
_cell_angle_gamma   90.09495801
_symmetry_Int_Tables_number   1
_chemical_formula_structural   V93Zn93O256
_chemical_formula_sum   'V93 Zn93 O256'
_cell_volume   4955.91833847
_cell_formula_units_Z   1
loop_
 _symmetry_equiv_pos_site_id
 _symmetry_equiv_pos_as_xyz
  1  'x, y, z'
loop_
 _atom_site_type_symbol
 _atom_site_label
 _atom_site_symmetry_multiplicity
 _atom_site_fract_x
 _atom_site_fract_y
 _atom_site_fract_z
 _atom_site_occupancy
  V  V0  1  0.87181601  0.37416207  0.49743381  1
  V  V1  1  0.74889552  0.37295234  0.62242258  1
  V  V2  1  0.75162956  0.75091512  0.49980476  1
  V  V3  1  0.63218729  0.25070140  0.37904953  1
  V  V4  1  0.24916267  0.36710052  0.62077137  1
  V  V5  1  0.62554821  0.74884813  0.87587204  1
  V  V6  1  0.24839599  0.24950425  0.00132222  1
  V  V7  1  0.87034946  0.49804944  0.86950811  1
  V  V8  1  0.13016798  0.25264316  0.38171087  1
  V  V9  1  0.88410877  0.62713478  0.24508964  1
  V  V10  1  -0.00144621  0.87410585  0.87503973  1
  V  V11  1  0.12401511  0.37301108  0.74929446  1
  V  V12  1  0.24761704  0.62408349  0.87619148  1
  V  V13  1  0.87365479  -0.00006238  0.87489283  1
  V  V14  1  0.62550174  0.87489469  0.74948370  1
  V  V15  1  0.12461034  0.87425675  0.75023646  1
  V  V16  1  0.50207460  0.50132885  0.50119314  1
  V  V17  1  0.75138672  0.50204182  0.24846450  1
  V  V18  1  0.12603488  0.37511750  0.24808641  1
  V  V19  1  0.37509853  -0.00014226  0.37606372  1
  V  V20  1  0.24947201  0.74992020  0.00104066  1
  V  V21  1  0.62747946  0.75132840  0.37562461  1
  V  V22  1  0.24890883  -0.00086110  0.75165637  1
  V  V23  1  0.74906459  0.12390280  0.87312572  1
  V  V24  1  0.24918979  0.49811592  0.74959108  1
  V  V25  1  0.62908450  0.50023052  0.62726704  1
  V  V26  1  0.37548961  0.75083166  0.12509773  1
  V  V27  1  0.74963057  0.37551281  0.12418447  1
  V  V28  1  0.50053483  0.87570217  0.37560676  1
  V  V29  1  0.50099316  0.62602374  0.12454132  1
  V  V30  1  0.00877690  0.88336472  0.37527405  1
  V  V31  1  0.50075391  0.12495548  0.12532976  1
  V  V32  1  0.24897935  0.12321967  0.87598694  1
  V  V33  1  0.62433274  0.25055449  0.87426232  1
  V  V34  1  0.87409444  0.87443625  0.00152179  1
  V  V35  1  0.88155676  0.74807599  0.12571910  1
  V  V36  1  0.49935081  0.12591194  0.62434328  1
  V  V37  1  0.37658889  0.87423844  0.50090062  1
  V  V38  1  0.00030554  0.24924578  0.24925840  1
  V  V39  1  0.24894974  0.87470660  0.12791491  1
  V  V40  1  -0.00292295  0.24683879  0.74681048  1
  V  V41  1  0.12348672  -0.00397680  0.12965839  1
  V  V42  1  0.87545115  0.00176898  0.38301073  1
  V  V43  1  0.25114881  0.87304039  0.62549920  1
  V  V44  1  0.75128505  0.87597448  0.12601645  1
  V  V45  1  0.12325433  0.50015847  0.62362791  1
  V  V46  1  0.87419168  0.37565000  -0.00111807  1
  V  V47  1  0.75178325  0.62761253  0.37438160  1
  V  V48  1  0.62485060  0.00141785  0.12541701  1
  V  V49  1  0.62849977  0.37748658  0.74937496  1
  V  V50  1  0.37140555  0.36867041  0.50077292  1
  V  V51  1  0.87094060  0.24887326  0.61889566  1
  V  V52  1  0.25014206  0.62576361  0.37654591  1
  V  V53  1  0.37412814  0.25024193  0.12474077  1
  V  V54  1  0.12359605  0.12459256  0.00143880  1
  V  V55  1  0.49881615  0.74925163  0.74981833  1
  V  V56  1  0.62565759  0.37577020  0.25035759  1
  V  V57  1  0.50133277  0.75026627  0.24938641  1
  V  V58  1  0.62726104  0.87633548  0.25052448  1
  V  V59  1  0.12133104  0.50747453  0.12421825  1
  V  V60  1  0.37374190  0.37397692  -0.00083241  1
  V  V61  1  0.25037500  0.13036890  0.38307619  1
  V  V62  1  0.24495964  -0.00398417  0.25201963  1
  V  V63  1  0.74987578  0.87345854  0.62513470  1
  V  V64  1  0.37487820  0.74876808  0.62502917  1
  V  V65  1  0.87643893  0.50077066  0.37398561  1
  V  V66  1  0.37369873  0.49911664  0.87445436  1
  V  V67  1  0.12428205  0.74830687  0.87570815  1
  V  V68  1  0.50040587  0.25129380  0.24975624  1
  V  V69  1  0.87475762  0.74873280  0.62406311  1
  V  V70  1  0.49964140  0.37448170  0.87318259  1
  V  V71  1  0.00027764  0.62346040  0.62381841  1
  V  V72  1  0.37464664  0.12522964  0.75121305  1
  V  V73  1  0.62637492  0.00030676  0.62440601  1
  V  V74  1  0.62461483  0.50112163  0.12412828  1
  V  V75  1  0.74936394  0.25033997  -0.00070907  1
  V  V76  1  0.74879382  0.62265117  0.87114862  1
  V  V77  1  0.11844281  0.00069534  0.61777938  1
  V  V78  1  0.63115016  0.12966542  0.49918170  1
  V  V79  1  0.49835696  0.87692327  0.87771470  1
  V  V80  1  0.25046642  0.49996669  0.24915324  1
  V  V81  1  0.00008461  -0.00005694  0.00107798  1
  V  V82  1  0.37461978  0.12602669  0.25109215  1
  V  V83  1  0.49952312  0.50093077  0.00000675  1
  V  V84  1  -0.00036684  0.74850159  0.74926950  1
  V  V85  1  0.37486183  0.62400337  0.74904879  1
  V  V86  1  0.37566192  0.50051383  0.37439037  1
  V  V87  1  0.12482623  0.75191802  0.36906730  1
  V  V88  1  0.12195620  0.24912205  0.87514341  1
  V  V89  1  -0.00161406  0.50565515  0.00249674  1
  V  V90  1  0.87533830  0.24948265  0.12556489  1
  V  V91  1  0.50084224  0.37598406  0.37485488  1
  V  V92  1  0.87282009  0.62146681  0.74926174  1
  Zn  Zn93  1  0.87341433  0.12345800  0.74681603  1
  Zn  Zn94  1  0.12025556  0.62725112  0.00361119  1
  Zn  Zn95  1  0.75179687  -0.00120703  0.74920797  1
  Zn  Zn96  1  -0.00967088  0.11635236  0.61587254  1
  Zn  Zn97  1  0.24964495  0.74920494  0.49961277  1
  Zn  Zn98  1  0.00014510  0.50195281  0.49739260  1
  Zn  Zn99  1  0.75575783  0.12977630  0.37624675  1
  Zn  Zn100  1  0.00127715  0.37607281  0.37734187  1
  Zn  Zn101  1  0.75446429  0.00410421  0.25101072  1
  Zn  Zn102  1  0.25060075  0.37651597  0.12298224  1
  Zn  Zn103  1  0.50127877  0.00085098  0.49810577  1
  Zn  Zn104  1  0.62690716  0.62586142  0.50143057  1
  Zn  Zn105  1  0.62664813  0.62579956  -0.00041439  1
  Zn  Zn106  1  0.62226076  0.12527747  -0.00051527  1
  Zn  Zn107  1  0.00661840  0.75410310  0.24609267  1
  Zn  Zn108  1  0.49755574  0.25045053  0.74970448  1
  Zn  Zn109  1  0.36980438  0.24515523  0.62027931  1
  Zn  Zn110  1  0.49647225  0.00200044  0.00107901  1
  Zn  Zn111  1  0.87417771  0.12339742  0.25000264  1
  Zn  Zn112  1  0.74983378  0.74876701  0.00101623  1
  Zn  Zn113  1  0.88241457  0.87886259  0.50467872  1
  Zn  Zn114  1  0.37708447  0.62468167  0.24975518  1
  Zn  Zn115  1  0.12268925  0.62553229  0.49942499  1
  Zn  Zn116  1  0.37397793  0.87753047  0.00086370  1
  Zn  Zn117  1  -0.00224099  0.12368197  0.12546916  1
  Zn  Zn118  1  -0.00245613  0.37412956  0.87408339  1
  Zn  Zn119  1  0.37397055  -0.00075431  0.87901590  1
  Zn  Zn120  1  0.12419771  0.12766211  0.50128115  1
  Zn  Zn121  1  0.50106577  0.62482623  0.62561285  1
  Zn  Zn122  1  0.18816116  0.18420601  0.18901397  1
  Zn  Zn123  1  0.18619886  0.18538407  0.68958755  1
  Zn  Zn124  1  0.19019991  0.68671197  0.18961497  1
  Zn  Zn125  1  0.18759773  0.68617925  0.68803637  1
  Zn  Zn126  1  0.69002604  0.18617980  0.19133270  1
  Zn  Zn127  1  0.68668596  0.18976659  0.68821405  1
  Zn  Zn128  1  0.69121060  0.68889679  0.18707791  1
  Zn  Zn129  1  0.68739829  0.68668585  0.68901556  1
  Zn  Zn130  1  0.31266642  0.31402197  0.31243352  1
  Zn  Zn131  1  0.30998710  0.31014364  0.81198193  1
  Zn  Zn132  1  0.31423547  0.81188810  0.31183685  1
  Zn  Zn133  1  0.31242279  0.81097963  0.81296909  1
  Zn  Zn134  1  0.81317945  0.31419606  0.31062762  1
  Zn  Zn135  1  0.81044143  0.31234948  0.80886450  1
  Zn  Zn136  1  0.81675966  0.81664350  0.31204536  1
  Zn  Zn137  1  0.81132388  0.80983372  0.81203411  1
  Zn  Zn138  1  0.18742890  0.43917934  0.43827145  1
  Zn  Zn139  1  0.18482832  0.43572600  0.93777211  1
  Zn  Zn140  1  0.19076458  0.93576640  0.43871538  1
  Zn  Zn141  1  0.18700562  0.93614939  0.94020159  1
  Zn  Zn142  1  0.69057405  0.43841653  0.43779072  1
  Zn  Zn143  1  0.68719009  0.43833187  0.93745581  1
  Zn  Zn144  1  0.68990201  0.93923194  0.44071236  1
  Zn  Zn145  1  0.68634795  0.93712192  0.93996907  1
  Zn  Zn146  1  0.31318807  0.06139932  0.06280668  1
  Zn  Zn147  1  0.31056698  0.05783088  0.56376843  1
  Zn  Zn148  1  0.31144193  0.56382744  0.06290451  1
  Zn  Zn149  1  0.31194701  0.55912110  0.56240237  1
  Zn  Zn150  1  0.81188610  0.06413700  0.06197151  1
  Zn  Zn151  1  0.80975808  0.06205650  0.56054942  1
  Zn  Zn152  1  0.81245083  0.56471793  0.05975247  1
  Zn  Zn153  1  0.81202200  0.56138032  0.56074131  1
  Zn  Zn154  1  0.43738876  0.43780266  0.18639778  1
  Zn  Zn155  1  0.43794649  0.43627572  0.68648324  1
  Zn  Zn156  1  0.43642766  0.93746960  0.18931780  1
  Zn  Zn157  1  0.43843408  0.93878540  0.68883106  1
  Zn  Zn158  1  0.93876817  0.43728151  0.18646628  1
  Zn  Zn159  1  0.93803950  0.43556627  0.68685201  1
  Zn  Zn160  1  0.93875010  0.93586173  0.19483283  1
  Zn  Zn161  1  0.93552716  0.93548974  0.69021691  1
  Zn  Zn162  1  0.06249937  0.06661849  0.31539038  1
  Zn  Zn163  1  0.06072830  0.06232273  0.80944568  1
  Zn  Zn164  1  0.06303249  0.56270281  0.31346044  1
  Zn  Zn165  1  0.05962597  0.56046051  0.81317014  1
  Zn  Zn166  1  0.56307321  0.06354169  0.31219947  1
  Zn  Zn167  1  0.56352639  0.06048634  0.81049800  1
  Zn  Zn168  1  0.56467338  0.56510736  0.31187945  1
  Zn  Zn169  1  0.56165563  0.56197274  0.81154012  1
  Zn  Zn170  1  0.44250931  0.18713819  0.43612919  1
  Zn  Zn171  1  0.43799688  0.18713617  0.93820873  1
  Zn  Zn172  1  0.43770163  0.68791288  0.43747171  1
  Zn  Zn173  1  0.43627534  0.68804916  0.93882664  1
  Zn  Zn174  1  0.94554453  0.18618813  0.43920695  1
  Zn  Zn175  1  0.93618781  0.18601339  0.93748155  1
  Zn  Zn176  1  0.93988248  0.69055771  0.43670839  1
  Zn  Zn177  1  0.93491242  0.68679290  0.93775504  1
  Zn  Zn178  1  0.06007153  0.31687191  0.06247188  1
  Zn  Zn179  1  0.05668341  0.31435546  0.56245424  1
  Zn  Zn180  1  0.06319320  0.81447387  0.06197021  1
  Zn  Zn181  1  0.06365076  0.81140791  0.55605208  1
  Zn  Zn182  1  0.56206354  0.31280934  0.06103983  1
  Zn  Zn183  1  0.55947237  0.31117444  0.56224522  1
  Zn  Zn184  1  0.56442453  0.81223788  0.06102972  1
  Zn  Zn185  1  0.56235250  0.81199813  0.56195104  1
  O  O186  1  0.12381488  0.11367340  0.11948675  1
  O  O187  1  0.13145918  0.10726583  0.62560624  1
  O  O188  1  0.12789295  0.61127272  0.12567976  1
  O  O189  1  0.11920844  0.61790597  0.62511438  1
  O  O190  1  0.62007924  0.11722454  0.12633555  1
  O  O191  1  0.61879299  0.12296635  0.61913576  1
  O  O192  1  0.62031559  0.61875176  0.12423778  1
  O  O193  1  0.62375701  0.61292314  0.62450764  1
  O  O194  1  0.37999253  0.38048845  0.38206324  1
  O  O195  1  0.37887500  0.37916357  0.87855398  1
  O  O196  1  0.38062188  0.87986824  0.38025272  1
  O  O197  1  0.38632529  0.87555522  0.87419341  1
  O  O198  1  0.87324166  0.38055765  0.38304951  1
  O  O199  1  0.87112086  0.38312587  0.87932039  1
  O  O200  1  0.88459716  0.88738971  0.37811911  1
  O  O201  1  0.87925517  0.87892490  0.88025519  1
  O  O202  1  0.25339209  0.00773016  0.36857663  1
  O  O203  1  0.24860883  0.00558519  0.86938578  1
  O  O204  1  0.25469887  0.50714149  0.36946112  1
  O  O205  1  0.25418738  0.50310284  0.86947687  1
  O  O206  1  0.76555347  -0.00043141  0.37486086  1
  O  O207  1  0.75387430  0.00865404  0.87592742  1
  O  O208  1  0.75591032  0.50604529  0.36773996  1
  O  O209  1  0.76099984  0.50809877  0.88028142  1
  O  O210  1  0.24107430  0.49803740  0.13033571  1
  O  O211  1  0.24382460  0.49061379  0.63114494  1
  O  O212  1  0.24293610  0.99667946  0.13376670  1
  O  O213  1  0.24202034  0.99163488  0.63284630  1
  O  O214  1  0.74500204  0.49511093  0.12853485  1
  O  O215  1  0.73772269  0.48905848  0.61936303  1
  O  O216  1  0.74136265  0.99493109  0.12583954  1
  O  O217  1  0.74385436  0.99238891  0.62620322  1
  O  O218  1  0.01045841  0.36728514  0.25015616  1
  O  O219  1  0.00523190  0.36335868  0.75050425  1
  O  O220  1  -0.00306719  0.87038832  0.26944628  1
  O  O221  1  0.00479915  0.86737657  0.75644305  1
  O  O222  1  0.50616083  0.37158060  0.25528530  1
  O  O223  1  0.50806375  0.37225319  0.75466452  1
  O  O224  1  0.50656798  0.86954625  0.25612114  1
  O  O225  1  0.50518125  0.86939712  0.75777794  1
  O  O226  1  0.49385333  0.13199306  0.24587277  1
  O  O227  1  0.49142105  0.12469925  0.74231938  1
  O  O228  1  0.50013603  0.63225870  0.24331566  1
  O  O229  1  0.49214542  0.63073032  0.74949717  1
  O  O230  1  1.00039649  0.13960993  0.24816060  1
  O  O231  1  0.99769607  0.13592388  0.74275331  1
  O  O232  1  0.98652158  0.62747024  0.25305303  1
  O  O233  1  0.99343168  0.63016245  0.74459837  1
  O  O234  1  0.36855162  0.25456871  0.00465251  1
  O  O235  1  0.38306865  0.26525838  0.49971695  1
  O  O236  1  0.36719543  0.75239032  0.00730789  1
  O  O237  1  0.37439567  0.75587674  0.50693053  1
  O  O238  1  0.86933585  0.25616749  0.00446554  1
  O  O239  1  0.88040437  0.26029452  0.51016318  1
  O  O240  1  0.87484865  0.75594228  0.00881603  1
  O  O241  1  0.86815194  0.75074429  0.50755052  1
  O  O242  1  0.12344396  0.26023689  0.48331703  1
  O  O243  1  0.12763194  0.24547174  0.99596001  1
  O  O244  1  0.13085195  0.74612219  0.48613415  1
  O  O245  1  0.12956914  0.74756313  0.99461588  1
  O  O246  1  0.61654346  0.24277735  0.48950312  1
  O  O247  1  0.63212705  0.25104521  0.99235750  1
  O  O248  1  0.63204120  0.74815839  0.49370292  1
  O  O249  1  0.62817826  0.74637249  0.99118198  1
  O  O250  1  0.49496622  0.24586289  0.13063143  1
  O  O251  1  0.49699968  0.23666419  0.62758695  1
  O  O252  1  0.49637058  0.74602689  0.12992593  1
  O  O253  1  0.49390504  0.74773204  0.63178446  1
  O  O254  1  0.99482262  0.25123196  0.13348703  1
  O  O255  1  0.98877882  0.25216131  0.63389978  1
  O  O256  1  0.98676862  0.75867134  0.12803548  1
  O  O257  1  0.99555419  0.74457615  0.63032218  1
  O  O258  1  0.01096829  0.25446156  0.36402810  1
  O  O259  1  0.00284746  0.24966814  0.86445254  1
  O  O260  1  0.00959299  0.75777040  0.37222418  1
  O  O261  1  0.00365710  0.75424416  0.86974661  1
  O  O262  1  0.50841622  0.25725056  0.36826128  1
  O  O263  1  0.50614693  0.25710918  0.87380165  1
  O  O264  1  0.50669148  0.75548535  0.37001124  1
  O  O265  1  0.50436724  0.75690712  0.86955559  1
  O  O266  1  0.24721072  0.12027858  0.48667974  1
  O  O267  1  0.24354270  0.13003873  0.99545290  1
  O  O268  1  0.25048877  0.62380872  0.48645052  1
  O  O269  1  0.24698236  0.63127684  0.99297481  1
  O  O270  1  0.73462159  0.12471758  0.49674703  1
  O  O271  1  0.74714543  0.13162309  0.98895171  1
  O  O272  1  0.74948174  0.63179844  0.49212520  1
  O  O273  1  0.74882297  0.62720140  0.98567044  1
  O  O274  1  0.25586309  0.36735949  -0.00010016  1
  O  O275  1  0.26129449  0.38335587  0.50913497  1
  O  O276  1  0.25030175  0.86716921  0.00828479  1
  O  O277  1  0.25941114  0.87258752  0.50716010  1
  O  O278  1  0.75455013  0.37028787  0.00512650  1
  O  O279  1  0.75986288  0.37733440  0.50963037  1
  O  O280  1  0.75741204  0.87388693  0.00734340  1
  O  O281  1  0.75236697  0.86768831  0.50842140  1
  O  O282  1  0.12795735  0.49308343  0.24343706  1
  O  O283  1  0.12932220  0.49282680  0.74477817  1
  O  O284  1  0.13511767  1.00927225  0.24183925  1
  O  O285  1  0.13015141  0.99299796  0.74348060  1
  O  O286  1  0.63099892  0.49470616  0.24477088  1
  O  O287  1  0.61668804  0.48824183  0.73873885  1
  O  O288  1  0.62629255  0.99482592  0.24059290  1
  O  O289  1  0.62807558  0.99262915  0.74212887  1
  O  O290  1  0.36614849  0.00680901  0.25606598  1
  O  O291  1  0.36833423  0.01096437  0.75110447  1
  O  O292  1  0.36944292  0.49959011  0.25681078  1
  O  O293  1  0.36954765  0.50326993  0.75513938  1
  O  O294  1  0.87620719  0.00346090  0.26448547  1
  O  O295  1  0.87216201  0.00300017  0.75845141  1
  O  O296  1  0.87055211  0.50706641  0.25194657  1
  O  O297  1  0.88139213  0.50429727  0.76211878  1
  O  O298  1  0.12751705  0.37061078  0.36311503  1
  O  O299  1  0.12312759  0.36655341  0.86717312  1
  O  O300  1  0.11617219  0.86995172  0.37874299  1
  O  O301  1  0.11838552  0.86866304  0.87046251  1
  O  O302  1  0.62088427  0.37012455  0.37089853  1
  O  O303  1  0.62123846  0.37276515  0.86622340  1
  O  O304  1  0.62088143  0.87141554  0.37074423  1
  O  O305  1  0.61807872  0.86970163  0.87001602  1
  O  O306  1  0.37992579  0.13083650  0.13190552  1
  O  O307  1  0.38058439  0.12408938  0.63121939  1
  O  O308  1  0.38229378  0.63173011  0.12707341  1
  O  O309  1  0.37565393  0.62887570  0.63133872  1
  O  O310  1  0.87771624  0.13422788  0.12674641  1
  O  O311  1  0.87091700  0.13574194  0.62536503  1
  O  O312  1  0.86757860  0.63576451  0.13335112  1
  O  O313  1  0.87858908  0.62806279  0.63074819  1
  O  O314  1  0.25611105  0.24984503  0.11942243  1
  O  O315  1  0.24810381  0.26324496  0.62806154  1
  O  O316  1  0.25422965  0.75498628  0.12202687  1
  O  O317  1  0.25640768  0.75547118  0.62490785  1
  O  O318  1  0.75418088  0.25657584  0.11994977  1
  O  O319  1  0.75901384  0.26097112  0.62908845  1
  O  O320  1  0.76021452  0.75841472  0.12352596  1
  O  O321  1  0.75504221  0.75333183  0.62050458  1
  O  O322  1  0.24247839  0.24025243  0.36575808  1
  O  O323  1  0.24222310  0.24287446  0.88076473  1
  O  O324  1  0.24503765  0.74166317  0.37343444  1
  O  O325  1  0.24357834  0.74463347  0.87995849  1
  O  O326  1  0.73519206  0.25258369  0.37063153  1
  O  O327  1  0.74514440  0.24317969  0.87882509  1
  O  O328  1  0.74690882  0.74791932  0.37964050  1
  O  O329  1  0.74446605  0.74056966  0.87658593  1
  O  O330  1  0.00575874  0.11757599  0.00119543  1
  O  O331  1  0.01266265  0.13259801  0.50811961  1
  O  O332  1  0.00025929  0.61023254  -0.00525574  1
  O  O333  1  0.00039533  0.62265485  0.50922857  1
  O  O334  1  0.50277070  0.12378907  0.00921380  1
  O  O335  1  0.50757290  0.12308292  0.50916140  1
  O  O336  1  0.50140793  0.61788758  0.00564667  1
  O  O337  1  0.50205593  0.61167812  0.50073007  1
  O  O338  1  0.49340648  0.38453738  0.49565591  1
  O  O339  1  0.49348868  0.38061208  0.99333075  1
  O  O340  1  0.49464452  0.87735396  0.49339880  1
  O  O341  1  0.49912762  0.87503198  0.98798746  1
  O  O342  1  0.98482770  0.37980812  0.49901182  1
  O  O343  1  0.99191846  0.38428823  0.99586319  1
  O  O344  1  0.99716524  0.86926205  0.48262510  1
  O  O345  1  0.99424388  0.88098546  0.99340728  1
  O  O346  1  0.49763326  0.49540346  0.38203157  1
  O  O347  1  0.49327672  0.49417066  0.87961639  1
  O  O348  1  0.49282829  0.99379389  0.37384579  1
  O  O349  1  0.50018477  0.98813842  0.87532305  1
  O  O350  1  0.99172656  0.49605612  0.37519698  1
  O  O351  1  0.98878786  0.49646840  0.88260864  1
  O  O352  1  0.99562946  0.99054715  0.37270172  1
  O  O353  1  0.99486490  0.99395807  0.87995768  1
  O  O354  1  0.00828581  -0.00125821  0.12147532  1
  O  O355  1  0.01528934  -0.00217533  0.63239387  1
  O  O356  1  0.00900465  0.49335346  0.11444474  1
  O  O357  1  0.00642917  0.50605664  0.62627044  1
  O  O358  1  0.50884280  0.00595491  0.12817640  1
  O  O359  1  0.50625550  0.01150256  0.62484311  1
  O  O360  1  0.50505753  0.50535245  0.12000002  1
  O  O361  1  0.50917576  0.49835125  0.61578972  1
  O  O362  1  0.24095359  0.38095610  0.24838991  1
  O  O363  1  0.24474972  0.37893364  0.74161609  1
  O  O364  1  0.25498543  0.88977788  0.24677240  1
  O  O365  1  0.24400355  0.87851110  0.74594145  1
  O  O366  1  0.74525770  0.38218114  0.24340379  1
  O  O367  1  0.73747656  0.37285359  0.73900760  1
  O  O368  1  0.74403266  0.87826940  0.24326080  1
  O  O369  1  0.74264932  0.87366141  0.74333884  1
  O  O370  1  0.25592301  0.11615040  0.25910117  1
  O  O371  1  0.25653145  0.12001705  0.75617905  1
  O  O372  1  0.25344980  0.61812369  0.26116781  1
  O  O373  1  0.25511931  0.61771007  0.75594353  1
  O  O374  1  0.75532276  0.12299085  0.25858174  1
  O  O375  1  0.74988463  0.12467469  0.76254744  1
  O  O376  1  0.75895061  0.61994839  0.25504357  1
  O  O377  1  0.75694265  0.62862200  0.76233097  1
  O  O378  1  0.36916718  0.12187884  0.37134844  1
  O  O379  1  0.36891435  0.12398857  0.86641818  1
  O  O380  1  0.36771097  0.61896387  0.37340993  1
  O  O381  1  0.36828288  0.61866155  0.86939498  1
  O  O382  1  0.87826719  0.11351945  0.37716121  1
  O  O383  1  0.86436056  0.11937096  0.87413305  1
  O  O384  1  0.87024294  0.62147092  0.36572631  1
  O  O385  1  0.86806787  0.61755319  0.86959779  1
  O  O386  1  0.12767962  0.38362583  0.13427142  1
  O  O387  1  0.13116454  0.37904595  0.62902525  1
  O  O388  1  0.13110416  0.88895970  0.12179355  1
  O  O389  1  0.12957030  0.88160917  0.63024774  1
  O  O390  1  0.62960515  0.38055172  0.13087576  1
  O  O391  1  0.63005830  0.37843699  0.62907285  1
  O  O392  1  0.62981982  0.88224300  0.13056665  1
  O  O393  1  0.62924430  0.87969441  0.62988365  1
  O  O394  1  0.12006196  0.25814015  0.25375513  1
  O  O395  1  0.11604800  0.25264722  0.75397047  1
  O  O396  1  0.12488670  0.74506180  0.26316340  1
  O  O397  1  0.11920627  0.75496652  0.75547413  1
  O  O398  1  0.61916155  0.25679046  0.25747086  1
  O  O399  1  0.62191607  0.26100132  0.75541262  1
  O  O400  1  0.62142667  0.75691685  0.25543009  1
  O  O401  1  0.61828622  0.75499483  0.75555763  1
  O  O402  1  0.38094402  0.24653684  0.24524637  1
  O  O403  1  0.37401084  0.23609145  0.74707102  1
  O  O404  1  0.38355420  0.74896269  0.24330698  1
  O  O405  1  0.37923072  0.74343488  0.74465189  1
  O  O406  1  0.88617294  0.25323876  0.24529023  1
  O  O407  1  0.88154286  0.25068928  0.73956991  1
  O  O408  1  0.87497953  0.74230150  0.24230750  1
  O  O409  1  0.88097165  0.74283992  0.74416849  1
  O  O410  1  0.38445458  0.49114967  0.49549138  1
  O  O411  1  0.37897889  0.49413218  0.99397770  1
  O  O412  1  0.37708085  0.99280293  0.49354419  1
  O  O413  1  0.37830134  0.99573596  0.99704010  1
  O  O414  1  0.87436076  0.49129670  0.49259338  1
  O  O415  1  0.88077770  0.49552921  0.99294559  1
  O  O416  1  0.87487344  0.99972273  0.48788230  1
  O  O417  1  0.88085717  0.99440478  0.99531752  1
  O  O418  1  0.11986476  0.00485609  0.00892814  1
  O  O419  1  0.12996011  -0.00388381  0.51668376  1
  O  O420  1  0.11656582  0.49950526  0.00714457  1
  O  O421  1  0.12178707  0.50164013  0.50872823  1
  O  O422  1  0.62145503  0.00083456  0.01476847  1
  O  O423  1  0.62230401  0.01049674  0.50577531  1
  O  O424  1  0.61719725  0.50012585  0.00633918  1
  O  O425  1  0.61676383  0.49847100  0.50764016  1
  O  O426  1  0.37411903  0.36827212  0.11750411  1
  O  O427  1  0.36670717  0.37332647  0.61815994  1
  O  O428  1  0.36777430  0.86847558  0.12522134  1
  O  O429  1  0.37119155  0.86956481  0.62205702  1
  O  O430  1  0.86820592  0.37022775  0.11930552  1
  O  O431  1  0.86613674  0.37086476  0.61905843  1
  O  O432  1  0.87038292  0.86938326  0.12176902  1
  O  O433  1  0.86919185  0.86710339  0.62500650  1
  O  O434  1  0.13446356  0.13567720  0.37518273  1
  O  O435  1  0.12877841  0.12943444  0.88055839  1
  O  O436  1  0.13442591  0.63090066  0.37557123  1
  O  O437  1  0.13053585  0.63062782  0.87461927  1
  O  O438  1  0.62205813  0.13453159  0.38316393  1
  O  O439  1  0.63233826  0.13046679  0.87543715  1
  O  O440  1  0.63376301  0.63304561  0.37531118  1
  O  O441  1  0.63344129  0.62819013  0.87321299  1
