# generated using pymatgen
data_V93Zn93O256
_symmetry_space_group_name_H-M   'P 1'
_cell_length_a   17.04052531
_cell_length_b   17.04031179
_cell_length_c   17.04131956
_cell_angle_alpha   89.96095029
_cell_angle_beta   90.03473842
_cell_angle_gamma   90.01663864
_symmetry_Int_Tables_number   1
_chemical_formula_structural   V93Zn93O256
_chemical_formula_sum   'V93 Zn93 O256'
_cell_volume   4948.38563033
_cell_formula_units_Z   1
loop_
 _symmetry_equiv_pos_site_id
 _symmetry_equiv_pos_as_xyz
  1  'x, y, z'
loop_
 _atom_site_type_symbol
 _atom_site_label
 _atom_site_symmetry_multiplicity
 _atom_site_fract_x
 _atom_site_fract_y
 _atom_site_fract_z
 _atom_site_occupancy
  V  V0  1  0.25035539  0.12434173  0.37512228  1
  V  V1  1  0.25012704  0.87417311  0.62574277  1
  V  V2  1  0.37533809  0.74833651  0.62631239  1
  V  V3  1  0.37576208  0.12568069  0.75071337  1
  V  V4  1  0.25107184  0.37538348  0.62323557  1
  V  V5  1  0.12380011  0.12479902  0.00148537  1
  V  V6  1  0.49997959  0.12609961  0.12830947  1
  V  V7  1  0.24198814  0.74468885  0.50098170  1
  V  V8  1  0.75157364  0.62584565  0.87373283  1
  V  V9  1  0.75053300  0.75016373  0.00062658  1
  V  V10  1  0.62579745  0.37984198  0.24229659  1
  V  V11  1  0.87440805  0.74553043  0.12876628  1
  V  V12  1  0.37436841  0.87411276  0.50050802  1
  V  V13  1  0.12523492  0.00007678  0.62641353  1
  V  V14  1  0.62518176  0.75019441  0.87505691  1
  V  V15  1  0.12581096  0.87338374  0.75394614  1
  V  V16  1  0.87578428  0.50383149  0.36735045  1
  V  V17  1  0.00361718  0.62621636  0.62041730  1
  V  V18  1  0.50134582  0.25090277  0.75102942  1
  V  V19  1  0.62297759  0.87489703  0.25101797  1
  V  V20  1  0.24953095  0.49972382  0.24832469  1
  V  V21  1  -0.00046405  -0.00106827  0.50103063  1
  V  V22  1  0.00022819  0.24910841  0.74820974  1
  V  V23  1  0.62526045  0.12630298  0.00126549  1
  V  V24  1  0.50326121  0.62188732  0.12375261  1
  V  V25  1  0.50407358  0.50045663  0.00085457  1
  V  V26  1  0.50142833  0.87450188  0.87634695  1
  V  V27  1  0.00478184  0.50528838  0.49656280  1
  V  V28  1  0.62556447  0.25037333  0.87453800  1
  V  V29  1  0.12504629  0.62709922  -0.00692976  1
  V  V30  1  0.87585866  -0.00108135  0.87632386  1
  V  V31  1  0.49995706  0.62155571  0.61886876  1
  V  V32  1  0.00507863  0.74931863  0.75366691  1
  V  V33  1  0.49878493  0.87296790  0.37622863  1
  V  V34  1  0.00076717  0.37447014  0.37237471  1
  V  V35  1  0.37141270  0.74905096  0.12514404  1
  V  V36  1  0.37647599  0.25061804  0.62401300  1
  V  V37  1  0.12539527  0.50093097  0.62025990  1
  V  V38  1  0.87934704  0.50045009  0.87567895  1
  V  V39  1  -0.00168357  0.87332572  0.37621181  1
  V  V40  1  0.49999355  0.00019655  0.00211973  1
  V  V41  1  0.75141687  0.12506470  0.87488266  1
  V  V42  1  0.12542090  0.37455421  0.74834292  1
  V  V43  1  0.25032729  0.12519423  0.87633787  1
  V  V44  1  0.24220293  0.62363456  0.37930339  1
  V  V45  1  0.87277037  0.00001310  0.37590847  1
  V  V46  1  0.62558447  -0.00016361  0.12704346  1
  V  V47  1  0.37542550  0.37593678  0.00042248  1
  V  V48  1  0.37405572  0.87516941  0.00201122  1
  V  V49  1  0.88009222  0.38054988  -0.00114145  1
  V  V50  1  0.50082186  0.37598850  0.87469649  1
  V  V51  1  0.62592823  -0.00104442  0.62664058  1
  V  V52  1  0.00016382  0.37815453  0.87456962  1
  V  V53  1  0.62475772  0.12538355  0.50006076  1
  V  V54  1  0.12568469  0.12461929  0.49993562  1
  V  V55  1  0.75222430  0.62569551  0.36974619  1
  V  V56  1  0.37463849  0.12556057  0.25160100  1
  V  V57  1  0.87709730  0.62530501  0.74908945  1
  V  V58  1  0.62503663  0.62286970  0.00001676  1
  V  V59  1  0.50041661  0.74885860  0.75087079  1
  V  V60  1  0.62380522  0.25237695  0.37325656  1
  V  V61  1  0.74843431  0.50271082  0.24252984  1
  V  V62  1  0.49762472  0.75036552  0.24965639  1
  V  V63  1  0.12435794  0.25042134  0.37352990  1
  V  V64  1  0.00451605  0.87122744  0.87778134  1
  V  V65  1  -0.00075563  0.12276508  0.12366839  1
  V  V66  1  0.24815593  -0.00117430  0.25157398  1
  V  V67  1  0.38415768  0.37916813  0.49847727  1
  V  V68  1  0.12316781  0.49918401  0.11852686  1
  V  V69  1  0.74983042  0.87377853  0.62648325  1
  V  V70  1  0.74793562  0.74706370  0.50037276  1
  V  V71  1  0.37658378  0.00129615  0.87695955  1
  V  V72  1  -0.00090771  0.62168321  0.12081232  1
  V  V73  1  -0.00023314  0.12572636  0.62639404  1
  V  V74  1  0.38064338  0.50101211  0.37766492  1
  V  V75  1  0.25104762  -0.00035632  0.75100279  1
  V  V76  1  0.87286766  0.12598992  0.25013953  1
  V  V77  1  0.12407382  0.87284153  0.25097480  1
  V  V78  1  0.75209354  0.25063383  0.50001654  1
  V  V79  1  -0.00342993  0.74286093  0.25133485  1
  V  V80  1  0.12533073  0.25025680  0.87470354  1
  V  V81  1  0.37445772  0.25042657  0.12621792  1
  V  V82  1  0.75125941  0.50167840  0.74779024  1
  V  V83  1  0.24591574  0.75046241  -0.00770889  1
  V  V84  1  0.49911304  -0.00202522  0.50094835  1
  V  V85  1  0.75229970  0.37618208  0.62457775  1
  V  V86  1  0.62293489  0.50114457  0.61721785  1
  V  V87  1  0.50094231  0.12464969  0.62576674  1
  V  V88  1  0.25099264  0.25090825  0.00092904  1
  V  V89  1  0.74941546  0.87409869  0.12619409  1
  V  V90  1  0.25236051  0.50115624  0.75126573  1
  V  V91  1  0.25100683  0.25017754  0.49912159  1
  V  V92  1  0.87167518  0.25272791  0.12316503  1
  Zn  Zn93  1  0.74600491  0.38300338  0.11829630  1
  Zn  Zn94  1  0.74867656  0.12423320  0.37520205  1
  Zn  Zn95  1  0.37436378  -0.00068273  0.37589540  1
  Zn  Zn96  1  0.61936237  0.62021919  0.49447259  1
  Zn  Zn97  1  0.62286568  0.74762010  0.37486611  1
  Zn  Zn98  1  0.87634398  0.24924035  0.62523585  1
  Zn  Zn99  1  0.87467666  0.12527603  0.74891690  1
  Zn  Zn100  1  0.74988728  -0.00180991  0.75083973  1
  Zn  Zn101  1  0.37428302  0.62432389  0.25075911  1
  Zn  Zn102  1  0.24672181  0.87521342  0.12642450  1
  Zn  Zn103  1  0.00061821  0.25085366  0.24962760  1
  Zn  Zn104  1  0.37567786  0.62439900  0.75219520  1
  Zn  Zn105  1  0.00146642  -0.00335240  0.00127608  1
  Zn  Zn106  1  0.37492262  0.50327886  0.87531523  1
  Zn  Zn107  1  0.87408810  0.87433822  0.50173192  1
  Zn  Zn108  1  0.74778985  -0.00109788  0.25197932  1
  Zn  Zn109  1  0.87622498  0.37551645  0.49835428  1
  Zn  Zn110  1  0.12510378  0.37194655  0.24496267  1
  Zn  Zn111  1  0.87694684  0.87466895  0.00244582  1
  Zn  Zn112  1  0.12409300  -0.00142722  0.12521502  1
  Zn  Zn113  1  0.24885165  0.62829950  0.87177823  1
  Zn  Zn114  1  0.11870089  0.74272324  0.38071447  1
  Zn  Zn115  1  0.24925060  0.37538156  0.12448673  1
  Zn  Zn116  1  0.62542470  0.37676008  0.74986677  1
  Zn  Zn117  1  0.62602298  0.87575048  0.75217887  1
  Zn  Zn118  1  0.50563392  0.38469415  0.37626326  1
  Zn  Zn119  1  0.87589811  0.75120577  0.62458143  1
  Zn  Zn120  1  0.49898412  0.25516688  0.25121386  1
  Zn  Zn121  1  0.74918117  0.25456554  -0.00194079  1
  Zn  Zn122  1  0.18750142  0.18739484  0.18855045  1
  Zn  Zn123  1  0.18824002  0.18761518  0.68701758  1
  Zn  Zn124  1  0.18482278  0.68513592  0.18745457  1
  Zn  Zn125  1  0.18546623  0.68595827  0.68694942  1
  Zn  Zn126  1  0.68802853  0.18982307  0.18807129  1
  Zn  Zn127  1  0.68823009  0.18747974  0.68900126  1
  Zn  Zn128  1  0.68464641  0.68837143  0.18831006  1
  Zn  Zn129  1  0.68439728  0.68696014  0.68717368  1
  Zn  Zn130  1  0.31276361  0.31473407  0.31304333  1
  Zn  Zn131  1  0.31397604  0.31431562  0.81363210  1
  Zn  Zn132  1  0.31093271  0.81071104  0.31517143  1
  Zn  Zn133  1  0.31621183  0.81344349  0.81261895  1
  Zn  Zn134  1  0.81163721  0.31643383  0.31020663  1
  Zn  Zn135  1  0.81421607  0.31196190  0.81033002  1
  Zn  Zn136  1  0.81163730  0.81235246  0.31195285  1
  Zn  Zn137  1  0.81694622  0.81166587  0.81127492  1
  Zn  Zn138  1  0.18910101  0.43594195  0.43583105  1
  Zn  Zn139  1  0.18714585  0.43748239  0.93696538  1
  Zn  Zn140  1  0.18585065  0.93485367  0.43712466  1
  Zn  Zn141  1  0.18676879  0.93892728  0.94039788  1
  Zn  Zn142  1  0.68975602  0.43725644  0.43449406  1
  Zn  Zn143  1  0.68935328  0.43825693  0.93608555  1
  Zn  Zn144  1  0.68568480  0.93495395  0.43898490  1
  Zn  Zn145  1  0.68773920  0.93765965  0.94072995  1
  Zn  Zn146  1  0.31048611  0.06212969  0.06689312  1
  Zn  Zn147  1  0.31321605  0.06192211  0.56292563  1
  Zn  Zn148  1  0.31258774  0.56344768  0.05962787  1
  Zn  Zn149  1  0.31449607  0.56284782  0.56263798  1
  Zn  Zn150  1  0.81166553  0.06096155  0.06059756  1
  Zn  Zn151  1  0.81259322  0.06296586  0.56372627  1
  Zn  Zn152  1  0.81540156  0.56434133  0.05914834  1
  Zn  Zn153  1  0.81656709  0.56260212  0.55811373  1
  Zn  Zn154  1  0.43755367  0.43736058  0.18863740  1
  Zn  Zn155  1  0.43890019  0.43793830  0.68656017  1
  Zn  Zn156  1  0.43542863  0.93805189  0.18905056  1
  Zn  Zn157  1  0.43855328  0.93541626  0.68870718  1
  Zn  Zn158  1  0.93682390  0.43889121  0.18677655  1
  Zn  Zn159  1  0.93793271  0.43786594  0.68692012  1
  Zn  Zn160  1  0.93613528  0.93512501  0.19044241  1
  Zn  Zn161  1  0.93536894  0.93792053  0.69033045  1
  Zn  Zn162  1  0.06102972  0.06163841  0.31242084  1
  Zn  Zn163  1  0.06188036  0.06133658  0.81370932  1
  Zn  Zn164  1  0.06426514  0.55996470  0.30697567  1
  Zn  Zn165  1  0.06399744  0.56070248  0.80924627  1
  Zn  Zn166  1  0.56074029  0.06219874  0.31465996  1
  Zn  Zn167  1  0.56479982  0.06166282  0.81259926  1
  Zn  Zn168  1  0.56585929  0.56554514  0.30873548  1
  Zn  Zn169  1  0.56361537  0.56181481  0.80896033  1
  Zn  Zn170  1  0.43911943  0.18847931  0.43665579  1
  Zn  Zn171  1  0.43891144  0.18878776  0.93956635  1
  Zn  Zn172  1  0.43116676  0.68715599  0.43716309  1
  Zn  Zn173  1  0.43361203  0.68580175  0.93568735  1
  Zn  Zn174  1  0.93803957  0.18654743  0.43850144  1
  Zn  Zn175  1  0.93751058  0.19061132  0.93772091  1
  Zn  Zn176  1  0.93149459  0.68720682  0.43807864  1
  Zn  Zn177  1  0.93758816  0.68806972  0.93976834  1
  Zn  Zn178  1  0.06058717  0.31144786  0.06100483  1
  Zn  Zn179  1  0.06235772  0.31392063  0.55975791  1
  Zn  Zn180  1  0.06261641  0.80926712  0.06371949  1
  Zn  Zn181  1  0.06200279  0.81457673  0.56584500  1
  Zn  Zn182  1  0.56089202  0.31141753  0.06181765  1
  Zn  Zn183  1  0.56572349  0.31292643  0.56391728  1
  Zn  Zn184  1  0.56243563  0.81049293  0.06299299  1
  Zn  Zn185  1  0.56412586  0.81002093  0.56300976  1
  O  O186  1  0.11325049  0.12636946  0.12140216  1
  O  O187  1  0.12145282  0.11916576  0.61962355  1
  O  O188  1  0.11827526  0.61820017  0.11666456  1
  O  O189  1  0.11042067  0.61765852  0.62925118  1
  O  O190  1  0.62075246  0.12077223  0.12138163  1
  O  O191  1  0.62010499  0.12013500  0.62008366  1
  O  O192  1  0.61063411  0.63345138  0.11648810  1
  O  O193  1  0.61792803  0.61749868  0.62183844  1
  O  O194  1  0.37690976  0.38323851  0.38236570  1
  O  O195  1  0.38325256  0.37616022  0.88258365  1
  O  O196  1  0.38027172  0.87560053  0.38271782  1
  O  O197  1  0.38149713  0.88232400  0.88217136  1
  O  O198  1  0.88403109  0.38366545  0.37545077  1
  O  O199  1  0.87940671  0.37957976  0.88041969  1
  O  O200  1  0.87953933  0.88509734  0.37507850  1
  O  O201  1  0.88447208  0.88226414  0.87624497  1
  O  O202  1  0.25003866  0.00633225  0.37026375  1
  O  O203  1  0.25676588  0.00553893  0.87107659  1
  O  O204  1  0.25571168  0.50538486  0.36841222  1
  O  O205  1  0.24956977  0.49831523  0.86104153  1
  O  O206  1  0.76040017  0.00141697  0.37583426  1
  O  O207  1  0.75722761  0.00711936  0.87671526  1
  O  O208  1  0.75792623  0.50641947  0.36813135  1
  O  O209  1  0.75692576  0.50706064  0.86771262  1
  O  O210  1  0.24313401  0.50147479  0.13261280  1
  O  O211  1  0.24530049  0.49490193  0.62999685  1
  O  O212  1  0.24583673  0.99642603  0.13547130  1
  O  O213  1  0.24553275  0.99471789  0.63149859  1
  O  O214  1  0.75932814  0.50301402  0.13843556  1
  O  O215  1  0.74583100  0.49425875  0.62708019  1
  O  O216  1  0.74356962  0.99324515  0.12649231  1
  O  O217  1  0.74447224  0.99060356  0.62449663  1
  O  O218  1  0.00156877  0.37489701  0.26168930  1
  O  O219  1  0.00703470  0.36919825  0.75236208  1
  O  O220  1  0.00553829  0.86517542  0.25590704  1
  O  O221  1  0.00468884  0.86767249  0.75661207  1
  O  O222  1  0.51091025  0.37565824  0.25353045  1
  O  O223  1  0.50159880  0.36813438  0.75549071  1
  O  O224  1  0.50279607  0.86978546  0.25552502  1
  O  O225  1  0.50122482  0.86810766  0.75874649  1
  O  O226  1  0.49340057  0.12759888  0.24528466  1
  O  O227  1  0.49466187  0.13009103  0.74564948  1
  O  O228  1  0.49773180  0.63052561  0.23891811  1
  O  O229  1  0.49970175  0.63134851  0.73949617  1
  O  O230  1  0.98882633  0.12638736  0.24242903  1
  O  O231  1  1.00204157  0.13137032  0.74399645  1
  O  O232  1  1.00750883  0.63604331  0.23925645  1
  O  O233  1  0.99736543  0.63190105  0.74320536  1
  O  O234  1  0.37040901  0.25500304  0.00580908  1
  O  O235  1  0.37053818  0.25754571  0.50437640  1
  O  O236  1  0.36752118  0.75505363  0.00794206  1
  O  O237  1  0.36386243  0.75554469  0.50710885  1
  O  O238  1  0.87279213  0.25906397  0.00732094  1
  O  O239  1  0.86301664  0.25089424  0.50062521  1
  O  O240  1  0.86841457  0.75154388  0.01070458  1
  O  O241  1  0.86151145  0.75231569  0.50293780  1
  O  O242  1  0.13140721  0.24454422  0.49434591  1
  O  O243  1  0.13071574  0.24468829  0.99391440  1
  O  O244  1  0.13798231  0.75547171  0.50050379  1
  O  O245  1  0.13660054  0.74034960  1.00864502  1
  O  O246  1  0.63320982  0.24659767  0.49340174  1
  O  O247  1  0.62634504  0.24369372  0.99316683  1
  O  O248  1  0.63744542  0.74683472  0.49715343  1
  O  O249  1  0.63086329  0.74372494  0.99424339  1
  O  O250  1  0.49270769  0.24271190  0.12695719  1
  O  O251  1  0.49640793  0.24429746  0.63012281  1
  O  O252  1  0.48962041  0.74302651  0.12756506  1
  O  O253  1  0.49573816  0.74311708  0.63068997  1
  O  O254  1  0.98900369  0.24100806  0.12625219  1
  O  O255  1  1.00091969  0.24453259  0.62919693  1
  O  O256  1  0.99304324  0.74283034  0.13258553  1
  O  O257  1  0.99877273  0.74253032  0.63199061  1
  O  O258  1  0.00421761  0.25917286  0.37606687  1
  O  O259  1  0.00700977  0.25608486  0.86859734  1
  O  O260  1  -0.00238358  0.75176603  0.36755098  1
  O  O261  1  -0.00586583  0.75949654  0.86516324  1
  O  O262  1  0.51447248  0.25345838  0.37531959  1
  O  O263  1  0.50565366  0.25509867  0.87067406  1
  O  O264  1  0.49787872  0.75413462  0.36829571  1
  O  O265  1  0.50505258  0.75475963  0.87217252  1
  O  O266  1  0.24504408  0.13027376  0.49631022  1
  O  O267  1  0.24519516  0.13038506  0.99512859  1
  O  O268  1  0.25438986  0.63417553  0.49321948  1
  O  O269  1  0.24258556  0.63361986  0.99856554  1
  O  O270  1  0.74342993  0.13533792  0.50035557  1
  O  O271  1  0.74438258  0.12693672  0.98993441  1
  O  O272  1  0.74955822  0.63140489  0.49036267  1
  O  O273  1  0.74483511  0.62983422  0.99377553  1
  O  O274  1  0.25664263  0.36819106  0.00018879  1
  O  O275  1  0.25864153  0.36890854  0.50426336  1
  O  O276  1  0.25454526  0.86780730  0.00387426  1
  O  O277  1  0.25390042  0.86736575  0.50649369  1
  O  O278  1  0.76179238  0.37452572  0.00079497  1
  O  O279  1  0.75113544  0.36708718  0.50724335  1
  O  O280  1  0.75068639  0.86680396  0.00858375  1
  O  O281  1  0.74993839  0.86581266  0.50866754  1
  O  O282  1  0.13437630  0.49878189  0.23819646  1
  O  O283  1  0.13307798  0.49319366  0.74113971  1
  O  O284  1  0.12787315  0.98941036  0.25115811  1
  O  O285  1  0.13253334  0.99498686  0.74603733  1
  O  O286  1  0.63624820  0.49044523  0.25572865  1
  O  O287  1  0.63441280  0.49939801  0.73836080  1
  O  O288  1  0.62524263  0.99415596  0.24444439  1
  O  O289  1  0.62801732  0.99670969  0.74273888  1
  O  O290  1  0.36712464  0.00654538  0.25288195  1
  O  O291  1  0.37074704  0.00555622  0.75631189  1
  O  O292  1  0.36478033  0.50097957  0.25728893  1
  O  O293  1  0.36233402  0.49856947  0.74848066  1
  O  O294  1  0.87430216  0.00790430  0.25950654  1
  O  O295  1  0.87216345  0.00248472  0.76400538  1
  O  O296  1  0.86653440  0.49565200  0.26098948  1
  O  O297  1  0.87025948  0.50655529  0.75417416  1
  O  O298  1  0.11596360  0.36962662  0.37336834  1
  O  O299  1  0.12031738  0.36959089  0.86910336  1
  O  O300  1  0.11671816  0.87074880  0.36625793  1
  O  O301  1  0.11302399  0.88268308  0.86916670  1
  O  O302  1  0.62510644  0.36881269  0.36722448  1
  O  O303  1  0.61958068  0.36883838  0.87254561  1
  O  O304  1  0.61690419  0.87219631  0.36953536  1
  O  O305  1  0.61890952  0.86868730  0.87679900  1
  O  O306  1  0.38010042  0.13064155  0.13131414  1
  O  O307  1  0.38056774  0.13077623  0.63054413  1
  O  O308  1  0.38349318  0.63506098  0.12341233  1
  O  O309  1  0.38341622  0.62953568  0.62782250  1
  O  O310  1  0.88013836  0.13154972  0.13005628  1
  O  O311  1  0.88372136  0.12665043  0.62790330  1
  O  O312  1  0.88574909  0.63545148  0.11817798  1
  O  O313  1  0.88763559  0.62390155  0.63052383  1
  O  O314  1  0.25586323  0.25065279  0.11832717  1
  O  O315  1  0.25679778  0.25516878  0.61951434  1
  O  O316  1  0.25906590  0.74939663  0.11910874  1
  O  O317  1  0.25366634  0.75378942  0.61985707  1
  O  O318  1  0.76322927  0.25219247  0.12276729  1
  O  O319  1  0.74845885  0.25871909  0.61678255  1
  O  O320  1  0.75736123  0.75175987  0.12230053  1
  O  O321  1  0.74971103  0.75589489  0.61781750  1
  O  O322  1  0.24484108  0.24446963  0.38022857  1
  O  O323  1  0.24517312  0.24436218  0.87971961  1
  O  O324  1  0.24827101  0.74048130  0.38390416  1
  O  O325  1  0.25455280  0.75132635  0.88850764  1
  O  O326  1  0.74178751  0.25143034  0.38380604  1
  O  O327  1  0.74546910  0.24100826  0.87477008  1
  O  O328  1  0.75084044  0.74141284  0.38064559  1
  O  O329  1  0.74701396  0.74490228  0.87983501  1
  O  O330  1  0.00458857  0.12584179  0.00934904  1
  O  O331  1  0.00696710  0.11906884  0.50551733  1
  O  O332  1  0.01054009  0.63395820  0.01184236  1
  O  O333  1  -0.00547961  0.61663386  0.50757022  1
  O  O334  1  0.50527060  0.11937221  0.00685731  1
  O  O335  1  0.50502663  0.12013746  0.50668060  1
  O  O336  1  0.50405314  0.61931842  0.00466039  1
  O  O337  1  0.49968401  0.63203213  0.51423793  1
  O  O338  1  0.48783666  0.37077852  0.49886827  1
  O  O339  1  0.49661981  0.38355441  0.99592743  1
  O  O340  1  0.49430209  0.87777342  0.49680716  1
  O  O341  1  0.49423682  0.88047017  0.99640697  1
  O  O342  1  0.99839328  0.38438293  0.48892491  1
  O  O343  1  0.98832778  0.36915327  0.99063811  1
  O  O344  1  0.99794020  0.88082698  0.49507219  1
  O  O345  1  0.99978558  0.87328432  0.99073571  1
  O  O346  1  0.48447191  0.50558106  0.36851671  1
  O  O347  1  0.49929419  0.49507194  0.88225729  1
  O  O348  1  0.49797121  0.99244704  0.38400829  1
  O  O349  1  0.49571713  0.99635118  0.88267521  1
  O  O350  1  0.99561469  0.49629169  0.37738657  1
  O  O351  1  0.99184501  0.49050288  0.86446832  1
  O  O352  1  0.99134551  0.99514450  0.38045674  1
  O  O353  1  0.99201956  0.99092963  0.87578341  1
  O  O354  1  -0.00239316  0.01183320  0.12487752  1
  O  O355  1  0.00606014  0.00408618  0.62166330  1
  O  O356  1  0.00935823  0.51176283  0.13300018  1
  O  O357  1  0.00399808  0.50562148  0.61563505  1
  O  O358  1  0.50486830  0.00568609  0.12088755  1
  O  O359  1  0.50473006  0.00503575  0.62073996  1
  O  O360  1  0.49231167  0.51223529  0.11480245  1
  O  O361  1  0.51061825  0.50909499  0.63129119  1
  O  O362  1  0.24734161  0.38737384  0.24839803  1
  O  O363  1  0.24553557  0.38072040  0.74299970  1
  O  O364  1  0.23917059  0.87797074  0.25227394  1
  O  O365  1  0.24655184  0.88003660  0.74606729  1
  O  O366  1  0.74339195  0.38530712  0.24674108  1
  O  O367  1  0.75025195  0.38090274  0.73919345  1
  O  O368  1  0.74176730  0.87515570  0.24366856  1
  O  O369  1  0.74861583  0.87362511  0.73906175  1
  O  O370  1  0.25418900  0.11934806  0.25656274  1
  O  O371  1  0.25616084  0.11999866  0.75579949  1
  O  O372  1  0.25097607  0.61575429  0.25753551  1
  O  O373  1  0.24830178  0.61374549  0.74982393  1
  O  O374  1  0.76245190  0.12333092  0.25141810  1
  O  O375  1  0.75126756  0.12248284  0.76311077  1
  O  O376  1  0.74229806  0.61733899  0.26012536  1
  O  O377  1  0.75701221  0.62222250  0.75408837  1
  O  O378  1  0.36823068  0.12456503  0.37059165  1
  O  O379  1  0.37068205  0.12091204  0.87078713  1
  O  O380  1  0.36260732  0.61682682  0.37354932  1
  O  O381  1  0.36847673  0.62087526  0.86984815  1
  O  O382  1  0.87544812  0.11760851  0.36688532  1
  O  O383  1  0.86777968  0.11755844  0.87671432  1
  O  O384  1  0.86449304  0.61482492  0.37652640  1
  O  O385  1  0.87139327  0.62075472  0.87015800  1
  O  O386  1  0.12484567  0.38530290  0.12325441  1
  O  O387  1  0.13156306  0.38033645  0.62809923  1
  O  O388  1  0.12271262  0.87553344  0.13912376  1
  O  O389  1  0.13088761  0.88154576  0.63327908  1
  O  O390  1  0.62819440  0.36729057  0.13738685  1
  O  O391  1  0.63534400  0.38244278  0.62619490  1
  O  O392  1  0.62835956  0.87986675  0.13050327  1
  O  O393  1  0.63418266  0.87986442  0.62586618  1
  O  O394  1  0.12121783  0.25199376  0.25741048  1
  O  O395  1  0.12209246  0.25587608  0.75500930  1
  O  O396  1  0.11511780  0.75693967  0.25206314  1
  O  O397  1  0.11291051  0.75624308  0.74539306  1
  O  O398  1  0.62770778  0.25894892  0.25957097  1
  O  O399  1  0.61828676  0.25100054  0.75641985  1
  O  O400  1  0.61519863  0.75739398  0.25098296  1
  O  O401  1  0.61861934  0.75139652  0.75840874  1
  O  O402  1  0.37569999  0.24462458  0.24509821  1
  O  O403  1  0.38049778  0.24505847  0.74419181  1
  O  O404  1  0.37791740  0.74897516  0.24007804  1
  O  O405  1  0.38168182  0.74940787  0.74283311  1
  O  O406  1  0.87573018  0.24298143  0.24232857  1
  O  O407  1  0.88474863  0.24716779  0.74675190  1
  O  O408  1  0.88494531  0.75355124  0.24057331  1
  O  O409  1  0.88762742  0.74362794  0.74667669  1
  O  O410  1  0.36722663  0.48935336  0.49011702  1
  O  O411  1  0.38515438  0.49479342  0.99775949  1
  O  O412  1  0.38091131  0.99238949  0.50073195  1
  O  O413  1  0.37985829  0.99593203  0.99674531  1
  O  O414  1  0.88631803  0.49810931  0.48701866  1
  O  O415  1  0.87191326  0.48963679  0.99203721  1
  O  O416  1  0.88080617  1.00103984  0.49020023  1
  O  O417  1  0.87833528  0.99650203  0.98916533  1
  O  O418  1  0.12199689  0.00887973  0.00511607  1
  O  O419  1  0.12017510  0.00439765  0.50645334  1
  O  O420  1  0.13333655  0.50971133  0.01176181  1
  O  O421  1  0.11265499  0.49450604  0.50320831  1
  O  O422  1  0.61898223  0.00596101  0.00740512  1
  O  O423  1  0.61876738  0.00553452  0.50610471  1
  O  O424  1  0.61278461  0.50580665  -0.00501597  1
  O  O425  1  0.63111841  0.50005344  0.51286103  1
  O  O426  1  0.37392165  0.36864876  0.11819365  1
  O  O427  1  0.37128114  0.37051234  0.61686443  1
  O  O428  1  0.37487076  0.86424667  0.11998894  1
  O  O429  1  0.36891663  0.86902149  0.62088380  1
  O  O430  1  0.87790992  0.36844642  0.11628215  1
  O  O431  1  0.86358075  0.37516764  0.62118169  1
  O  O432  1  0.86988023  0.86370981  0.12524847  1
  O  O433  1  0.86362997  0.87440221  0.62344252  1
  O  O434  1  0.12902445  0.12980319  0.38098951  1
  O  O435  1  0.13078321  0.13026010  0.88037375  1
  O  O436  1  0.13769043  0.62327618  0.37176750  1
  O  O437  1  0.12497002  0.61752950  0.88904912  1
  O  O438  1  0.62698920  0.13447174  0.38046469  1
  O  O439  1  0.63249314  0.12887588  0.88103507  1
  O  O440  1  0.63574649  0.62608523  0.37795821  1
  O  O441  1  0.63203997  0.63022517  0.87951644  1
