# generated using pymatgen
data_V93Zn93O256
_symmetry_space_group_name_H-M   'P 1'
_cell_length_a   17.04177938
_cell_length_b   17.04415118
_cell_length_c   17.04549379
_cell_angle_alpha   90.01599530
_cell_angle_beta   90.01795849
_cell_angle_gamma   90.07348459
_symmetry_Int_Tables_number   1
_chemical_formula_structural   V93Zn93O256
_chemical_formula_sum   'V93 Zn93 O256'
_cell_volume   4951.07502667
_cell_formula_units_Z   1
loop_
 _symmetry_equiv_pos_site_id
 _symmetry_equiv_pos_as_xyz
  1  'x, y, z'
loop_
 _atom_site_type_symbol
 _atom_site_label
 _atom_site_symmetry_multiplicity
 _atom_site_fract_x
 _atom_site_fract_y
 _atom_site_fract_z
 _atom_site_occupancy
  V  V0  1  0.86990025  0.61942942  0.24812840  1
  V  V1  1  -0.00084824  0.74978905  0.24950338  1
  V  V2  1  0.12695865  0.24965884  0.87461862  1
  V  V3  1  0.87288482  0.87483031  -0.00152559  1
  V  V4  1  0.75247532  0.38111438  0.12789791  1
  V  V5  1  0.87607137  0.37510675  0.49871156  1
  V  V6  1  0.25118469  0.25021147  0.00016618  1
  V  V7  1  0.62476425  -0.00085498  0.12467205  1
  V  V8  1  0.62470010  0.12430873  0.50053026  1
  V  V9  1  0.12527871  0.37525808  0.25030859  1
  V  V10  1  0.62275996  0.49994957  0.11967098  1
  V  V11  1  0.25050580  0.50108497  0.25057046  1
  V  V12  1  0.37954586  0.63181119  0.75207474  1
  V  V13  1  0.62628153  0.37376087  0.75049061  1
  V  V14  1  0.87312556  -0.00052663  0.87331791  1
  V  V15  1  0.12512333  0.12493172  -0.00081396  1
  V  V16  1  0.37425688  0.87568778  0.00078897  1
  V  V17  1  0.12501643  0.12326284  0.49847945  1
  V  V18  1  0.75076652  0.49902513  0.74904049  1
  V  V19  1  -0.00000589  0.12270131  0.61972499  1
  V  V20  1  0.00203954  0.37471935  0.37332483  1
  V  V21  1  0.12614587  0.50447239  0.12260858  1
  V  V22  1  -0.00161790  0.87733435  0.37684385  1
  V  V23  1  0.87383962  0.87663199  0.49958745  1
  V  V24  1  0.00582507  0.50541189  -0.00182632  1
  V  V25  1  0.00124154  0.50012158  0.49894285  1
  V  V26  1  0.74990731  0.62317110  0.87518437  1
  V  V27  1  0.49908940  0.86796550  0.87387983  1
  V  V28  1  0.63058237  0.38147917  0.25069956  1
  V  V29  1  0.49730172  0.87337106  0.37846316  1
  V  V30  1  0.75070894  0.24990685  0.00037869  1
  V  V31  1  0.37618831  0.50082350  0.37784735  1
  V  V32  1  0.25107609  0.25093680  0.49965690  1
  V  V33  1  0.62568594  0.25019421  0.37472524  1
  V  V34  1  0.25279636  0.75735340  0.50065180  1
  V  V35  1  0.50072067  0.37552713  0.37650983  1
  V  V36  1  0.12386319  0.74550620  0.87863315  1
  V  V37  1  0.87456822  0.12396452  0.74926977  1
  V  V38  1  0.12694266  0.37572105  0.74920342  1
  V  V39  1  0.12409268  0.75061098  0.37547493  1
  V  V40  1  0.12637882  0.50058557  0.62488174  1
  V  V41  1  0.24964195  0.00131612  0.25055006  1
  V  V42  1  0.50070847  0.62802756  0.62876301  1
  V  V43  1  0.12417310  0.87485223  0.74954303  1
  V  V44  1  0.50082084  0.12410447  0.62540552  1
  V  V45  1  -0.00170608  0.87330383  0.87380041  1
  V  V46  1  0.37577304  0.62551348  0.25085972  1
  V  V47  1  0.62562755  0.24940220  0.87554072  1
  V  V48  1  0.37569779  0.12453513  0.75262301  1
  V  V49  1  0.12157856  -0.00109976  0.62178696  1
  V  V50  1  0.12521220  0.62691271  0.49961492  1
  V  V51  1  0.00354192  0.62555474  0.12179607  1
  V  V52  1  0.87373753  0.62500552  0.74797248  1
  V  V53  1  0.24782061  0.62550847  0.87847013  1
  V  V54  1  0.87594785  0.24993976  0.12480948  1
  V  V55  1  0.62425554  0.62420353  0.49956642  1
  V  V56  1  0.74881851  0.62170643  0.37212445  1
  V  V57  1  0.62141293  0.86772971  0.74767982  1
  V  V58  1  0.75060834  0.25010570  0.49930796  1
  V  V59  1  0.12422403  0.00035625  0.12410140  1
  V  V60  1  0.37440144  0.75509368  0.62386284  1
  V  V61  1  0.50057470  0.12593937  0.12581953  1
  V  V62  1  0.50165131  0.38020298  0.88016412  1
  V  V63  1  0.37369460  -0.00147026  0.37853919  1
  V  V64  1  0.62580062  0.12469189  -0.00068966  1
  V  V65  1  0.37734536  0.50084817  0.87885362  1
  V  V66  1  0.24869610  0.87508373  0.12519080  1
  V  V67  1  0.87566860  0.12489751  0.24945234  1
  V  V68  1  0.75038014  0.37539408  0.62490395  1
  V  V69  1  0.75105611  0.12471228  0.37433373  1
  V  V70  1  0.62366754  0.87345099  0.25116451  1
  V  V71  1  0.87394266  0.50012908  0.37222142  1
  V  V72  1  -0.00009141  0.37516282  0.87487596  1
  V  V73  1  0.87690389  0.00026646  0.37781765  1
  V  V74  1  0.74789062  0.87369008  0.12449803  1
  V  V75  1  0.87431389  0.74917460  0.12408389  1
  V  V76  1  0.87336858  0.75111465  0.62356521  1
  V  V77  1  0.37697025  0.25150889  0.12592339  1
  V  V78  1  0.87643045  0.24938206  0.62412348  1
  V  V79  1  0.49674651  -0.00337945  0.50200699  1
  V  V80  1  0.24939326  0.00027279  0.75137541  1
  V  V81  1  0.49957528  0.62079841  0.12021817  1
  V  V82  1  -0.00067999  0.62534598  0.62418759  1
  V  V83  1  0.37898370  0.37929639  0.00084717  1
  V  V84  1  0.25094594  0.50126487  0.75025989  1
  V  V85  1  0.25123181  0.37631081  0.12503700  1
  V  V86  1  0.24611816  0.74718190  0.00099489  1
  V  V87  1  0.49924040  -0.00100561  0.00062567  1
  V  V88  1  0.37550221  0.25230275  0.62591544  1
  V  V89  1  0.50112016  0.24966086  0.25041671  1
  V  V90  1  0.37407043  0.74954018  0.12726687  1
  V  V91  1  0.74451054  0.74619535  -0.00168121  1
  V  V92  1  -0.00028275  0.12537298  0.12436162  1
  Zn  Zn93  1  0.25202804  0.37820308  0.62484462  1
  Zn  Zn94  1  0.00306202  0.24995224  0.25008858  1
  Zn  Zn95  1  0.00275744  0.25034806  0.74908541  1
  Zn  Zn96  1  0.87662281  0.49915932  0.87582084  1
  Zn  Zn97  1  0.12610548  0.24935397  0.37311872  1
  Zn  Zn98  1  0.25089891  0.12626815  0.37395873  1
  Zn  Zn99  1  0.25446922  0.87761718  0.62254771  1
  Zn  Zn100  1  0.49931575  0.49856185  0.50315242  1
  Zn  Zn101  1  0.74989585  -0.00039136  0.24922481  1
  Zn  Zn102  1  0.49879258  0.74904621  0.25148103  1
  Zn  Zn103  1  0.74639692  -0.00114486  0.74708443  1
  Zn  Zn104  1  0.62318474  0.49861086  0.62496606  1
  Zn  Zn105  1  0.61728416  0.74333928  0.86984317  1
  Zn  Zn106  1  0.00058444  0.74902374  0.74961738  1
  Zn  Zn107  1  0.12232553  0.87539646  0.24944312  1
  Zn  Zn108  1  -0.00066055  -0.00056718  0.00011628  1
  Zn  Zn109  1  0.87646567  0.37520687  -0.00009153  1
  Zn  Zn110  1  0.50114965  0.25016170  0.75139088  1
  Zn  Zn111  1  0.37540590  0.12641320  0.25085402  1
  Zn  Zn112  1  0.25044324  0.12483331  0.87675512  1
  Zn  Zn113  1  0.62446263  0.74888185  0.37474595  1
  Zn  Zn114  1  0.37491170  -0.00025168  0.87671917  1
  Zn  Zn115  1  0.62677967  0.00029987  0.62745164  1
  Zn  Zn116  1  0.74796935  0.75018863  0.49830852  1
  Zn  Zn117  1  0.74755914  0.87616960  0.62448417  1
  Zn  Zn118  1  0.74932011  0.12492922  0.87406236  1
  Zn  Zn119  1  0.25057419  0.62743011  0.37565406  1
  Zn  Zn120  1  0.61765267  0.61825415  -0.00504683  1
  Zn  Zn121  1  0.37679829  0.37715375  0.50261595  1
  Zn  Zn122  1  0.18719338  0.18803429  0.18655303  1
  Zn  Zn123  1  0.18894028  0.18804741  0.68766479  1
  Zn  Zn124  1  0.18680293  0.68749348  0.19007571  1
  Zn  Zn125  1  0.18942853  0.68792279  0.68942279  1
  Zn  Zn126  1  0.68917860  0.18937652  0.18775628  1
  Zn  Zn127  1  0.68854260  0.18826777  0.68752101  1
  Zn  Zn128  1  0.68554554  0.68681675  0.18745640  1
  Zn  Zn129  1  0.68771144  0.68899824  0.68669269  1
  Zn  Zn130  1  0.31310246  0.31410199  0.31306819  1
  Zn  Zn131  1  0.31263251  0.31394268  0.81355759  1
  Zn  Zn132  1  0.31173682  0.81425956  0.31293130  1
  Zn  Zn133  1  0.31067623  0.81380334  0.81269000  1
  Zn  Zn134  1  0.81489295  0.31089053  0.31091987  1
  Zn  Zn135  1  0.81371214  0.31021653  0.81202537  1
  Zn  Zn136  1  0.81032158  0.80848457  0.31140887  1
  Zn  Zn137  1  0.80813758  0.81126106  0.81029037  1
  Zn  Zn138  1  0.18940572  0.43696810  0.43777720  1
  Zn  Zn139  1  0.18867897  0.43792360  0.93787989  1
  Zn  Zn140  1  0.18618831  0.93711795  0.43729609  1
  Zn  Zn141  1  0.18609210  0.93591867  0.93714261  1
  Zn  Zn142  1  0.68842319  0.44045857  0.43826862  1
  Zn  Zn143  1  0.68874203  0.43654746  0.93935111  1
  Zn  Zn144  1  0.68759488  0.93902156  0.43777755  1
  Zn  Zn145  1  0.68554355  0.93611550  0.93402135  1
  Zn  Zn146  1  0.31309349  0.06390273  0.06373347  1
  Zn  Zn147  1  0.31186455  0.06377455  0.56393079  1
  Zn  Zn148  1  0.31279438  0.56309711  0.06152355  1
  Zn  Zn149  1  0.31129291  0.56812718  0.56244568  1
  Zn  Zn150  1  0.81149290  0.06212022  0.06176388  1
  Zn  Zn151  1  0.80977981  0.05915694  0.56264338  1
  Zn  Zn152  1  0.81594350  0.55886796  0.06010818  1
  Zn  Zn153  1  0.81103573  0.56179325  0.56011164  1
  Zn  Zn154  1  0.43998490  0.43811022  0.19035152  1
  Zn  Zn155  1  0.43975154  0.44033193  0.69244151  1
  Zn  Zn156  1  0.43637078  0.93799181  0.18965104  1
  Zn  Zn157  1  0.44013620  0.93729544  0.69025212  1
  Zn  Zn158  1  0.94020422  0.43798683  0.18637058  1
  Zn  Zn159  1  0.93794492  0.43868800  0.68814261  1
  Zn  Zn160  1  0.93602647  0.93877667  0.18861339  1
  Zn  Zn161  1  0.93880668  0.93732361  0.68741137  1
  Zn  Zn162  1  0.06128969  0.06228750  0.31156525  1
  Zn  Zn163  1  0.06014488  0.06284263  0.81200087  1
  Zn  Zn164  1  0.06188156  0.56364966  0.31058110  1
  Zn  Zn165  1  0.06234147  0.56342181  0.81012503  1
  Zn  Zn166  1  0.56257580  0.06113867  0.31273841  1
  Zn  Zn167  1  0.56214929  0.05685899  0.81368268  1
  Zn  Zn168  1  0.56098583  0.56161200  0.30955055  1
  Zn  Zn169  1  0.56345072  0.55955819  0.81002123  1
  Zn  Zn170  1  0.43753244  0.18499860  0.43720119  1
  Zn  Zn171  1  0.43977563  0.19048925  0.93818159  1
  Zn  Zn172  1  0.43778400  0.68751203  0.44129239  1
  Zn  Zn173  1  0.43244839  0.68805191  0.94131013  1
  Zn  Zn174  1  0.93977844  0.18870311  0.43596665  1
  Zn  Zn175  1  0.93902484  0.18835088  0.93855459  1
  Zn  Zn176  1  0.93675344  0.68841335  0.43707808  1
  Zn  Zn177  1  0.93581622  0.68717611  0.93713826  1
  Zn  Zn178  1  0.06369013  0.31382756  0.06191846  1
  Zn  Zn179  1  0.06344769  0.31170556  0.56268529  1
  Zn  Zn180  1  0.06110262  0.81443118  0.06101805  1
  Zn  Zn181  1  0.06051621  0.81352837  0.56057931  1
  Zn  Zn182  1  0.56445632  0.31259131  0.06221709  1
  Zn  Zn183  1  0.56187965  0.31220467  0.56258666  1
  Zn  Zn184  1  0.55944588  0.80918928  0.06265635  1
  Zn  Zn185  1  0.55965502  0.80900433  0.56207373  1
  O  O186  1  0.11999735  0.12001944  0.11893787  1
  O  O187  1  0.11897364  0.11914050  0.61974472  1
  O  O188  1  0.11590224  0.61746007  0.13251285  1
  O  O189  1  0.11928590  0.62078295  0.62048821  1
  O  O190  1  0.62052169  0.11981474  0.12012732  1
  O  O191  1  0.61826589  0.12591835  0.61874182  1
  O  O192  1  0.61812730  0.61564974  0.12659180  1
  O  O193  1  0.61728321  0.62569043  0.61897334  1
  O  O194  1  0.38193826  0.38511389  0.37548493  1
  O  O195  1  0.38348786  0.37982009  0.87943986  1
  O  O196  1  0.38548720  0.88741921  0.36930681  1
  O  O197  1  0.38171602  0.87604421  0.88088125  1
  O  O198  1  0.87977561  0.38021670  0.37899324  1
  O  O199  1  0.88867599  0.37559539  0.87383298  1
  O  O200  1  0.87848797  0.87980555  0.37940447  1
  O  O201  1  0.87727761  0.88064440  0.87730051  1
  O  O202  1  0.25743884  -0.00126152  0.36886918  1
  O  O203  1  0.25082191  0.00170243  0.86261792  1
  O  O204  1  0.26030408  0.50155117  0.36981247  1
  O  O205  1  0.25555675  0.50601120  0.87003385  1
  O  O206  1  0.75937026  0.00643737  0.37303704  1
  O  O207  1  0.76267255  0.00187969  0.87297830  1
  O  O208  1  0.75791607  0.51291703  0.37927885  1
  O  O209  1  0.75189490  0.50808384  0.87058837  1
  O  O210  1  0.24617852  0.49570669  0.13033152  1
  O  O211  1  0.24473895  0.50124448  0.63122803  1
  O  O212  1  0.24553913  0.99555197  0.13279896  1
  O  O213  1  0.24173144  0.99930935  0.63418472  1
  O  O214  1  0.74378618  0.48784706  0.12190901  1
  O  O215  1  0.74978566  0.49253088  0.63062766  1
  O  O216  1  0.74272819  0.99156600  0.12533852  1
  O  O217  1  0.74516845  0.99348045  0.62744733  1
  O  O218  1  0.00758281  0.37531934  0.25554301  1
  O  O219  1  0.00735756  0.37589132  0.75891494  1
  O  O220  1  -0.00295068  0.86798112  0.25993724  1
  O  O221  1  0.00604013  0.87235778  0.75618564  1
  O  O222  1  0.51074398  0.36908334  0.25592469  1
  O  O223  1  0.50695164  0.37271311  0.76067961  1
  O  O224  1  0.50785440  0.87581895  0.25956858  1
  O  O225  1  0.51064912  0.88005213  0.76142932  1
  O  O226  1  0.50129722  0.13166298  0.24365873  1
  O  O227  1  0.48999757  0.12396490  0.74528796  1
  O  O228  1  0.49415197  0.62781927  0.24059859  1
  O  O229  1  0.48993290  0.62157209  0.74294555  1
  O  O230  1  0.99373744  0.12645394  0.24269062  1
  O  O231  1  0.99097571  0.12624601  0.73920278  1
  O  O232  1  0.99005559  0.63110173  0.24389171  1
  O  O233  1  0.99203896  0.62609706  0.74180992  1
  O  O234  1  0.37100417  0.25744741  0.00645840  1
  O  O235  1  0.36788768  0.24707578  0.50985055  1
  O  O236  1  0.36619832  0.75710638  0.00829817  1
  O  O237  1  0.36361201  0.74276086  0.51091566  1
  O  O238  1  0.86924096  0.25204119  0.00669876  1
  O  O239  1  0.87022105  0.25528808  0.50422419  1
  O  O240  1  0.86386720  0.75396887  0.00409476  1
  O  O241  1  0.87357706  0.75755884  0.50741863  1
  O  O242  1  0.13534111  0.24107761  0.50187771  1
  O  O243  1  0.13203171  0.24532505  0.99539812  1
  O  O244  1  0.13051520  0.74606155  0.49533404  1
  O  O245  1  0.13033444  0.75702333  0.98682029  1
  O  O246  1  0.63090335  0.24484479  0.49376602  1
  O  O247  1  0.63071148  0.24396900  0.99552433  1
  O  O248  1  0.62588018  0.73694056  0.49737201  1
  O  O249  1  0.63685759  0.74601816  0.99955639  1
  O  O250  1  0.49683439  0.24607567  0.13048795  1
  O  O251  1  0.49033820  0.24352192  0.62667167  1
  O  O252  1  0.49213086  0.74141380  0.12838119  1
  O  O253  1  0.48851195  0.73633272  0.61787213  1
  O  O254  1  0.99386687  0.24415808  0.12496384  1
  O  O255  1  0.99499393  0.24033985  0.62637676  1
  O  O256  1  0.99366667  0.74589035  0.12804681  1
  O  O257  1  0.98948451  0.74431361  0.62456441  1
  O  O258  1  0.00400992  0.25921754  0.37263681  1
  O  O259  1  0.00743019  0.25987392  0.87425702  1
  O  O260  1  0.00289810  0.75797995  0.36964469  1
  O  O261  1  0.00728092  0.75390361  0.87368115  1
  O  O262  1  0.50632068  0.25466222  0.37121448  1
  O  O263  1  0.50696019  0.26056394  0.87291435  1
  O  O264  1  0.49933859  0.76203485  0.37511522  1
  O  O265  1  0.50005078  0.76291741  0.88425947  1
  O  O266  1  0.24183552  0.13376641  0.50086915  1
  O  O267  1  0.24457806  0.13210142  0.99927817  1
  O  O268  1  0.24218443  0.63709062  0.49797249  1
  O  O269  1  0.25677782  0.63467506  0.99122481  1
  O  O270  1  0.74537716  0.13092499  0.49432587  1
  O  O271  1  0.74318922  0.13173147  0.99888340  1
  O  O272  1  0.74152385  0.62597058  0.49196440  1
  O  O273  1  0.75070533  0.63058201  0.99196356  1
  O  O274  1  0.25685074  0.36961180  0.00616687  1
  O  O275  1  0.25351426  0.36367652  0.50366756  1
  O  O276  1  0.25474483  0.86937035  0.00586378  1
  O  O277  1  0.24434572  0.86221328  0.50363108  1
  O  O278  1  0.75204008  0.36855198  0.01067771  1
  O  O279  1  0.75630179  0.36979589  0.50402588  1
  O  O280  1  0.75253855  0.86497508  0.00332045  1
  O  O281  1  0.76074365  0.87094954  0.49915879  1
  O  O282  1  0.13103839  0.49532059  0.24430614  1
  O  O283  1  0.13127456  0.49645162  0.74408485  1
  O  O284  1  0.13389809  0.99852049  0.24499796  1
  O  O285  1  0.13166796  0.99795723  0.74193260  1
  O  O286  1  0.62322637  0.48680694  0.24188374  1
  O  O287  1  0.63365868  0.49174800  0.74731411  1
  O  O288  1  0.62603819  0.98923477  0.24462473  1
  O  O289  1  0.62616409  0.98774866  0.74830599  1
  O  O290  1  0.36576229  0.00211595  0.25774085  1
  O  O291  1  0.36616134  0.00843096  0.74852033  1
  O  O292  1  0.37052309  0.50456949  0.25867838  1
  O  O293  1  0.36995102  0.51032510  0.75753657  1
  O  O294  1  0.87110019  0.00542820  0.25994301  1
  O  O295  1  0.87451762  0.00728601  0.75648431  1
  O  O296  1  0.88193178  0.51298334  0.25454016  1
  O  O297  1  0.86839872  0.50702071  0.75167110  1
  O  O298  1  0.11974807  0.37588081  0.36866541  1
  O  O299  1  0.11834199  0.37065963  0.86947764  1
  O  O300  1  0.11264367  0.87162746  0.37512197  1
  O  O301  1  0.11872454  0.86760602  0.86907833  1
  O  O302  1  0.62344119  0.37118505  0.36839524  1
  O  O303  1  0.61924156  0.37086125  0.87168899  1
  O  O304  1  0.61673153  0.87543791  0.36717595  1
  O  O305  1  0.61680299  0.87138488  0.86661020  1
  O  O306  1  0.38298762  0.13327160  0.12660710  1
  O  O307  1  0.37960832  0.13252774  0.63357068  1
  O  O308  1  0.38174165  0.62814835  0.13074575  1
  O  O309  1  0.38096904  0.63179513  0.63376728  1
  O  O310  1  0.87916999  0.12909332  0.12945296  1
  O  O311  1  0.88245929  0.12724203  0.62863976  1
  O  O312  1  0.87955997  0.62906453  0.13122665  1
  O  O313  1  0.87865862  0.63254652  0.62688357  1
  O  O314  1  0.25704452  0.25689767  0.12036140  1
  O  O315  1  0.25976934  0.25024053  0.61754868  1
  O  O316  1  0.25322499  0.75510488  0.12123008  1
  O  O317  1  0.25641144  0.75132589  0.61789765  1
  O  O318  1  0.75484129  0.25899996  0.11959325  1
  O  O319  1  0.75702629  0.25514429  0.61825247  1
  O  O320  1  0.75394313  0.75274687  0.11643957  1
  O  O321  1  0.76257550  0.75289859  0.62209090  1
  O  O322  1  0.25056659  0.24737719  0.38641567  1
  O  O323  1  0.24462754  0.24936336  0.88228396  1
  O  O324  1  0.24413388  0.75138891  0.38336402  1
  O  O325  1  0.24207986  0.74655763  0.88020005  1
  O  O326  1  0.74601942  0.24488152  0.38054095  1
  O  O327  1  0.74421562  0.24922309  0.88225149  1
  O  O328  1  0.74809242  0.73505337  0.37689422  1
  O  O329  1  0.74856370  0.73951117  0.88303234  1
  O  O330  1  0.00688546  0.12263179  0.00647997  1
  O  O331  1  0.01057603  0.13075756  0.51063519  1
  O  O332  1  -0.00628570  0.61454090  0.00561790  1
  O  O333  1  0.00472462  0.61958675  0.50423577  1
  O  O334  1  0.50579675  0.12009656  0.00606370  1
  O  O335  1  0.50533480  0.11689151  0.50472294  1
  O  O336  1  0.50025734  0.63021361  0.01505700  1
  O  O337  1  0.50847266  0.62197760  0.50773649  1
  O  O338  1  0.49816691  0.37808952  0.49267299  1
  O  O339  1  0.49519104  0.36955459  0.98876240  1
  O  O340  1  0.50657033  0.88535998  0.49015644  1
  O  O341  1  0.49452928  0.87976440  0.99536351  1
  O  O342  1  0.99555217  0.38057155  0.49465511  1
  O  O343  1  1.00115715  0.38339484  0.98961116  1
  O  O344  1  0.98723342  0.86957773  0.48665252  1
  O  O345  1  0.98985257  0.87598056  0.99230726  1
  O  O346  1  0.49064445  0.49464063  0.37487846  1
  O  O347  1  0.49454281  0.48826709  0.87065615  1
  O  O348  1  0.49318288  0.99424611  0.38211096  1
  O  O349  1  0.49720751  0.98828247  0.88378120  1
  O  O350  1  0.99435852  0.49534745  0.38039257  1
  O  O351  1  1.00264447  0.49292582  0.88142379  1
  O  O352  1  0.98833900  0.98932755  0.36832190  1
  O  O353  1  0.98857975  0.99337763  0.87484701  1
  O  O354  1  0.00567356  0.00578467  0.12385817  1
  O  O355  1  0.01095306  0.01061539  0.62941149  1
  O  O356  1  0.00575864  0.50472655  0.11623531  1
  O  O357  1  0.00544649  0.50551511  0.61812001  1
  O  O358  1  0.50519953  0.00495841  0.12058338  1
  O  O359  1  0.49882036  0.00475413  0.61538180  1
  O  O360  1  0.50943742  0.50929592  0.13154671  1
  O  O361  1  0.50013758  0.51345716  0.62415316  1
  O  O362  1  0.24609780  0.38173758  0.24404174  1
  O  O363  1  0.24493687  0.38320956  0.74895975  1
  O  O364  1  0.24774545  0.88606623  0.24462641  1
  O  O365  1  0.24356261  0.88545759  0.74767305  1
  O  O366  1  0.74047836  0.36703965  0.24017709  1
  O  O367  1  0.74692123  0.37887808  0.74472027  1
  O  O368  1  0.74009778  0.87398827  0.24423633  1
  O  O369  1  0.73452174  0.87631726  0.75006799  1
  O  O370  1  0.25090462  0.11315926  0.25151866  1
  O  O371  1  0.25834443  0.11662979  0.75002957  1
  O  O372  1  0.25770916  0.61866243  0.25252603  1
  O  O373  1  0.25894166  0.61980598  0.75739355  1
  O  O374  1  0.75641925  0.12430138  0.25675074  1
  O  O375  1  0.76400827  0.12397602  0.75043770  1
  O  O376  1  0.76099502  0.63007978  0.25671990  1
  O  O377  1  0.75320782  0.62025922  0.75682060  1
  O  O378  1  0.37406904  0.11200795  0.37174537  1
  O  O379  1  0.37476815  0.12397738  0.86426056  1
  O  O380  1  0.37621615  0.61636539  0.36985303  1
  O  O381  1  0.37121580  0.62178967  0.86870472  1
  O  O382  1  0.87247498  0.11755222  0.37204560  1
  O  O383  1  0.87767928  0.11745574  0.86562712  1
  O  O384  1  0.86918611  0.62117800  0.36747538  1
  O  O385  1  0.86469620  0.62475234  0.86760693  1
  O  O386  1  0.13202572  0.38259247  0.12989361  1
  O  O387  1  0.12597513  0.38261783  0.63093453  1
  O  O388  1  0.13050404  0.88167195  0.12637858  1
  O  O389  1  0.12200322  0.88560893  0.62920245  1
  O  O390  1  0.63135437  0.38063301  0.13170482  1
  O  O391  1  0.63232178  0.37415293  0.63118470  1
  O  O392  1  0.62720730  0.87868406  0.13196953  1
  O  O393  1  0.61997133  0.87318870  0.63806275  1
  O  O394  1  0.12524754  0.25890178  0.25216355  1
  O  O395  1  0.12511825  0.25645980  0.75536701  1
  O  O396  1  0.11770477  0.75315889  0.25731765  1
  O  O397  1  0.12510120  0.75693392  0.75938492  1
  O  O398  1  0.62074310  0.25913545  0.25545764  1
  O  O399  1  0.62524435  0.25594041  0.75716840  1
  O  O400  1  0.62170086  0.76201751  0.25117727  1
  O  O401  1  0.62608418  0.76249837  0.75184362  1
  O  O402  1  0.38252125  0.25002964  0.24446912  1
  O  O403  1  0.37362630  0.24085846  0.74229551  1
  O  O404  1  0.37403118  0.74400378  0.24433195  1
  O  O405  1  0.36605802  0.73720977  0.74274403  1
  O  O406  1  0.87764076  0.24212560  0.24272487  1
  O  O407  1  0.87806250  0.24012733  0.74296989  1
  O  O408  1  0.87946897  0.74076776  0.24343472  1
  O  O409  1  0.87501101  0.74517200  0.73913194  1
  O  O410  1  0.37425120  0.50068935  0.48956995  1
  O  O411  1  0.36899022  0.49141627  0.99148846  1
  O  O412  1  0.38528613  1.00608260  0.49242437  1
  O  O413  1  0.38023857  0.99356834  1.00025366  1
  O  O414  1  0.88147420  0.49430386  0.49373329  1
  O  O415  1  0.88896454  0.49475366  0.99666667  1
  O  O416  1  0.87088734  0.99044380  0.48787870  1
  O  O417  1  0.87461891  0.99388485  0.98977509  1
  O  O418  1  0.12403684  0.00614096  0.00577308  1
  O  O419  1  0.13440602  0.01071454  0.51199667  1
  O  O420  1  0.11477260  0.49576607  0.00623099  1
  O  O421  1  0.12097717  0.50605353  0.50483339  1
  O  O422  1  0.61974151  0.00418018  0.00503340  1
  O  O423  1  0.61366350  0.00631753  0.50017708  1
  O  O424  1  0.62701300  0.50006890  0.01461517  1
  O  O425  1  0.62356393  0.51198421  0.50335928  1
  O  O426  1  0.37177985  0.37149554  0.12143847  1
  O  O427  1  0.37614054  0.36380287  0.62669224  1
  O  O428  1  0.36911201  0.87003575  0.12121820  1
  O  O429  1  0.37560238  0.85905880  0.63538118  1
  O  O430  1  0.86671875  0.37023862  0.12675509  1
  O  O431  1  0.87157750  0.36953319  0.61880490  1
  O  O432  1  0.86822775  0.86916560  0.11971912  1
  O  O433  1  0.87808011  0.86854272  0.61536757  1
  O  O434  1  0.12544813  0.12411738  0.38756700  1
  O  O435  1  0.12532856  0.13123261  0.88018017  1
  O  O436  1  0.12471634  0.63258675  0.38115712  1
  O  O437  1  0.13115593  0.63767048  0.86709835  1
  O  O438  1  0.63035404  0.13037082  0.37981456  1
  O  O439  1  0.62530783  0.13014442  0.88115313  1
  O  O440  1  0.63130161  0.62340875  0.37989635  1
  O  O441  1  0.63392901  0.62497371  0.87610034  1
