# generated using pymatgen
data_V93Zn93O256
_symmetry_space_group_name_H-M   'P 1'
_cell_length_a   17.05272535
_cell_length_b   17.05086763
_cell_length_c   17.05559599
_cell_angle_alpha   90.04462090
_cell_angle_beta   89.95541828
_cell_angle_gamma   90.04148973
_symmetry_Int_Tables_number   1
_chemical_formula_structural   V93Zn93O256
_chemical_formula_sum   'V93 Zn93 O256'
_cell_volume   4959.14496066
_cell_formula_units_Z   1
loop_
 _symmetry_equiv_pos_site_id
 _symmetry_equiv_pos_as_xyz
  1  'x, y, z'
loop_
 _atom_site_type_symbol
 _atom_site_label
 _atom_site_symmetry_multiplicity
 _atom_site_fract_x
 _atom_site_fract_y
 _atom_site_fract_z
 _atom_site_occupancy
  V  V0  1  0.62440538  0.37427582  0.74931339  1
  V  V1  1  0.50220358  0.87272528  0.37459843  1
  V  V2  1  0.25133235  0.62900826  0.37872748  1
  V  V3  1  0.86865067  0.12597830  0.75288797  1
  V  V4  1  -0.00028584  0.12716716  0.62493499  1
  V  V5  1  0.49930682  0.37528776  0.37552276  1
  V  V6  1  0.25024850  0.12536764  0.37492802  1
  V  V7  1  0.25127579  -0.00022311  0.25039036  1
  V  V8  1  0.00041439  0.12521162  0.12469986  1
  V  V9  1  0.12509058  0.12641278  0.50085573  1
  V  V10  1  0.37537210  0.87490178  0.00022436  1
  V  V11  1  0.63217753  0.74602692  0.37496695  1
  V  V12  1  0.12691096  0.49389687  0.13118063  1
  V  V13  1  0.87576447  0.00194203  0.37526161  1
  V  V14  1  0.12479611  0.00035881  0.12398689  1
  V  V15  1  0.12960539  -0.01026394  0.63288860  1
  V  V16  1  0.00055090  0.37570533  0.87329314  1
  V  V17  1  0.87363968  0.62474927  0.75120916  1
  V  V18  1  0.62586412  0.24910989  0.37464132  1
  V  V19  1  0.62491274  0.49975129  0.62621175  1
  V  V20  1  0.49899853  0.62460861  0.12564005  1
  V  V21  1  0.50003333  0.62665164  0.62487504  1
  V  V22  1  0.63284515  0.62547935  0.49679736  1
  V  V23  1  0.74957045  0.00003235  0.25013289  1
  V  V24  1  0.12620289  0.87451126  0.25027274  1
  V  V25  1  0.24941452  0.12304732  0.87076622  1
  V  V26  1  0.87663982  0.12686676  0.24964910  1
  V  V27  1  0.25012545  0.25066127  0.50052519  1
  V  V28  1  0.25005194  0.50028958  0.75023778  1
  V  V29  1  0.50021092  0.50021980  0.49946005  1
  V  V30  1  0.75066984  0.50375555  0.25669734  1
  V  V31  1  0.62578837  -0.00105714  0.12567862  1
  V  V32  1  0.49956402  0.37327364  0.87530341  1
  V  V33  1  0.00032347  0.75100814  0.24943227  1
  V  V34  1  0.00095167  0.87663749  0.37495622  1
  V  V35  1  0.86885644  0.00472966  0.87481196  1
  V  V36  1  0.50023722  0.49806260  0.00054426  1
  V  V37  1  0.75032463  0.37458382  0.12498757  1
  V  V38  1  0.75116759  0.74891971  0.00041879  1
  V  V39  1  0.24972199  0.74851852  0.00032954  1
  V  V40  1  0.37598468  0.62489584  0.74896489  1
  V  V41  1  0.87533316  0.75073402  0.12450355  1
  V  V42  1  0.36452583  0.86880775  0.50414915  1
  V  V43  1  0.87168150  0.62563242  0.25803870  1
  V  V44  1  0.75072841  0.12644437  0.37542019  1
  V  V45  1  0.75094181  0.25078424  0.49961690  1
  V  V46  1  0.62494788  0.74920522  0.87348488  1
  V  V47  1  0.62982081  0.12373526  -0.00674548  1
  V  V48  1  0.12546363  0.50101263  0.62502270  1
  V  V49  1  0.37553884  0.50065478  0.37548099  1
  V  V50  1  0.87435109  0.37534156  0.00024962  1
  V  V51  1  0.37557856  0.74867535  0.12591938  1
  V  V52  1  0.62553379  0.37451567  0.24950302  1
  V  V53  1  0.62820516  0.24710400  0.87415215  1
  V  V54  1  0.49830442  0.12408112  0.62507779  1
  V  V55  1  0.37434865  0.62412890  0.25066513  1
  V  V56  1  0.00065097  0.62566299  0.62503262  1
  V  V57  1  0.62544208  -0.00154326  0.62629291  1
  V  V58  1  0.50016625  0.00028669  -0.00057051  1
  V  V59  1  0.00048882  0.00091937  -0.00008215  1
  V  V60  1  0.87526224  0.24948553  0.12508211  1
  V  V61  1  0.37224524  0.37353937  0.00145672  1
  V  V62  1  0.00313939  0.87671505  0.87046223  1
  V  V63  1  0.00102227  0.00160313  0.50040092  1
  V  V64  1  0.62564631  0.62434431  0.00023837  1
  V  V65  1  0.25024185  0.62420845  0.87571410  1
  V  V66  1  0.12864898  0.75491879  0.87165378  1
  V  V67  1  0.49944296  -0.00180795  0.50035652  1
  V  V68  1  0.87486134  0.87479535  0.00044967  1
  V  V69  1  0.36330270  0.75058616  0.62260011  1
  V  V70  1  0.37281801  -0.00102372  0.87309101  1
  V  V71  1  0.37560221  0.12383112  0.25037909  1
  V  V72  1  0.00169513  0.38055246  0.36844637  1
  V  V73  1  0.74950017  0.24814380  -0.00354950  1
  V  V74  1  0.75066712  0.87434453  0.62454029  1
  V  V75  1  0.37527112  0.24942190  0.12446240  1
  V  V76  1  0.12538459  0.25008718  0.87538558  1
  V  V77  1  0.50021386  0.24877162  0.25056556  1
  V  V78  1  0.12824058  0.62936000  0.50116541  1
  V  V79  1  0.12554583  0.25567648  0.36760221  1
  V  V80  1  0.12794974  0.75059102  0.37715289  1
  V  V81  1  0.37393023  0.24920259  0.62509491  1
  V  V82  1  0.74994977  0.37456261  0.62553372  1
  V  V83  1  0.24918629  0.37492139  0.62507088  1
  V  V84  1  0.00029580  0.50237287  -0.00091947  1
  V  V85  1  0.62504244  0.49966044  0.12516177  1
  V  V86  1  0.87536446  0.25092006  0.62458800  1
  V  V87  1  0.00065837  0.62607058  0.12449644  1
  V  V88  1  0.87501148  0.87582558  0.50044541  1
  V  V89  1  0.49835238  0.24809701  0.74905183  1
  V  V90  1  0.50082374  0.87413608  0.87428756  1
  V  V91  1  0.00352064  0.75457863  0.74909395  1
  V  V92  1  0.25057249  0.87422755  0.12522467  1
  Zn  Zn93  1  0.12572018  0.62676242  -0.00021929  1
  Zn  Zn94  1  0.12631640  0.12498127  -0.00001937  1
  Zn  Zn95  1  0.37482264  0.37555948  0.49995738  1
  Zn  Zn96  1  0.37130470  0.11882308  0.74743803  1
  Zn  Zn97  1  0.87200016  0.50107209  0.87537494  1
  Zn  Zn98  1  0.74684798  0.00188926  0.75489915  1
  Zn  Zn99  1  0.24949992  0.24881599  0.00020867  1
  Zn  Zn100  1  0.62650003  0.87235140  0.24978394  1
  Zn  Zn101  1  0.12457382  0.37565694  0.74870051  1
  Zn  Zn102  1  0.50244454  0.74973061  0.24929658  1
  Zn  Zn103  1  0.74950831  0.50005494  0.75262163  1
  Zn  Zn104  1  0.24138596  0.36830102  0.13298650  1
  Zn  Zn105  1  0.62583088  0.87370066  0.75001585  1
  Zn  Zn106  1  0.50040894  0.12416514  0.12461961  1
  Zn  Zn107  1  -0.00239671  0.49979133  0.50139237  1
  Zn  Zn108  1  0.62508135  0.12513955  0.49933643  1
  Zn  Zn109  1  0.24939202  -0.02921702  0.74591301  1
  Zn  Zn110  1  -0.00080220  0.25140593  0.74852980  1
  Zn  Zn111  1  0.87043030  0.50296081  0.38043310  1
  Zn  Zn112  1  0.37456922  0.49949727  0.87498667  1
  Zn  Zn113  1  0.75542163  0.74606250  0.49643507  1
  Zn  Zn114  1  0.87458003  0.75059011  0.62404869  1
  Zn  Zn115  1  0.75041660  0.87399144  0.12694781  1
  Zn  Zn116  1  0.87715685  0.37856227  0.50089345  1
  Zn  Zn117  1  0.24437062  0.49298422  0.25710463  1
  Zn  Zn118  1  0.75060884  0.62252442  0.87498185  1
  Zn  Zn119  1  0.00467907  0.25510618  0.24564768  1
  Zn  Zn120  1  0.37419012  -0.00213312  0.37590499  1
  Zn  Zn121  1  0.50066339  0.75173428  0.74619824  1
  Zn  Zn122  1  0.18974500  0.18555566  0.18723722  1
  Zn  Zn123  1  0.18488176  0.18654531  0.68891970  1
  Zn  Zn124  1  0.18793823  0.68272591  0.18889082  1
  Zn  Zn125  1  0.18751687  0.68945328  0.69017381  1
  Zn  Zn126  1  0.68834894  0.18524310  0.18532921  1
  Zn  Zn127  1  0.68673102  0.18715566  0.68584287  1
  Zn  Zn128  1  0.68789029  0.68769492  0.18821063  1
  Zn  Zn129  1  0.68850053  0.68766408  0.68586347  1
  Zn  Zn130  1  0.31159005  0.31498719  0.31115382  1
  Zn  Zn131  1  0.31169640  0.31147375  0.81122771  1
  Zn  Zn132  1  0.31498238  0.81122959  0.31358775  1
  Zn  Zn133  1  0.31504194  0.80967623  0.80944567  1
  Zn  Zn134  1  0.81545116  0.31432929  0.31267039  1
  Zn  Zn135  1  0.81200124  0.31233684  0.81212529  1
  Zn  Zn136  1  0.81233451  0.81515998  0.31145062  1
  Zn  Zn137  1  0.81327489  0.81375312  0.81138713  1
  Zn  Zn138  1  0.18620871  0.43925948  0.43959959  1
  Zn  Zn139  1  0.18741010  0.43805487  0.94019802  1
  Zn  Zn140  1  0.18577691  0.94075751  0.43907947  1
  Zn  Zn141  1  0.18914865  0.93693895  0.93448177  1
  Zn  Zn142  1  0.68619047  0.43534493  0.43982177  1
  Zn  Zn143  1  0.68811701  0.43656019  0.93484767  1
  Zn  Zn144  1  0.68799041  0.93602496  0.43809735  1
  Zn  Zn145  1  0.68829343  0.93385233  0.94032243  1
  Zn  Zn146  1  0.31080921  0.06389812  0.05956669  1
  Zn  Zn147  1  0.31065961  0.06041228  0.56335523  1
  Zn  Zn148  1  0.31204726  0.56166808  0.06195647  1
  Zn  Zn149  1  0.31243596  0.56289540  0.56217440  1
  Zn  Zn150  1  0.81199691  0.06267513  0.06241320  1
  Zn  Zn151  1  0.81237230  0.06421143  0.56281800  1
  Zn  Zn152  1  0.81268131  0.56403350  0.06624228  1
  Zn  Zn153  1  0.81431943  0.55973521  0.56609412  1
  Zn  Zn154  1  0.43489350  0.43701855  0.18963585  1
  Zn  Zn155  1  0.43649716  0.43702346  0.68646966  1
  Zn  Zn156  1  0.43879552  0.93770513  0.18755747  1
  Zn  Zn157  1  0.43589238  0.93397707  0.68920027  1
  Zn  Zn158  1  0.93745095  0.43926581  0.18831425  1
  Zn  Zn159  1  0.93701377  0.43976811  0.68731450  1
  Zn  Zn160  1  0.93723032  0.93841617  0.18751838  1
  Zn  Zn161  1  0.93761346  0.94149986  0.68729744  1
  Zn  Zn162  1  0.06378679  0.06540984  0.31130046  1
  Zn  Zn163  1  0.05902603  0.06521264  0.81069654  1
  Zn  Zn164  1  0.06160068  0.56558192  0.31194750  1
  Zn  Zn165  1  0.06426961  0.56630636  0.81172835  1
  Zn  Zn166  1  0.56242804  0.06257203  0.31263970  1
  Zn  Zn167  1  0.55999379  0.06202371  0.81125526  1
  Zn  Zn168  1  0.56191619  0.56357759  0.31227807  1
  Zn  Zn169  1  0.56062666  0.56164840  0.81276226  1
  Zn  Zn170  1  0.43610059  0.18702704  0.43782958  1
  Zn  Zn171  1  0.43913686  0.18466275  0.93625580  1
  Zn  Zn172  1  0.44122702  0.68825441  0.43894414  1
  Zn  Zn173  1  0.43752877  0.68665717  0.93736123  1
  Zn  Zn174  1  0.93936575  0.19202479  0.43723386  1
  Zn  Zn175  1  0.93772860  0.18736902  0.93802293  1
  Zn  Zn176  1  0.94142284  0.69003419  0.43991347  1
  Zn  Zn177  1  0.93824000  0.68877587  0.93507835  1
  Zn  Zn178  1  0.06034781  0.31201200  0.05897633  1
  Zn  Zn179  1  0.06156505  0.31492405  0.55762045  1
  Zn  Zn180  1  0.06274611  0.81393432  0.05957841  1
  Zn  Zn181  1  0.06284256  0.81149674  0.56192725  1
  Zn  Zn182  1  0.56170864  0.31105055  0.06234095  1
  Zn  Zn183  1  0.56274031  0.31199205  0.56136784  1
  Zn  Zn184  1  0.56237589  0.81203004  0.06090915  1
  Zn  Zn185  1  0.56105717  0.81006476  0.56060388  1
  O  O186  1  0.11952090  0.11826424  0.12378907  1
  O  O187  1  0.11792133  0.12126699  0.61853236  1
  O  O188  1  0.11757785  0.61647469  0.12135030  1
  O  O189  1  0.12203332  0.62264816  0.61781067  1
  O  O190  1  0.62329078  0.11451516  0.11576389  1
  O  O191  1  0.61836928  0.11435753  0.62213632  1
  O  O192  1  0.61911058  0.61940577  0.11972630  1
  O  O193  1  0.61945040  0.62036786  0.61789329  1
  O  O194  1  0.38292502  0.38158106  0.37753573  1
  O  O195  1  0.38056440  0.37329021  0.88587613  1
  O  O196  1  0.38467663  0.87338197  0.38667487  1
  O  O197  1  0.38217907  0.87828259  0.88296498  1
  O  O198  1  0.88924212  0.37623703  0.37692630  1
  O  O199  1  0.88519173  0.37600970  0.88135589  1
  O  O200  1  0.88156315  0.88245960  0.37938734  1
  O  O201  1  0.88428927  0.88247844  0.88025888  1
  O  O202  1  0.25081763  0.00689381  0.36833332  1
  O  O203  1  0.25451832  0.00925787  0.87472965  1
  O  O204  1  0.25556634  0.51105862  0.37684992  1
  O  O205  1  0.25091118  0.50598897  0.86974403  1
  O  O206  1  0.75564329  0.00592871  0.37103281  1
  O  O207  1  0.76497929  -0.00758528  0.87514656  1
  O  O208  1  0.74946936  0.49269181  0.35983816  1
  O  O209  1  0.75364788  0.50358545  0.87109872  1
  O  O210  1  0.23224475  0.50194664  0.12155019  1
  O  O211  1  0.24502245  0.49554152  0.62984963  1
  O  O212  1  0.24537268  0.99396315  0.12991579  1
  O  O213  1  0.23411489  1.00478838  0.62861784  1
  O  O214  1  0.74451308  0.49392327  0.13355447  1
  O  O215  1  0.74168086  0.49227157  0.62870429  1
  O  O216  1  0.74117892  0.99955423  0.13039883  1
  O  O217  1  0.73981109  0.99260411  0.62254339  1
  O  O218  1  -0.00280374  0.37361641  0.26314261  1
  O  O219  1  0.00129169  0.37559721  0.76297604  1
  O  O220  1  0.00613174  0.87101416  0.25550639  1
  O  O221  1  -0.00950589  0.86587318  0.75950911  1
  O  O222  1  0.50623362  0.36926658  0.25539062  1
  O  O223  1  0.50463568  0.36833543  0.75474934  1
  O  O224  1  0.50113264  0.87465871  0.26337274  1
  O  O225  1  0.50407611  0.87189327  0.75908796  1
  O  O226  1  0.49371587  0.13085529  0.24876925  1
  O  O227  1  0.49701874  0.13059582  0.74251650  1
  O  O228  1  0.49319786  0.62611831  0.24261706  1
  O  O229  1  0.49358121  0.62508154  0.74229131  1
  O  O230  1  0.99354759  0.12698324  0.24273398  1
  O  O231  1  0.98768825  0.12833130  0.74288167  1
  O  O232  1  0.99224913  0.63215369  0.24438434  1
  O  O233  1  0.99275396  0.63396493  0.74579392  1
  O  O234  1  0.37797927  0.25682738  0.00827203  1
  O  O235  1  0.36792698  0.25103750  0.50677748  1
  O  O236  1  0.36996666  0.75521866  0.00648819  1
  O  O237  1  0.38020004  0.76212187  0.50601008  1
  O  O238  1  0.86967204  0.25509459  0.00538142  1
  O  O239  1  0.86783682  0.25121049  0.50731316  1
  O  O240  1  0.87151838  0.75431738  0.00484166  1
  O  O241  1  0.87404506  0.75872936  0.50219664  1
  O  O242  1  0.13112530  0.24468675  0.49049338  1
  O  O243  1  0.12686151  0.24884720  0.98825387  1
  O  O244  1  0.11984570  0.73832119  0.49324043  1
  O  O245  1  0.13224337  0.75018485  0.99263670  1
  O  O246  1  0.63140898  0.24777072  0.49246099  1
  O  O247  1  0.62845780  0.24183887  0.99565647  1
  O  O248  1  0.62614227  0.74100976  0.49251030  1
  O  O249  1  0.63024367  0.74438277  0.99308303  1
  O  O250  1  0.49149606  0.24793346  0.13162023  1
  O  O251  1  0.49506583  0.24388253  0.62854045  1
  O  O252  1  0.49368456  0.74340329  0.12483499  1
  O  O253  1  0.49271465  0.74229656  0.62495297  1
  O  O254  1  0.99400638  0.24469573  0.12532568  1
  O  O255  1  0.99415276  0.24518985  0.62468427  1
  O  O256  1  0.99576660  0.74664814  0.13002193  1
  O  O257  1  0.99945224  0.74575545  0.63433657  1
  O  O258  1  0.00880368  0.26045809  0.37285883  1
  O  O259  1  0.00724187  0.26035475  0.87712692  1
  O  O260  1  0.00747044  0.75752527  0.36850842  1
  O  O261  1  0.00526935  0.75868288  0.86849905  1
  O  O262  1  0.50532439  0.25444791  0.37007764  1
  O  O263  1  0.50678390  0.25395710  0.86915372  1
  O  O264  1  0.51001441  0.75868212  0.37513980  1
  O  O265  1  0.51072460  0.75525910  0.87727341  1
  O  O266  1  0.24533378  0.13031019  0.49419594  1
  O  O267  1  0.24734676  0.12770095  0.98648630  1
  O  O268  1  0.24031732  0.62176135  0.49029554  1
  O  O269  1  0.24991269  0.63113015  0.99393711  1
  O  O270  1  0.74869443  0.13164524  0.49268694  1
  O  O271  1  0.73792401  0.13170410  1.00541591  1
  O  O272  1  0.73613721  0.62524043  0.50677096  1
  O  O273  1  0.74372748  0.63091447  1.00031833  1
  O  O274  1  0.26211001  0.37335830  0.00503680  1
  O  O275  1  0.25094878  0.36856334  0.50679689  1
  O  O276  1  0.25608286  0.86947937  0.00605332  1
  O  O277  1  0.26682080  0.87919575  0.49353360  1
  O  O278  1  0.75484825  0.37005878  0.00657604  1
  O  O279  1  0.75112680  0.36813300  0.50737374  1
  O  O280  1  0.75822089  0.86701855  0.00336109  1
  O  O281  1  0.75702667  0.87595262  0.50887320  1
  O  O282  1  0.12174580  0.50535736  0.23355228  1
  O  O283  1  0.13246618  0.50133901  0.74265452  1
  O  O284  1  0.13076471  0.99395435  0.24447339  1
  O  O285  1  0.12021940  1.00386913  0.73435886  1
  O  O286  1  0.63168046  0.49567666  0.24480886  1
  O  O287  1  0.62378241  0.49246874  0.74340043  1
  O  O288  1  0.62994065  1.00074467  0.24038906  1
  O  O289  1  0.62649575  0.99861060  0.73862732  1
  O  O290  1  0.36894492  0.00509929  0.25146346  1
  O  O291  1  0.36838593  -0.00180563  0.75663007  1
  O  O292  1  0.37618875  0.50874579  0.25849407  1
  O  O293  1  0.36823673  0.50648523  0.75064157  1
  O  O294  1  0.87043313  0.00633203  0.25595684  1
  O  O295  1  0.87456385  0.00864064  0.75855217  1
  O  O296  1  0.86705104  0.50921242  0.25029021  1
  O  O297  1  0.87507086  0.51299563  0.75203302  1
  O  O298  1  0.11413937  0.36723891  0.38029677  1
  O  O299  1  0.11664868  0.36840672  0.87625844  1
  O  O300  1  0.12089433  0.87129192  0.37021088  1
  O  O301  1  0.10774636  0.87212857  0.88261482  1
  O  O302  1  0.61936463  0.36885612  0.36817255  1
  O  O303  1  0.61802942  0.36768845  0.86959085  1
  O  O304  1  0.61626020  0.86715391  0.37648917  1
  O  O305  1  0.61993801  0.86544768  0.87621017  1
  O  O306  1  0.37641175  0.13367188  0.12938765  1
  O  O307  1  0.38030694  0.13002406  0.62585276  1
  O  O308  1  0.37932788  0.62883826  0.12981377  1
  O  O309  1  0.38045733  0.63166177  0.62772758  1
  O  O310  1  0.88030873  0.12987291  0.12961272  1
  O  O311  1  0.88047239  0.12986498  0.63176009  1
  O  O312  1  0.88172895  0.63140269  0.13456826  1
  O  O313  1  0.88191986  0.62829475  0.63382734  1
  O  O314  1  0.26208642  0.24934887  0.12221088  1
  O  O315  1  0.25327053  0.25422580  0.62042291  1
  O  O316  1  0.25493326  0.75448020  0.12108616  1
  O  O317  1  0.26425829  0.74433231  0.62593397  1
  O  O318  1  0.75496838  0.25563961  0.11828970  1
  O  O319  1  0.75444938  0.25488517  0.61898757  1
  O  O320  1  0.75716226  0.75129902  0.11896303  1
  O  O321  1  0.75083965  0.76322102  0.62141980  1
  O  O322  1  0.24392491  0.24581789  0.38004331  1
  O  O323  1  0.24141796  0.24387173  0.87639898  1
  O  O324  1  0.24405381  0.73723208  0.36901354  1
  O  O325  1  0.24695693  0.74154426  0.88318020  1
  O  O326  1  0.74550156  0.24624644  0.37885319  1
  O  O327  1  0.74096428  0.25734375  0.88425464  1
  O  O328  1  0.73659814  0.75753472  0.37754978  1
  O  O329  1  0.74045006  0.74982419  0.88115379  1
  O  O330  1  0.00106648  0.11819616  0.00735090  1
  O  O331  1  0.00469784  0.12057086  0.50435394  1
  O  O332  1  -0.00131900  0.61672353  0.00483260  1
  O  O333  1  0.01051928  0.62383440  0.50588608  1
  O  O334  1  0.51102066  0.11819101  0.00198958  1
  O  O335  1  0.49927561  0.11253412  0.50437214  1
  O  O336  1  0.50485552  0.61792874  0.00593017  1
  O  O337  1  0.50925136  0.61900055  0.50585011  1
  O  O338  1  0.50055642  0.38222164  0.49297480  1
  O  O339  1  0.49307821  0.37835208  0.99547227  1
  O  O340  1  0.49523637  0.88245245  0.49231892  1
  O  O341  1  0.49475754  0.88097912  0.99473577  1
  O  O342  1  0.99777770  0.37876150  0.48671525  1
  O  O343  1  0.99417103  0.38369278  0.99211357  1
  O  O344  1  0.99515315  0.88135193  0.49332488  1
  O  O345  1  0.99267514  0.88070422  0.99194240  1
  O  O346  1  0.49600271  0.49492735  0.37992998  1
  O  O347  1  0.49805070  0.49161287  0.88270476  1
  O  O348  1  0.50000223  0.99187026  0.38435387  1
  O  O349  1  0.49428535  0.99428555  0.88050881  1
  O  O350  1  1.00263706  0.48813251  0.37404821  1
  O  O351  1  1.00182968  0.49323603  0.88385977  1
  O  O352  1  0.99626105  0.99623454  0.37983231  1
  O  O353  1  0.99201739  0.99361528  0.87895459  1
  O  O354  1  0.00508523  0.00484740  0.12009009  1
  O  O355  1  0.00765115  0.00708759  0.61887405  1
  O  O356  1  0.00719761  0.50427274  0.11748962  1
  O  O357  1  0.00847843  0.50833363  0.62604581  1
  O  O358  1  0.50905830  0.00052827  0.11846084  1
  O  O359  1  0.50653545  0.00175290  0.61836623  1
  O  O360  1  0.50582503  0.50402431  0.12044989  1
  O  O361  1  0.50543205  0.50549679  0.61915078  1
  O  O362  1  0.25639586  0.38247173  0.24347474  1
  O  O363  1  0.24801453  0.38207505  0.74364526  1
  O  O364  1  0.24593325  0.87920162  0.24527559  1
  O  O365  1  0.22981428  0.86698654  0.77541932  1
  O  O366  1  0.74527556  0.38212761  0.24369651  1
  O  O367  1  0.74149934  0.37421068  0.74293791  1
  O  O368  1  0.74728493  0.88490556  0.24702322  1
  O  O369  1  0.74875900  0.87917538  0.73796359  1
  O  O370  1  0.25632250  0.11864482  0.25540700  1
  O  O371  1  0.25045800  0.12638433  0.76389859  1
  O  O372  1  0.25529887  0.61868296  0.26080158  1
  O  O373  1  0.25639890  0.61985422  0.75587748  1
  O  O374  1  0.75657888  0.11997709  0.25553269  1
  O  O375  1  0.76406162  0.12188256  0.74326595  1
  O  O376  1  0.76010598  0.61499596  0.24337608  1
  O  O377  1  0.76192572  0.62613195  0.75013625  1
  O  O378  1  0.36824419  0.12271491  0.36867196  1
  O  O379  1  0.36723035  0.11816049  0.87375330  1
  O  O380  1  0.36890223  0.62255847  0.37273659  1
  O  O381  1  0.36920437  0.62320291  0.86827310  1
  O  O382  1  0.87105670  0.12102471  0.36995572  1
  O  O383  1  0.88209547  0.11565654  0.86617832  1
  O  O384  1  0.88324727  0.62527659  0.36098383  1
  O  O385  1  0.87463768  0.62445009  0.86441763  1
  O  O386  1  0.12176771  0.39003163  0.11846391  1
  O  O387  1  0.13076118  0.38202245  0.62549341  1
  O  O388  1  0.13070637  0.87952783  0.13106553  1
  O  O389  1  0.11964895  0.89153475  0.61883727  1
  O  O390  1  0.62978350  0.37952176  0.13022992  1
  O  O391  1  0.62896183  0.37936881  0.63038467  1
  O  O392  1  0.62576245  0.88760964  0.12464221  1
  O  O393  1  0.63138111  0.88276290  0.62358690  1
  O  O394  1  0.12561993  0.24456254  0.26374351  1
  O  O395  1  0.12054047  0.25316096  0.76297944  1
  O  O396  1  0.11994572  0.75524557  0.25520867  1
  O  O397  1  0.10995380  0.74370138  0.75578721  1
  O  O398  1  0.62097910  0.25467211  0.25388401  1
  O  O399  1  0.61861041  0.25353932  0.75396159  1
  O  O400  1  0.62252693  0.75109054  0.25912746  1
  O  O401  1  0.62378199  0.74983341  0.76224726  1
  O  O402  1  0.38054472  0.24431867  0.24216552  1
  O  O403  1  0.38184839  0.24779859  0.74274711  1
  O  O404  1  0.37742688  0.74267318  0.24308095  1
  O  O405  1  0.37950832  0.74281783  0.74019354  1
  O  O406  1  0.87551386  0.24355513  0.24182562  1
  O  O407  1  0.87613960  0.24220272  0.74444067  1
  O  O408  1  0.87984206  0.74454546  0.24559606  1
  O  O409  1  0.88557679  0.74251351  0.74957608  1
  O  O410  1  0.38295573  0.50016686  0.49348205  1
  O  O411  1  0.38139383  0.48890366  1.00156337  1
  O  O412  1  0.38434889  0.98756124  0.50187920  1
  O  O413  1  0.38033807  0.99405607  0.99504034  1
  O  O414  1  0.87856540  0.49906855  0.49561751  1
  O  O415  1  0.88598123  0.49531246  1.00250711  1
  O  O416  1  0.88156226  0.99667415  0.49412043  1
  O  O417  1  0.88032934  0.99679948  0.99318805  1
  O  O418  1  0.11808153  -0.00062405  0.00713732  1
  O  O419  1  0.11983875  0.00731269  0.50830760  1
  O  O420  1  0.11311576  0.50276923  0.00749506  1
  O  O421  1  0.12321256  0.51307573  0.50685202  1
  O  O422  1  0.62222902  0.00597542  0.00534841  1
  O  O423  1  0.61490363  -0.00036516  0.50845267  1
  O  O424  1  0.62014898  0.50363253  0.00618446  1
  O  O425  1  0.62021909  0.50701474  0.50473095  1
  O  O426  1  0.37883740  0.36462592  0.11605279  1
  O  O427  1  0.36794940  0.36760124  0.62250437  1
  O  O428  1  0.36999992  0.86962885  0.12017444  1
  O  O429  1  0.38039436  0.86676612  0.61144956  1
  O  O430  1  0.87068495  0.36984758  0.11982262  1
  O  O431  1  0.86859449  0.36853494  0.62621930  1
  O  O432  1  0.87599767  0.86858944  0.11850051  1
  O  O433  1  0.86663805  0.87812721  0.61892082  1
  O  O434  1  0.13008673  0.13300571  0.38082485  1
  O  O435  1  0.12955338  0.13297182  0.87575558  1
  O  O436  1  0.13154290  0.62940960  0.38137312  1
  O  O437  1  0.13210054  0.63452151  0.87743045  1
  O  O438  1  0.63233959  0.13126415  0.37571794  1
  O  O439  1  0.62031313  0.12919760  0.88570218  1
  O  O440  1  0.61790680  0.63410809  0.38524094  1
  O  O441  1  0.62425080  0.63374668  0.88168994  1
