# generated using pymatgen
data_V93Zn93O256
_symmetry_space_group_name_H-M   'P 1'
_cell_length_a   17.05015806
_cell_length_b   17.05460126
_cell_length_c   17.05795602
_cell_angle_alpha   89.98081594
_cell_angle_beta   89.93840355
_cell_angle_gamma   89.97256609
_symmetry_Int_Tables_number   1
_chemical_formula_structural   V93Zn93O256
_chemical_formula_sum   'V93 Zn93 O256'
_cell_volume   4960.17095096
_cell_formula_units_Z   1
loop_
 _symmetry_equiv_pos_site_id
 _symmetry_equiv_pos_as_xyz
  1  'x, y, z'
loop_
 _atom_site_type_symbol
 _atom_site_label
 _atom_site_symmetry_multiplicity
 _atom_site_fract_x
 _atom_site_fract_y
 _atom_site_fract_z
 _atom_site_occupancy
  V  V0  1  0.37450484  0.49924752  0.37744423  1
  V  V1  1  0.24707640  0.62698451  0.87367088  1
  V  V2  1  -0.00007329  0.37419777  0.87413376  1
  V  V3  1  0.62577274  0.50269736  0.62677968  1
  V  V4  1  0.12380200  0.00068870  0.12471710  1
  V  V5  1  0.25174419  0.12587964  0.87301005  1
  V  V6  1  0.38111599  -0.00540746  0.37194061  1
  V  V7  1  0.87602404  0.24937684  0.12658293  1
  V  V8  1  0.00017204  0.62540875  0.12472974  1
  V  V9  1  0.00501334  0.74896953  0.75738286  1
  V  V10  1  0.37571398  0.62757568  0.24721116  1
  V  V11  1  0.75105382  0.12261831  0.87622127  1
  V  V12  1  0.49908124  0.25192834  0.24790197  1
  V  V13  1  -0.00013818  0.75018013  0.25134170  1
  V  V14  1  0.74793275  0.74975587  0.00049497  1
  V  V15  1  0.38385746  0.12905498  0.74005120  1
  V  V16  1  0.62451498  0.12338243  0.00272801  1
  V  V17  1  0.24903017  0.62540162  0.37513953  1
  V  V18  1  0.37340799  0.12501177  0.24697903  1
  V  V19  1  0.12355961  0.87481321  0.25075389  1
  V  V20  1  0.00061697  0.49986805  0.50025727  1
  V  V21  1  0.24900433  0.50049789  0.24849667  1
  V  V22  1  0.62231876  0.00382085  0.62049017  1
  V  V23  1  0.49962146  0.62531737  0.62632735  1
  V  V24  1  0.24811792  -0.00052855  0.24899183  1
  V  V25  1  0.38259891  0.87730562  0.49575800  1
  V  V26  1  0.00022496  0.37443079  0.37391069  1
  V  V27  1  0.50475817  0.87310765  0.86950817  1
  V  V28  1  0.12536458  -0.00009184  0.62474792  1
  V  V29  1  0.75136418  0.74962408  0.50196451  1
  V  V30  1  0.00203733  0.62393100  0.62509245  1
  V  V31  1  0.00022456  0.12514115  0.62554412  1
  V  V32  1  0.61680616  0.75660690  0.37330941  1
  V  V33  1  0.50660767  0.49982682  0.00301749  1
  V  V34  1  0.75090964  0.50019053  0.75201090  1
  V  V35  1  0.74712049  0.24907399  0.50158099  1
  V  V36  1  0.74879648  -0.00034806  0.25076457  1
  V  V37  1  0.87389809  0.74987287  0.12590872  1
  V  V38  1  0.24988091  0.75005082  0.50004483  1
  V  V39  1  0.87649836  -0.00211071  0.87581058  1
  V  V40  1  0.74594404  0.87247117  0.63022112  1
  V  V41  1  0.87409089  0.12577431  0.25009985  1
  V  V42  1  0.74588593  0.38253932  0.12565241  1
  V  V43  1  0.37634306  0.00073197  0.87341493  1
  V  V44  1  0.37578202  0.37581737  -0.00222236  1
  V  V45  1  0.74989718  0.24916327  0.00066885  1
  V  V46  1  0.37330215  0.87427074  -0.00127219  1
  V  V47  1  0.12415281  0.25016198  0.37410981  1
  V  V48  1  0.00056908  0.24918031  0.74958325  1
  V  V49  1  0.12543043  0.50013485  0.12394467  1
  V  V50  1  0.49603925  0.50044621  0.49948175  1
  V  V51  1  0.74484512  -0.00659440  0.75226055  1
  V  V52  1  0.12586081  0.12449349  -0.00049698  1
  V  V53  1  0.87579765  0.75009652  0.62649675  1
  V  V54  1  0.74450677  0.12522927  0.38207685  1
  V  V55  1  0.25077339  0.00111459  0.74846867  1
  V  V56  1  0.25677149  0.25440107  0.49886338  1
  V  V57  1  0.62504860  0.38321551  0.24658289  1
  V  V58  1  0.50672821  0.62215255  0.12443421  1
  V  V59  1  0.75172017  0.37556685  0.62462298  1
  V  V60  1  0.24935698  0.37615584  0.12371553  1
  V  V61  1  -0.00020113  -0.00102230  0.49999072  1
  V  V62  1  0.75106290  0.62319307  0.37462702  1
  V  V63  1  0.49489901  0.37712142  0.37665400  1
  V  V64  1  0.37703174  0.75094181  0.62527440  1
  V  V65  1  0.24924920  0.87389439  0.12294860  1
  V  V66  1  0.12537663  0.12464314  0.49994019  1
  V  V67  1  0.37600399  0.62626777  0.74981254  1
  V  V68  1  0.87561239  0.37504073  0.00012045  1
  V  V69  1  0.25129642  0.87558546  0.62473140  1
  V  V70  1  -0.00067117  -0.00078442  -0.00044145  1
  V  V71  1  0.12527811  0.25036098  0.87344988  1
  V  V72  1  0.87480289  0.37436353  0.49951097  1
  V  V73  1  0.37591426  0.50051787  0.87509090  1
  V  V74  1  0.12547004  0.62533972  0.50062191  1
  V  V75  1  0.87633038  0.62397460  0.75157567  1
  V  V76  1  0.24810810  0.12416010  0.37347694  1
  V  V77  1  0.37479392  0.25009251  0.12371007  1
  V  V78  1  0.25839850  0.37368742  0.62145200  1
  V  V79  1  0.00026404  0.49974445  -0.00097772  1
  V  V80  1  0.25085704  0.25051669  -0.00164245  1
  V  V81  1  0.12492977  0.62766107  -0.00471110  1
  V  V82  1  0.87529978  -0.00092338  0.37661556  1
  V  V83  1  0.62161708  0.25023352  0.87303444  1
  V  V84  1  0.62339746  0.24909930  0.37774883  1
  V  V85  1  0.62579913  0.75170132  0.87057723  1
  V  V86  1  0.24487329  0.75028631  -0.00658971  1
  V  V87  1  0.12543769  0.87114064  0.75590563  1
  V  V88  1  0.62446888  0.62572973  0.50081920  1
  V  V89  1  0.50075127  -0.00081138  0.00127908  1
  V  V90  1  0.87685249  0.12331064  0.75031036  1
  V  V91  1  0.74372972  0.87495685  0.12952128  1
  V  V92  1  0.25032314  0.49863579  0.74838287  1
  Zn  Zn93  1  -0.00085378  0.87392762  0.37829621  1
  Zn  Zn94  1  0.49953285  0.37500813  0.87103589  1
  Zn  Zn95  1  0.50555254  0.75263278  0.74736343  1
  Zn  Zn96  1  0.49990972  0.12604244  0.12492425  1
  Zn  Zn97  1  0.50701050  0.00281740  0.49200926  1
  Zn  Zn98  1  0.62312618  -0.00051753  0.12873907  1
  Zn  Zn99  1  0.00008596  0.12512677  0.12670474  1
  Zn  Zn100  1  0.74900149  0.62407649  0.87747417  1
  Zn  Zn101  1  0.87468517  0.50017967  0.87578505  1
  Zn  Zn102  1  0.56111521  0.16694595  0.56101664  1
  Zn  Zn103  1  0.87445420  0.62252543  0.25077352  1
  Zn  Zn104  1  0.12383246  0.37439997  0.24847459  1
  Zn  Zn105  1  0.37533153  0.74992675  0.12217567  1
  Zn  Zn106  1  0.74918587  0.50387189  0.24664452  1
  Zn  Zn107  1  0.00142464  0.24943490  0.24964448  1
  Zn  Zn108  1  0.00220023  0.87029488  0.87836925  1
  Zn  Zn109  1  0.87506354  0.87489459  0.00047248  1
  Zn  Zn110  1  0.12406275  0.75158397  0.37641714  1
  Zn  Zn111  1  0.60917178  0.88725490  0.26338931  1
  Zn  Zn112  1  0.87727132  0.87431945  0.50109655  1
  Zn  Zn113  1  0.62392938  0.37478118  0.75072735  1
  Zn  Zn114  1  0.38776179  0.25052439  0.61195314  1
  Zn  Zn115  1  0.12694156  0.49682934  0.62488650  1
  Zn  Zn116  1  0.87360135  0.49906612  0.37228313  1
  Zn  Zn117  1  0.12588227  0.37460635  0.74711533  1
  Zn  Zn118  1  0.49686618  0.75651036  0.24617359  1
  Zn  Zn119  1  0.50630605  0.25050834  0.73840659  1
  Zn  Zn120  1  0.62775388  0.62080751  0.00352030  1
  Zn  Zn121  1  0.87535867  0.24908346  0.62461818  1
  Zn  Zn122  1  0.18612450  0.18857881  0.18673780  1
  Zn  Zn123  1  0.19041795  0.18923914  0.68535117  1
  Zn  Zn124  1  0.18699076  0.68842393  0.18381546  1
  Zn  Zn125  1  0.18807146  0.68700646  0.68627384  1
  Zn  Zn126  1  0.68776704  0.19104289  0.19098084  1
  Zn  Zn127  1  0.69423408  0.18528400  0.69046401  1
  Zn  Zn128  1  0.68582391  0.68906017  0.19069050  1
  Zn  Zn129  1  0.68819763  0.68578453  0.69007727  1
  Zn  Zn130  1  0.31089009  0.31273643  0.31051697  1
  Zn  Zn131  1  0.31399588  0.31322814  0.80929489  1
  Zn  Zn132  1  0.31057613  0.81238294  0.31271616  1
  Zn  Zn133  1  0.31495273  0.81216499  0.81258891  1
  Zn  Zn134  1  0.81132677  0.31247123  0.31234891  1
  Zn  Zn135  1  0.81301397  0.31148461  0.81275227  1
  Zn  Zn136  1  0.81081884  0.81259236  0.31373237  1
  Zn  Zn137  1  0.81681946  0.81236237  0.81489587  1
  Zn  Zn138  1  0.18665525  0.43770401  0.43829635  1
  Zn  Zn139  1  0.18704688  0.43871625  0.93524759  1
  Zn  Zn140  1  0.18898174  0.93560191  0.43624808  1
  Zn  Zn141  1  0.18781706  0.93916858  0.93593712  1
  Zn  Zn142  1  0.68401785  0.43745286  0.43778675  1
  Zn  Zn143  1  0.68799947  0.43482438  0.93676182  1
  Zn  Zn144  1  0.69316622  0.93599539  0.44235638  1
  Zn  Zn145  1  0.68733110  0.93413464  0.93946148  1
  Zn  Zn146  1  0.31229858  0.06231707  0.06211796  1
  Zn  Zn147  1  0.31373944  0.06261948  0.55848575  1
  Zn  Zn148  1  0.31454424  0.56314097  0.06088300  1
  Zn  Zn149  1  0.31296594  0.56180166  0.56279754  1
  Zn  Zn150  1  0.81213478  0.06075123  0.06420772  1
  Zn  Zn151  1  0.81298012  0.06025710  0.56451406  1
  Zn  Zn152  1  0.81584203  0.56404702  0.06239868  1
  Zn  Zn153  1  0.81549002  0.56200331  0.56207504  1
  Zn  Zn154  1  0.43642658  0.43933410  0.18660580  1
  Zn  Zn155  1  0.43896408  0.43537311  0.68921351  1
  Zn  Zn156  1  0.43585033  0.93570732  0.18565925  1
  Zn  Zn157  1  0.43762984  0.93801329  0.68702920  1
  Zn  Zn158  1  0.93505730  0.43960655  0.18966044  1
  Zn  Zn159  1  0.93766231  0.43648485  0.68654173  1
  Zn  Zn160  1  0.93413071  0.93591261  0.18731935  1
  Zn  Zn161  1  0.93705766  0.93544373  0.68801627  1
  Zn  Zn162  1  0.05921129  0.06323188  0.31237978  1
  Zn  Zn163  1  0.06371878  0.06144158  0.81290459  1
  Zn  Zn164  1  0.06363481  0.56246352  0.31300122  1
  Zn  Zn165  1  0.06493290  0.55995204  0.81241865  1
  Zn  Zn166  1  0.56144800  0.06683565  0.31129127  1
  Zn  Zn167  1  0.56398028  0.06107155  0.81223524  1
  Zn  Zn168  1  0.56233629  0.56619894  0.31273827  1
  Zn  Zn169  1  0.56365490  0.56601198  0.81668301  1
  Zn  Zn170  1  0.43619681  0.18381431  0.42901215  1
  Zn  Zn171  1  0.43748203  0.18626121  0.93464931  1
  Zn  Zn172  1  0.43522897  0.68573605  0.43911479  1
  Zn  Zn173  1  0.43663921  0.68706459  0.93859245  1
  Zn  Zn174  1  0.93472080  0.18757497  0.43832695  1
  Zn  Zn175  1  0.93834880  0.18634582  0.93768310  1
  Zn  Zn176  1  0.93682519  0.68724062  0.43829759  1
  Zn  Zn177  1  0.93394563  0.68509333  0.93803026  1
  Zn  Zn178  1  0.06312516  0.31316383  0.06059268  1
  Zn  Zn179  1  0.06709494  0.31248943  0.56291371  1
  Zn  Zn180  1  0.06336726  0.81282989  0.06405603  1
  Zn  Zn181  1  0.06277849  0.81212313  0.56617881  1
  Zn  Zn182  1  0.56180692  0.31392332  0.06144038  1
  Zn  Zn183  1  0.56515422  0.32645254  0.56113194  1
  Zn  Zn184  1  0.56085365  0.80923098  0.06263813  1
  Zn  Zn185  1  0.56454417  0.81469220  0.56214766  1
  O  O186  1  0.12388442  0.11881549  0.11735787  1
  O  O187  1  0.12092746  0.11885688  0.61995464  1
  O  O188  1  0.11969222  0.61920198  0.11649576  1
  O  O189  1  0.11939315  0.62301805  0.61804193  1
  O  O190  1  0.62474569  0.12619040  0.11281536  1
  O  O191  1  0.63484794  0.10930608  0.62599933  1
  O  O192  1  0.61129380  0.62900999  0.12537264  1
  O  O193  1  0.61969531  0.62171682  0.62025675  1
  O  O194  1  0.38795797  0.38278184  0.36359828  1
  O  O195  1  0.37560157  0.38143580  0.88088226  1
  O  O196  1  0.36642663  0.88359990  0.38422272  1
  O  O197  1  0.38243921  0.88142858  0.88052475  1
  O  O198  1  0.88423754  0.37389339  0.38088468  1
  O  O199  1  0.88128992  0.37415095  0.88338766  1
  O  O200  1  0.87537123  0.88381361  0.37850937  1
  O  O201  1  0.88042389  0.88324604  0.87962395  1
  O  O202  1  0.25619081  0.00501368  0.36758511  1
  O  O203  1  0.25653021  0.00574673  0.86866868  1
  O  O204  1  0.25455043  0.50531758  0.36930151  1
  O  O205  1  0.25675494  0.50589199  0.86910027  1
  O  O206  1  0.75387139  0.00736031  0.37204524  1
  O  O207  1  0.75413712  0.00186047  0.87005568  1
  O  O208  1  0.74758097  0.51284233  0.37673064  1
  O  O209  1  0.75132889  0.50028657  0.86464217  1
  O  O210  1  0.24532736  0.49570671  0.12791623  1
  O  O211  1  0.25197298  0.49093823  0.62933058  1
  O  O212  1  0.24372314  0.99444970  0.12875532  1
  O  O213  1  0.24524408  0.99517991  0.62915774  1
  O  O214  1  0.75403331  0.48538677  0.12332031  1
  O  O215  1  0.74608276  0.49697472  0.63285238  1
  O  O216  1  0.74836278  0.99102135  0.13109900  1
  O  O217  1  0.74451350  0.99176992  0.63300510  1
  O  O218  1  0.00074587  0.37312485  0.26195084  1
  O  O219  1  0.00099474  0.36734783  0.75577029  1
  O  O220  1  0.00470229  0.86512972  0.24858089  1
  O  O221  1  0.00888595  0.86631529  0.74942206  1
  O  O222  1  0.50679638  0.37236230  0.25466929  1
  O  O223  1  0.50554504  0.36895279  0.75359916  1
  O  O224  1  0.50042574  0.86894757  0.24453345  1
  O  O225  1  0.49323158  0.87341876  0.76608611  1
  O  O226  1  0.49209107  0.13389515  0.24692044  1
  O  O227  1  0.48659140  0.12347370  0.75309659  1
  O  O228  1  0.49103912  0.62589257  0.24259790  1
  O  O229  1  0.49357952  0.62648648  0.74352226  1
  O  O230  1  0.98998944  0.12825112  0.24677880  1
  O  O231  1  0.99607494  0.12856773  0.74549248  1
  O  O232  1  1.00139603  0.63499770  0.24359496  1
  O  O233  1  0.99769971  0.63094719  0.74568324  1
  O  O234  1  0.37010629  0.25449462  0.00301250  1
  O  O235  1  0.36019874  0.24271873  0.49532216  1
  O  O236  1  0.36331358  0.75634228  -0.00030824  1
  O  O237  1  0.37064819  0.75823372  0.50450331  1
  O  O238  1  0.86947936  0.25343664  0.00743855  1
  O  O239  1  0.86614735  0.25657690  0.50189277  1
  O  O240  1  0.86521013  0.75166348  0.00633863  1
  O  O241  1  0.86934456  0.74976136  0.50941716  1
  O  O242  1  0.13413919  0.24285256  0.49322205  1
  O  O243  1  0.13114445  0.24404919  0.99400952  1
  O  O244  1  0.13208447  0.74412100  0.50087352  1
  O  O245  1  0.13611611  0.74428100  1.00472418  1
  O  O246  1  0.63021588  0.25093109  0.49454932  1
  O  O247  1  0.62931667  0.24145998  0.99356533  1
  O  O248  1  0.63070702  0.74534132  0.49276273  1
  O  O249  1  0.63516505  0.74894182  0.99320057  1
  O  O250  1  0.49217108  0.24981036  0.12968637  1
  O  O251  1  0.50407678  0.24982077  0.62029984  1
  O  O252  1  0.49352967  0.73746861  0.12317260  1
  O  O253  1  0.49586612  0.74468825  0.62595414  1
  O  O254  1  0.98676056  0.25002687  0.12385942  1
  O  O255  1  1.00032702  0.24237644  0.63079429  1
  O  O256  1  0.99495210  0.74584174  0.13182923  1
  O  O257  1  0.99513641  0.74370854  0.63506229  1
  O  O258  1  0.00520648  0.25893264  0.37667640  1
  O  O259  1  0.00563717  0.25379038  0.87029185  1
  O  O260  1  0.00096683  0.75073324  0.36337983  1
  O  O261  1  -0.00436687  0.74962717  0.86116347  1
  O  O262  1  0.50230282  0.25973041  0.36801854  1
  O  O263  1  0.51298519  0.24864224  0.87455990  1
  O  O264  1  0.51511949  0.74389726  0.37832431  1
  O  O265  1  0.50791476  0.75739689  0.87752523  1
  O  O266  1  0.24378768  0.13138930  0.49324903  1
  O  O267  1  0.24607298  0.13022897  0.99308821  1
  O  O268  1  0.24598019  0.63062964  0.49523782  1
  O  O269  1  0.24591410  0.63240758  0.99484988  1
  O  O270  1  0.75611716  0.13037613  0.48832097  1
  O  O271  1  0.74245786  0.12791577  0.99585340  1
  O  O272  1  0.74430909  0.63003779  0.49553433  1
  O  O273  1  0.74881664  0.63681077  1.00187062  1
  O  O274  1  0.25559907  0.36992409  0.00396138  1
  O  O275  1  0.24547840  0.36444716  0.50634934  1
  O  O276  1  0.25222299  0.86880656  0.00161171  1
  O  O277  1  0.25783918  0.87010208  0.50643352  1
  O  O278  1  0.75425856  0.36879891  0.00767360  1
  O  O279  1  0.75387916  0.37015267  0.50443357  1
  O  O280  1  0.75111168  0.86588611  0.01016657  1
  O  O281  1  0.75491697  0.86713955  0.51294695  1
  O  O282  1  0.13163989  0.49962680  0.24154618  1
  O  O283  1  0.13554467  0.49715269  0.74646206  1
  O  O284  1  0.12880754  0.99591613  0.24427671  1
  O  O285  1  0.13077462  0.99319309  0.74379537  1
  O  O286  1  0.62575330  0.48647934  0.25414375  1
  O  O287  1  0.63578762  0.50273075  0.74568454  1
  O  O288  1  0.63195739  1.00127140  0.24799799  1
  O  O289  1  0.63940707  1.00407757  0.74347810  1
  O  O290  1  0.36684427  0.00402118  0.25360113  1
  O  O291  1  0.37080308  0.00955759  0.75319613  1
  O  O292  1  0.36926684  0.51011885  0.25542522  1
  O  O293  1  0.37009007  0.50665282  0.75511693  1
  O  O294  1  0.86837782  0.00587597  0.25569355  1
  O  O295  1  0.86798977  0.00435340  0.75600753  1
  O  O296  1  0.86871131  0.50443961  0.25482851  1
  O  O297  1  0.86618574  0.50514795  0.74992490  1
  O  O298  1  0.11543583  0.36933255  0.37468084  1
  O  O299  1  0.11843641  0.36729212  0.87393649  1
  O  O300  1  0.12234149  0.87235534  0.36606218  1
  O  O301  1  0.12376350  0.88109063  0.85944952  1
  O  O302  1  0.61589271  0.36967130  0.36627396  1
  O  O303  1  0.62542396  0.36085128  0.87423814  1
  O  O304  1  0.63086735  0.85992926  0.38004991  1
  O  O305  1  0.61459615  0.86586904  0.88250596  1
  O  O306  1  0.37498579  0.13177730  0.12971772  1
  O  O307  1  0.37206008  0.12482782  0.63754643  1
  O  O308  1  0.38104909  0.62457180  0.13508201  1
  O  O309  1  0.38065456  0.63129770  0.62957418  1
  O  O310  1  0.87218994  0.13510000  0.13027316  1
  O  O311  1  0.88191496  0.12494523  0.63257563  1
  O  O312  1  0.88262489  0.63264056  0.12710155  1
  O  O313  1  0.88212072  0.63043982  0.63166163  1
  O  O314  1  0.25481753  0.25550915  0.11751841  1
  O  O315  1  0.25313367  0.25563338  0.61422413  1
  O  O316  1  0.25204952  0.75614011  0.11330606  1
  O  O317  1  0.25777629  0.75560720  0.61961266  1
  O  O318  1  0.75880716  0.25743828  0.12054838  1
  O  O319  1  0.75091690  0.25662181  0.61953324  1
  O  O320  1  0.75230471  0.75598345  0.12011166  1
  O  O321  1  0.75414699  0.75520999  0.62372592  1
  O  O322  1  0.24479139  0.24547392  0.37972926  1
  O  O323  1  0.24581664  0.24558150  0.87976970  1
  O  O324  1  0.24840241  0.74267415  0.38221096  1
  O  O325  1  0.25467402  0.74414715  0.88530794  1
  O  O326  1  0.74409107  0.24358925  0.38075938  1
  O  O327  1  0.74327526  0.24264529  0.88129437  1
  O  O328  1  0.74203283  0.74134465  0.38153008  1
  O  O329  1  0.74386157  0.75295355  0.88465869  1
  O  O330  1  0.00651952  0.11503910  0.00162463  1
  O  O331  1  0.00587962  0.11995800  0.50545710  1
  O  O332  1  0.00481005  0.62069484  0.00496965  1
  O  O333  1  0.00519177  0.62050852  0.50524682  1
  O  O334  1  0.50745426  0.11561715  -0.00166366  1
  O  O335  1  0.49483555  0.11472008  0.49224580  1
  O  O336  1  0.49829684  0.61641964  0.00837820  1
  O  O337  1  0.50514342  0.62001771  0.50696613  1
  O  O338  1  0.50482696  0.38449529  0.48376967  1
  O  O339  1  0.49373736  0.38323812  0.99831071  1
  O  O340  1  0.48602838  0.88148246  0.50582768  1
  O  O341  1  0.49455010  0.88272806  0.99326227  1
  O  O342  1  0.99638514  0.37865391  0.49261015  1
  O  O343  1  0.99491199  0.37995886  0.99452227  1
  O  O344  1  0.99877355  0.88268852  0.50073756  1
  O  O345  1  1.00071352  0.88622420  0.99890229  1
  O  O346  1  0.49546345  0.49516763  0.37819312  1
  O  O347  1  0.49290886  0.50077310  0.88438061  1
  O  O348  1  0.48402788  1.00181539  0.36913689  1
  O  O349  1  0.49801256  0.99258177  0.88317632  1
  O  O350  1  1.00043669  0.48996075  0.38098863  1
  O  O351  1  0.99863405  0.49247709  0.88145436  1
  O  O352  1  0.99280029  0.99945320  0.38212456  1
  O  O353  1  0.99583565  1.00009075  0.88498217  1
  O  O354  1  0.00426171  0.00054981  0.11564710  1
  O  O355  1  0.00575533  0.00553413  0.62101610  1
  O  O356  1  0.00508942  0.50480490  0.11897594  1
  O  O357  1  0.00184814  0.50624575  0.61841140  1
  O  O358  1  0.50121734  0.00250724  0.11123571  1
  O  O359  1  0.52186497  -0.00706612  0.63220195  1
  O  O360  1  0.49250574  0.50881965  0.11376551  1
  O  O361  1  0.50496310  0.50532309  0.61998844  1
  O  O362  1  0.24891029  0.38285151  0.24175821  1
  O  O363  1  0.24966003  0.38008846  0.74097862  1
  O  O364  1  0.24409939  0.87976405  0.24308106  1
  O  O365  1  0.24508957  0.87991231  0.74514833  1
  O  O366  1  0.74142811  0.37493628  0.24266522  1
  O  O367  1  0.75055776  0.38490514  0.74464134  1
  O  O368  1  0.74612920  0.88080628  0.24318026  1
  O  O369  1  0.75732872  0.88423125  0.74351286  1
  O  O370  1  0.25342912  0.11922366  0.25357559  1
  O  O371  1  0.25931528  0.12024578  0.75419089  1
  O  O372  1  0.25648709  0.62051691  0.25322147  1
  O  O373  1  0.25619535  0.62013762  0.75351018  1
  O  O374  1  0.75502990  0.12071572  0.25881871  1
  O  O375  1  0.75785021  0.11376809  0.75757070  1
  O  O376  1  0.74917316  0.62417905  0.26069051  1
  O  O377  1  0.75755921  0.61478104  0.75000967  1
  O  O378  1  0.36586831  0.11513505  0.36476900  1
  O  O379  1  0.37034781  0.11937967  0.86587196  1
  O  O380  1  0.36972128  0.62002920  0.36601665  1
  O  O381  1  0.36820750  0.62027811  0.86919558  1
  O  O382  1  0.86545714  0.12042916  0.36913303  1
  O  O383  1  0.86957357  0.11816437  0.87110973  1
  O  O384  1  0.86230763  0.62502980  0.37524714  1
  O  O385  1  0.87030916  0.62121415  0.86688539  1
  O  O386  1  0.13152856  0.38172727  0.12408295  1
  O  O387  1  0.13934024  0.37585758  0.62709557  1
  O  O388  1  0.13057919  0.88202949  0.13060702  1
  O  O389  1  0.13192697  0.88091911  0.63449231  1
  O  O390  1  0.63544842  0.36553760  0.13438009  1
  O  O391  1  0.63481991  0.38634412  0.62822987  1
  O  O392  1  0.63640258  0.87503491  0.12505172  1
  O  O393  1  0.63948984  0.88176969  0.62486832  1
  O  O394  1  0.12234549  0.25295111  0.25730507  1
  O  O395  1  0.11899494  0.24847094  0.75697633  1
  O  O396  1  0.11525895  0.75552444  0.24794175  1
  O  O397  1  0.11686739  0.75962325  0.74287943  1
  O  O398  1  0.61861761  0.25914813  0.25684922  1
  O  O399  1  0.62724744  0.24597445  0.76180874  1
  O  O400  1  0.62333457  0.75123337  0.26743441  1
  O  O401  1  0.62507759  0.74631384  0.76510300  1
  O  O402  1  0.37859121  0.24490636  0.24356393  1
  O  O403  1  0.37761867  0.23501299  0.74887377  1
  O  O404  1  0.37346760  0.73713750  0.24946231  1
  O  O405  1  0.37754925  0.74422243  0.74259355  1
  O  O406  1  0.87419105  0.24529015  0.24051449  1
  O  O407  1  0.88155493  0.24116340  0.74939833  1
  O  O408  1  0.88433324  0.74876397  0.24462711  1
  O  O409  1  0.88375983  0.74418791  0.74530568  1
  O  O410  1  0.38330451  0.50855609  0.48943915  1
  O  O411  1  0.38141151  0.49466197  0.99376874  1
  O  O412  1  0.37223852  0.99178464  0.48864818  1
  O  O413  1  0.38253349  0.99660063  0.99330839  1
  O  O414  1  0.88253412  0.49276911  0.49664676  1
  O  O415  1  0.88261940  0.49276205  0.99930594  1
  O  O416  1  0.88192310  0.99951176  0.49463414  1
  O  O417  1  0.88401827  1.00068455  0.99555665  1
  O  O418  1  0.11873273  0.00481363  0.00407067  1
  O  O419  1  0.12146471  0.00509171  0.50526144  1
  O  O420  1  0.11966366  0.50619487  0.00508454  1
  O  O421  1  0.11863504  0.50781580  0.50156933  1
  O  O422  1  0.61768456  0.00807230  -0.00009735  1
  O  O423  1  0.62585459  -0.00586321  0.51590165  1
  O  O424  1  0.61113294  0.50018655  -0.00624421  1
  O  O425  1  0.61766720  0.50661561  0.50662929  1
  O  O426  1  0.36862118  0.36972537  0.11863621  1
  O  O427  1  0.36331823  0.36915867  0.62863604  1
  O  O428  1  0.36551219  0.87513773  0.11508234  1
  O  O429  1  0.37005998  0.87224379  0.61757347  1
  O  O430  1  0.86728657  0.36660762  0.12070411  1
  O  O431  1  0.86902092  0.37270781  0.61727156  1
  O  O432  1  0.86179542  0.86843480  0.12409366  1
  O  O433  1  0.86467385  0.86836963  0.62583585  1
  O  O434  1  0.12948765  0.12941771  0.37977104  1
  O  O435  1  0.13211437  0.12975555  0.87997771  1
  O  O436  1  0.13186395  0.62731860  0.38205380  1
  O  O437  1  0.13427033  0.61889859  0.88344044  1
  O  O438  1  0.63686434  0.13291540  0.36949520  1
  O  O439  1  0.63050733  0.12933321  0.88467234  1
  O  O440  1  0.63189123  0.63394779  0.38146473  1
  O  O441  1  0.62858391  0.63669052  0.88240665  1
