# generated using pymatgen
data_V93Zn93O256
_symmetry_space_group_name_H-M   'P 1'
_cell_length_a   17.05122428
_cell_length_b   17.05510124
_cell_length_c   17.05548587
_cell_angle_alpha   89.97000230
_cell_angle_beta   90.04332022
_cell_angle_gamma   89.96728854
_symmetry_Int_Tables_number   1
_chemical_formula_structural   V93Zn93O256
_chemical_formula_sum   'V93 Zn93 O256'
_cell_volume   4959.90901478
_cell_formula_units_Z   1
loop_
 _symmetry_equiv_pos_site_id
 _symmetry_equiv_pos_as_xyz
  1  'x, y, z'
loop_
 _atom_site_type_symbol
 _atom_site_label
 _atom_site_symmetry_multiplicity
 _atom_site_fract_x
 _atom_site_fract_y
 _atom_site_fract_z
 _atom_site_occupancy
  V  V0  1  0.37660216  0.74899131  0.12483572  1
  V  V1  1  0.00010145  0.37575759  0.37394819  1
  V  V2  1  0.62486050  0.87456050  0.25114776  1
  V  V3  1  0.12571678  0.50081255  0.62511086  1
  V  V4  1  0.49867688  0.87466784  0.37656694  1
  V  V5  1  0.37406199  0.12471689  0.75035788  1
  V  V6  1  0.12643061  -0.00505669  0.13084130  1
  V  V7  1  0.12738586  0.63125030  0.49569211  1
  V  V8  1  0.00048502  -0.00065242  0.49935448  1
  V  V9  1  0.49975281  0.25123808  0.75089981  1
  V  V10  1  0.49917233  0.12484818  0.12490124  1
  V  V11  1  0.25047037  0.37528278  0.62458971  1
  V  V12  1  0.25124978  0.74939268  -0.00243562  1
  V  V13  1  0.62695555  0.12576378  0.49915039  1
  V  V14  1  0.62447758  0.37867455  0.74669853  1
  V  V15  1  0.87721907  0.63007975  0.25035599  1
  V  V16  1  0.50031200  0.12483072  0.62558981  1
  V  V17  1  0.62517656  0.50091427  0.12306885  1
  V  V18  1  0.00157331  0.87423061  0.87500724  1
  V  V19  1  0.37535345  0.37658512  0.49864749  1
  V  V20  1  0.25497976  0.50018434  0.75601426  1
  V  V21  1  0.75116368  0.62556488  0.87457158  1
  V  V22  1  0.74601795  0.50146351  0.74518699  1
  V  V23  1  0.37536223  0.24950341  0.12490862  1
  V  V24  1  0.50362041  0.87525084  0.87305561  1
  V  V25  1  0.62431455  0.25080711  0.87476887  1
  V  V26  1  0.74932590  0.00102132  0.25124332  1
  V  V27  1  0.50421119  0.49914588  0.50234607  1
  V  V28  1  0.87458760  0.00037347  0.87490940  1
  V  V29  1  0.62568001  -0.00474426  0.63199962  1
  V  V30  1  0.37623104  0.62194468  0.75500678  1
  V  V31  1  0.49957808  0.00056009  0.00008456  1
  V  V32  1  0.62561583  0.75458397  0.87323406  1
  V  V33  1  0.87440251  0.75022108  0.62518293  1
  V  V34  1  0.75055683  0.62613590  0.37552741  1
  V  V35  1  0.74927975  0.25017638  0.50023213  1
  V  V36  1  0.87433741  0.12421740  0.75049970  1
  V  V37  1  0.37551326  0.00010700  0.37617982  1
  V  V38  1  0.49738128  0.50075083  -0.00720957  1
  V  V39  1  0.24700921  0.87353107  0.13216857  1
  V  V40  1  0.12708182  0.74917515  0.87402873  1
  V  V41  1  0.87556493  -0.00162623  0.37533420  1
  V  V42  1  0.37561440  0.12395165  0.25014743  1
  V  V43  1  -0.00047981  0.49961696  -0.00114958  1
  V  V44  1  0.36876017  0.87501749  0.50296588  1
  V  V45  1  0.74729020  0.87461709  0.63115628  1
  V  V46  1  0.24928210  0.63070456  0.37564764  1
  V  V47  1  0.50441453  0.62182921  0.62487209  1
  V  V48  1  -0.00018509  0.12464521  0.12734912  1
  V  V49  1  0.37484944  0.00020321  0.87383568  1
  V  V50  1  0.62552873  0.62522367  0.00029915  1
  V  V51  1  0.12476849  0.25079680  0.37456378  1
  V  V52  1  0.87550348  0.62468683  0.74936625  1
  V  V53  1  0.25002989  0.37469953  0.12557525  1
  V  V54  1  0.74848069  0.37759708  0.62478442  1
  V  V55  1  0.00017027  0.62604083  0.62455734  1
  V  V56  1  0.87459158  0.37558115  0.49991138  1
  V  V57  1  0.00022334  -0.00152695  0.00089442  1
  V  V58  1  0.50464116  0.75540025  0.74917173  1
  V  V59  1  0.36988164  0.75297214  0.62374359  1
  V  V60  1  0.25054274  0.12495409  0.37455003  1
  V  V61  1  0.87529109  0.24938013  0.62603033  1
  V  V62  1  0.62442346  0.74976769  0.37593546  1
  V  V63  1  0.12771997  0.12633443  -0.00134168  1
  V  V64  1  0.25054579  -0.00330239  0.74555366  1
  V  V65  1  0.37563978  0.62377177  0.25040122  1
  V  V66  1  0.12521667  0.12546007  0.50046449  1
  V  V67  1  0.75064155  0.87459527  0.12557709  1
  V  V68  1  0.62394261  0.12602651  -0.00010123  1
  V  V69  1  0.01198218  0.86889428  0.36881102  1
  V  V70  1  0.62452791  0.62290553  0.50155244  1
  V  V71  1  0.12607683  -0.00181640  0.62567767  1
  V  V72  1  0.37519317  0.87474381  -0.00031171  1
  V  V73  1  0.12589561  0.49803814  0.12434376  1
  V  V74  1  0.00087047  0.50050461  0.49977878  1
  V  V75  1  0.75006207  0.37562046  0.12500219  1
  V  V76  1  0.87491176  0.87421548  0.00026212  1
  V  V77  1  0.37495910  0.25036576  0.62496290  1
  V  V78  1  0.62207835  0.37407727  0.25093878  1
  V  V79  1  0.12257555  0.37343441  0.75103270  1
  V  V80  1  0.49918066  0.74867660  0.24996557  1
  V  V81  1  0.74968700  0.50231675  0.25064754  1
  V  V82  1  -0.00104310  0.12478922  0.62600209  1
  V  V83  1  0.12883916  0.87345487  0.74496508  1
  V  V84  1  0.37544605  0.37846101  -0.00733143  1
  V  V85  1  0.87500232  0.37693112  -0.00161573  1
  V  V86  1  0.12573956  0.62438210  -0.00263821  1
  V  V87  1  0.50032225  -0.00051748  0.50112034  1
  V  V88  1  0.74934243  0.75060284  0.50133397  1
  V  V89  1  0.75088201  0.75061358  0.00049020  1
  V  V90  1  0.74997141  0.12486847  0.87535454  1
  V  V91  1  0.00037064  0.62573198  0.12555973  1
  V  V92  1  0.87500400  0.24958468  0.12543500  1
  Zn  Zn93  1  0.12511760  0.37598629  0.24945474  1
  Zn  Zn94  1  0.74685166  -0.00434103  0.75344706  1
  Zn  Zn95  1  0.25128042  0.24938623  -0.00371833  1
  Zn  Zn96  1  -0.00021909  0.24994759  0.75262178  1
  Zn  Zn97  1  0.25450365  0.62183759  0.87662186  1
  Zn  Zn98  1  0.24605747  0.75543594  0.50117109  1
  Zn  Zn99  1  0.87731665  0.87389311  0.50078199  1
  Zn  Zn100  1  0.62548513  0.25110826  0.37420847  1
  Zn  Zn101  1  0.49983196  0.62470604  0.12459561  1
  Zn  Zn102  1  0.00124429  0.74934352  0.74936545  1
  Zn  Zn103  1  0.62391030  0.00060786  0.12529540  1
  Zn  Zn104  1  0.49541008  0.37959270  0.87081810  1
  Zn  Zn105  1  0.25119347  0.25068872  0.49993077  1
  Zn  Zn106  1  0.87874513  0.75204077  0.12578294  1
  Zn  Zn107  1  0.37444248  0.49954612  0.37361032  1
  Zn  Zn108  1  0.01620514  0.75177943  0.24822052  1
  Zn  Zn109  1  0.12378916  0.24908682  0.87499650  1
  Zn  Zn110  1  0.74849539  0.25055035  -0.00039590  1
  Zn  Zn111  1  0.75201213  0.12674892  0.37510724  1
  Zn  Zn112  1  0.24931290  -0.00365521  0.25248923  1
  Zn  Zn113  1  0.87567325  0.50151582  0.37500540  1
  Zn  Zn114  1  0.24895371  0.12566311  0.87497614  1
  Zn  Zn115  1  -0.00101194  0.25109501  0.25054849  1
  Zn  Zn116  1  0.87565786  0.49956903  0.87329015  1
  Zn  Zn117  1  0.50077657  0.24949448  0.25274660  1
  Zn  Zn118  1  -0.00025766  0.37368427  0.87417132  1
  Zn  Zn119  1  0.49961655  0.37408528  0.37453334  1
  Zn  Zn120  1  0.24985224  0.49954432  0.25230832  1
  Zn  Zn121  1  0.87294595  0.12630202  0.25082250  1
  Zn  Zn122  1  0.18894784  0.18760910  0.18827820  1
  Zn  Zn123  1  0.18879296  0.18699480  0.68677595  1
  Zn  Zn124  1  0.19077511  0.68237514  0.18306022  1
  Zn  Zn125  1  0.18809558  0.68551531  0.68681623  1
  Zn  Zn126  1  0.68700765  0.18770933  0.18535066  1
  Zn  Zn127  1  0.68865545  0.18772158  0.68832020  1
  Zn  Zn128  1  0.68800816  0.68855752  0.18645637  1
  Zn  Zn129  1  0.68696871  0.68803996  0.68732105  1
  Zn  Zn130  1  0.31294255  0.31038272  0.31156454  1
  Zn  Zn131  1  0.30706601  0.30900043  0.81373218  1
  Zn  Zn132  1  0.19013110  0.80791120  0.31309886  1
  Zn  Zn133  1  0.31475758  0.81156056  0.81162807  1
  Zn  Zn134  1  0.81047453  0.31236737  0.31302691  1
  Zn  Zn135  1  0.81071748  0.31050541  0.81245165  1
  Zn  Zn136  1  0.81460885  0.81389793  0.31438759  1
  Zn  Zn137  1  0.81424743  0.81131658  0.81237211  1
  Zn  Zn138  1  0.18922192  0.44263050  0.43701159  1
  Zn  Zn139  1  0.18798577  0.43644662  0.93717703  1
  Zn  Zn140  1  0.18941613  0.94216543  0.44049931  1
  Zn  Zn141  1  0.18855113  0.93792415  0.93734827  1
  Zn  Zn142  1  0.68745305  0.43942770  0.43605441  1
  Zn  Zn143  1  0.68757686  0.43866665  0.93421403  1
  Zn  Zn144  1  0.68781829  0.93628247  0.44106269  1
  Zn  Zn145  1  0.68657728  0.93836657  0.93819615  1
  Zn  Zn146  1  0.31200374  0.06050951  0.06352216  1
  Zn  Zn147  1  0.31113743  0.06320167  0.56276954  1
  Zn  Zn148  1  0.31304667  0.56105015  0.06239036  1
  Zn  Zn149  1  0.31352274  0.56287292  0.56508839  1
  Zn  Zn150  1  0.81098050  0.06195589  0.06159469  1
  Zn  Zn151  1  0.81226107  0.06033976  0.56313029  1
  Zn  Zn152  1  0.81282029  0.56340683  0.06439086  1
  Zn  Zn153  1  0.81334313  0.56213001  0.56243284  1
  Zn  Zn154  1  0.43861085  0.43926265  0.18099539  1
  Zn  Zn155  1  0.43766162  0.43845590  0.68523348  1
  Zn  Zn156  1  0.43590916  0.93702842  0.18831754  1
  Zn  Zn157  1  0.43753690  0.93681108  0.68618001  1
  Zn  Zn158  1  0.93752645  0.44087373  0.18839649  1
  Zn  Zn159  1  0.93599856  0.43962342  0.68630402  1
  Zn  Zn160  1  0.93721797  0.93697009  0.18920081  1
  Zn  Zn161  1  0.93725632  0.93663630  0.68841463  1
  Zn  Zn162  1  0.06212994  0.06145435  0.31251519  1
  Zn  Zn163  1  0.06085794  0.06082320  0.81236835  1
  Zn  Zn164  1  0.06517088  0.56246918  0.31081337  1
  Zn  Zn165  1  0.06209550  0.56008954  0.81345210  1
  Zn  Zn166  1  0.56130240  0.06232133  0.31301452  1
  Zn  Zn167  1  0.56144761  0.06428143  0.81391051  1
  Zn  Zn168  1  0.56077366  0.55996540  0.31537486  1
  Zn  Zn169  1  0.56468569  0.56577647  0.81288155  1
  Zn  Zn170  1  0.44075339  0.19030632  0.43529713  1
  Zn  Zn171  1  0.43699556  0.18989601  0.93705023  1
  Zn  Zn172  1  0.43491818  0.68857823  0.43641340  1
  Zn  Zn173  1  0.44003967  0.68826982  0.93728739  1
  Zn  Zn174  1  0.93686861  0.18694780  0.43900771  1
  Zn  Zn175  1  0.94044482  0.18958285  0.93641218  1
  Zn  Zn176  1  0.93748746  0.68914001  0.43831233  1
  Zn  Zn177  1  0.93849850  0.68806177  0.93617097  1
  Zn  Zn178  1  0.06158091  0.31151612  0.06172760  1
  Zn  Zn179  1  0.06190423  0.31197782  0.56307547  1
  Zn  Zn180  1  0.06354950  0.80957364  0.06308720  1
  Zn  Zn181  1  0.05993172  0.81323223  0.56156860  1
  Zn  Zn182  1  0.55986179  0.31277757  0.06247965  1
  Zn  Zn183  1  0.56251860  0.31215909  0.56475718  1
  Zn  Zn184  1  0.56378336  0.81349661  0.06280337  1
  Zn  Zn185  1  0.56129910  0.81195357  0.56351644  1
  O  O186  1  0.11809536  0.11800668  0.11846535  1
  O  O187  1  0.11922350  0.11908066  0.62018011  1
  O  O188  1  0.12071241  0.61696571  0.11556127  1
  O  O189  1  0.12043416  0.61910152  0.61817375  1
  O  O190  1  0.61790094  0.12319436  0.11832375  1
  O  O191  1  0.62106180  0.11800715  0.61679566  1
  O  O192  1  0.62498428  0.61923472  0.11780795  1
  O  O193  1  0.61139102  0.63285302  0.61837823  1
  O  O194  1  0.37523788  0.37549064  0.38720241  1
  O  O195  1  0.37423436  0.36956664  0.88877268  1
  O  O196  1  0.38527969  0.88495332  0.38992772  1
  O  O197  1  0.38226929  0.88025466  0.87994553  1
  O  O198  1  0.88433821  0.37532408  0.38084596  1
  O  O199  1  0.87306783  0.37473683  0.88840598  1
  O  O200  1  0.88373997  0.88575067  0.37747370  1
  O  O201  1  0.88076705  0.88006729  0.88007641  1
  O  O202  1  0.25644677  0.00720488  0.37295001  1
  O  O203  1  0.25650457  0.00135622  0.86407511  1
  O  O204  1  0.25486280  0.51122715  0.37205887  1
  O  O205  1  0.24696081  0.50130920  0.85968275  1
  O  O206  1  0.75846193  -0.00169372  0.36852537  1
  O  O207  1  0.75594329  0.00543353  0.87369271  1
  O  O208  1  0.75221898  0.50883183  0.36902028  1
  O  O209  1  0.75223287  0.50738256  0.86395615  1
  O  O210  1  0.24443305  0.48958600  0.12449788  1
  O  O211  1  0.24529618  0.49502426  0.63414370  1
  O  O212  1  0.24329172  0.99012051  0.12551155  1
  O  O213  1  0.24345121  1.00456854  0.63743826  1
  O  O214  1  0.74449184  0.49533031  0.13100189  1
  O  O215  1  0.75378173  0.49472298  0.63697263  1
  O  O216  1  0.74961175  0.99446345  0.13598154  1
  O  O217  1  0.74252055  0.99136377  0.62588709  1
  O  O218  1  0.00084953  0.37438542  0.26198524  1
  O  O219  1  0.01135296  0.37694752  0.74820994  1
  O  O220  1  -0.00200986  0.87501196  0.26523382  1
  O  O221  1  0.01146392  0.87482349  0.75689240  1
  O  O222  1  0.51175435  0.37693808  0.24784124  1
  O  O223  1  0.50759032  0.37220828  0.74961971  1
  O  O224  1  0.50481473  0.86959148  0.25642881  1
  O  O225  1  0.49335757  0.86234010  0.75553290  1
  O  O226  1  0.49401010  0.12459168  0.24306118  1
  O  O227  1  0.49398787  0.13073554  0.74420051  1
  O  O228  1  0.49415837  0.62963898  0.24951279  1
  O  O229  1  0.49471815  0.63060290  0.74300466  1
  O  O230  1  0.99728285  0.12508784  0.23688326  1
  O  O231  1  0.99328184  0.12467459  0.74299463  1
  O  O232  1  0.99127417  0.62493736  0.24573901  1
  O  O233  1  0.99452704  0.62461335  0.74231012  1
  O  O234  1  0.37486278  0.25945471  0.00758351  1
  O  O235  1  0.37643689  0.26041515  0.50635472  1
  O  O236  1  0.37194850  0.75493236  0.00444099  1
  O  O237  1  0.37635719  0.75810679  0.50802466  1
  O  O238  1  0.87533792  0.25891430  0.01056795  1
  O  O239  1  0.86911582  0.25545792  0.50579821  1
  O  O240  1  0.86837569  0.75686176  0.00006374  1
  O  O241  1  0.86691078  0.75052006  0.50740957  1
  O  O242  1  0.12546602  0.24462216  0.48994316  1
  O  O243  1  0.12528008  0.23672650  1.00171037  1
  O  O244  1  0.12813514  0.73565191  0.50959203  1
  O  O245  1  0.13172252  0.74391569  0.99370274  1
  O  O246  1  0.63048399  0.24041181  0.50328436  1
  O  O247  1  0.62493519  0.24468084  0.99336215  1
  O  O248  1  0.62896508  0.74362521  0.49466394  1
  O  O249  1  0.63114038  0.74497331  0.99429409  1
  O  O250  1  0.49271965  0.24263007  0.12727640  1
  O  O251  1  0.49461943  0.24408239  0.63167549  1
  O  O252  1  0.49488576  0.74922827  0.13104551  1
  O  O253  1  0.49313121  0.74291376  0.63205682  1
  O  O254  1  0.99236698  0.24165456  0.12660788  1
  O  O255  1  0.99251387  0.24250551  0.62522077  1
  O  O256  1  0.99798851  0.74189910  0.12778447  1
  O  O257  1  0.99242434  0.74354096  0.62608295  1
  O  O258  1  0.00684735  0.25813968  0.37565094  1
  O  O259  1  0.00557325  0.25545874  0.87053373  1
  O  O260  1  -0.00301836  0.76728614  0.37611993  1
  O  O261  1  0.00863009  0.75643978  0.87267361  1
  O  O262  1  0.50732043  0.25591945  0.37080466  1
  O  O263  1  0.50621893  0.25328543  0.86693338  1
  O  O264  1  0.50590372  0.75467995  0.37033025  1
  O  O265  1  0.50493914  0.75512632  0.86682659  1
  O  O266  1  0.24312299  0.12685661  0.49317960  1
  O  O267  1  0.23912238  0.12393982  1.00040900  1
  O  O268  1  0.24380155  0.62367931  0.49423400  1
  O  O269  1  0.24523670  0.63014257  0.99727874  1
  O  O270  1  0.74151208  0.13003695  0.50143463  1
  O  O271  1  0.74274325  0.12616589  0.99362724  1
  O  O272  1  0.74450941  0.62995432  0.49627680  1
  O  O273  1  0.74583739  0.63018847  0.99468295  1
  O  O274  1  0.25782850  0.37556912  0.00897093  1
  O  O275  1  0.25978293  0.37654077  0.50612467  1
  O  O276  1  0.25688794  0.86937552  0.00570458  1
  O  O277  1  0.26376431  0.87395236  0.49570689  1
  O  O278  1  0.75851008  0.37561998  0.00661212  1
  O  O279  1  0.75384645  0.37178016  0.50506053  1
  O  O280  1  0.75545795  0.87076615  0.00543995  1
  O  O281  1  0.75188079  0.86817434  0.51081482  1
  O  O282  1  0.12793025  0.49672090  0.23933675  1
  O  O283  1  0.13329800  0.49322805  0.74378585  1
  O  O284  1  0.12745920  1.00575070  0.23442093  1
  O  O285  1  0.13199990  0.99280591  0.74640110  1
  O  O286  1  0.62973296  0.49405464  0.24420932  1
  O  O287  1  0.63488405  0.49185645  0.75523862  1
  O  O288  1  0.63450355  0.99347282  0.25202550  1
  O  O289  1  0.62549700  1.00704937  0.73550710  1
  O  O290  1  0.37377003  0.00584889  0.25824306  1
  O  O291  1  0.36843469  0.00338379  0.75246125  1
  O  O292  1  0.37743856  0.51261361  0.24833942  1
  O  O293  1  0.36675423  0.51002934  0.74144948  1
  O  O294  1  0.86530839  0.00036353  0.25764475  1
  O  O295  1  0.87355708  0.00595164  0.75774440  1
  O  O296  1  0.86871464  0.51191650  0.25135812  1
  O  O297  1  0.86438038  0.50570916  0.75116655  1
  O  O298  1  0.11739522  0.36762422  0.37727080  1
  O  O299  1  0.12477299  0.37518162  0.86182184  1
  O  O300  1  0.11695710  0.87855064  0.37575032  1
  O  O301  1  0.12097265  0.87038630  0.86697792  1
  O  O302  1  0.62489631  0.37610428  0.36203570  1
  O  O303  1  0.62550025  0.36913582  0.86223413  1
  O  O304  1  0.61925463  0.86963164  0.37166761  1
  O  O305  1  0.61677710  0.86720973  0.88089749  1
  O  O306  1  0.37909318  0.12931232  0.12953835  1
  O  O307  1  0.38094201  0.12985336  0.63010042  1
  O  O308  1  0.37603571  0.63023693  0.13196405  1
  O  O309  1  0.38603967  0.63334301  0.63183650  1
  O  O310  1  0.88335043  0.13238201  0.12246695  1
  O  O311  1  0.87916154  0.12901872  0.62988800  1
  O  O312  1  0.88084455  0.62648758  0.13443383  1
  O  O313  1  0.87999260  0.63037757  0.62962591  1
  O  O314  1  0.25548422  0.25932230  0.12249803  1
  O  O315  1  0.25728102  0.25645751  0.62235623  1
  O  O316  1  0.25625194  0.75653736  0.11627917  1
  O  O317  1  0.26661730  0.74328376  0.62366877  1
  O  O318  1  0.76013779  0.25524537  0.12240060  1
  O  O319  1  0.75596469  0.25683216  0.61982490  1
  O  O320  1  0.75253781  0.75715050  0.11823593  1
  O  O321  1  0.75303960  0.75628907  0.62090738  1
  O  O322  1  0.24021160  0.24504710  0.37745333  1
  O  O323  1  0.24192250  0.24297964  0.87898098  1
  O  O324  1  0.24849250  0.73480696  0.38148515  1
  O  O325  1  0.24509145  0.74843142  0.88032102  1
  O  O326  1  0.74712141  0.24630056  0.38372437  1
  O  O327  1  0.74279487  0.24270461  0.87745141  1
  O  O328  1  0.74415500  0.74623710  0.38118075  1
  O  O329  1  0.74509397  0.74588054  0.88000595  1
  O  O330  1  0.00609300  0.11900285  0.01057534  1
  O  O331  1  0.00581868  0.11892844  0.50551770  1
  O  O332  1  0.00501915  0.61939526  0.00501796  1
  O  O333  1  0.00782196  0.62059886  0.50346318  1
  O  O334  1  0.50385456  0.11960502  0.00463530  1
  O  O335  1  0.50758028  0.11995241  0.50657792  1
  O  O336  1  0.50645675  0.61799278  0.00033576  1
  O  O337  1  0.50273477  0.61893292  0.50642930  1
  O  O338  1  0.49321643  0.38352083  0.50472572  1
  O  O339  1  0.49244269  0.38340123  0.99815350  1
  O  O340  1  0.49508266  0.88090826  0.49594763  1
  O  O341  1  0.49407176  0.88027142  0.99449075  1
  O  O342  1  0.99536785  0.37994708  0.49264349  1
  O  O343  1  0.98984877  0.38108519  1.00200964  1
  O  O344  1  1.00061914  0.88179937  0.48786633  1
  O  O345  1  0.99537720  0.87935191  0.99498911  1
  O  O346  1  0.49482957  0.49698492  0.38872395  1
  O  O347  1  0.50672877  0.49902755  0.88817673  1
  O  O348  1  0.49576462  0.99543890  0.38252645  1
  O  O349  1  0.49460504  0.99488247  0.87910892  1
  O  O350  1  1.00071465  0.48990771  0.38092245  1
  O  O351  1  0.99552114  0.49566981  0.88328660  1
  O  O352  1  0.99502902  0.99138724  0.37813982  1
  O  O353  1  0.99447620  0.99375008  0.88196158  1
  O  O354  1  0.00631538  0.00524904  0.12095756  1
  O  O355  1  0.00518864  0.00490783  0.61922600  1
  O  O356  1  0.00593513  0.50531244  0.11856946  1
  O  O357  1  0.00507084  0.50639699  0.61846084  1
  O  O358  1  0.49980330  0.00574690  0.11781801  1
  O  O359  1  0.50733187  0.00460532  0.62097190  1
  O  O360  1  0.50836799  0.50243552  0.11169618  1
  O  O361  1  0.49539068  0.51229969  0.61576375  1
  O  O362  1  0.25061730  0.37686350  0.23744361  1
  O  O363  1  0.24429902  0.38204103  0.74402031  1
  O  O364  1  0.24909153  0.87464252  0.23485654  1
  O  O365  1  0.24041818  0.88450638  0.75492084  1
  O  O366  1  0.74339092  0.38204782  0.24467591  1
  O  O367  1  0.74394413  0.38256768  0.74576834  1
  O  O368  1  0.74544869  0.88217460  0.24693156  1
  O  O369  1  0.75305730  0.87466866  0.73568840  1
  O  O370  1  0.25759637  0.12307501  0.25691348  1
  O  O371  1  0.25557209  0.11453582  0.75117372  1
  O  O372  1  0.26052673  0.62297797  0.25704761  1
  O  O373  1  0.25931480  0.61664276  0.74907418  1
  O  O374  1  0.74959472  0.11329892  0.25243902  1
  O  O375  1  0.75654703  0.12260906  0.75716110  1
  O  O376  1  0.75704306  0.62225611  0.25537701  1
  O  O377  1  0.75332794  0.61848629  0.75296337  1
  O  O378  1  0.37108942  0.11990260  0.37199268  1
  O  O379  1  0.37579419  0.11770842  0.86735756  1
  O  O380  1  0.36813730  0.62428889  0.36727176  1
  O  O381  1  0.37587188  0.63171928  0.85855613  1
  O  O382  1  0.87625842  0.11162862  0.37252124  1
  O  O383  1  0.87057273  0.11981731  0.87193599  1
  O  O384  1  0.86992252  0.62474084  0.36731306  1
  O  O385  1  0.86810987  0.62480784  0.86787804  1
  O  O386  1  0.13405820  0.37832024  0.12378116  1
  O  O387  1  0.13012639  0.38074627  0.63050600  1
  O  O388  1  0.13483936  0.88489674  0.11433807  1
  O  O389  1  0.11839221  0.88111750  0.63695091  1
  O  O390  1  0.63065920  0.38036458  0.13131500  1
  O  O391  1  0.63160457  0.36938842  0.63954239  1
  O  O392  1  0.63195790  0.87770613  0.13300965  1
  O  O393  1  0.63308736  0.88473119  0.61875865  1
  O  O394  1  0.12215689  0.25161566  0.26293568  1
  O  O395  1  0.12447655  0.26289295  0.74667387  1
  O  O396  1  0.12741322  0.74396853  0.24861866  1
  O  O397  1  0.12667750  0.75858354  0.75350405  1
  O  O398  1  0.62608032  0.26255295  0.24903269  1
  O  O399  1  0.61964474  0.25735010  0.75445963  1
  O  O400  1  0.62018642  0.75494482  0.25642440  1
  O  O401  1  0.61142971  0.74279089  0.75610295  1
  O  O402  1  0.37701441  0.24248491  0.24270546  1
  O  O403  1  0.37965231  0.24547038  0.74449054  1
  O  O404  1  0.38362507  0.73501187  0.24117296  1
  O  O405  1  0.38396519  0.74332782  0.74232772  1
  O  O406  1  0.87545644  0.24817176  0.23774408  1
  O  O407  1  0.87538788  0.24353659  0.74281031  1
  O  O408  1  0.87586846  0.73798903  0.24996542  1
  O  O409  1  0.87689955  0.74218137  0.74307043  1
  O  O410  1  0.38385160  0.49032558  0.50301232  1
  O  O411  1  0.38557137  0.49075630  1.00598647  1
  O  O412  1  0.38094591  0.99454678  0.49897691  1
  O  O413  1  0.38008830  0.99453304  0.99373512  1
  O  O414  1  0.88217279  0.49372536  0.49825458  1
  O  O415  1  0.87962815  0.49066429  1.00158728  1
  O  O416  1  0.88143026  0.99902433  0.49109676  1
  O  O417  1  0.88057738  0.99410142  0.99495713  1
  O  O418  1  0.11996419  0.00702192  0.00910092  1
  O  O419  1  0.12033749  0.00626950  0.50645074  1
  O  O420  1  0.11966287  0.50422227  0.00413211  1
  O  O421  1  0.12002693  0.50798132  0.50696177  1
  O  O422  1  0.61694950  0.00755761  0.00113555  1
  O  O423  1  0.62081828  0.00759448  0.50937778  1
  O  O424  1  0.61982968  0.50504822  0.00372248  1
  O  O425  1  0.61335427  0.50657880  0.49611342  1
  O  O426  1  0.36780113  0.37009743  0.11687635  1
  O  O427  1  0.37066063  0.36993786  0.61780888  1
  O  O428  1  0.36698554  0.86998761  0.11920118  1
  O  O429  1  0.38381720  0.86527798  0.61400760  1
  O  O430  1  0.87135829  0.36855764  0.11885843  1
  O  O431  1  0.86911713  0.36982987  0.61890817  1
  O  O432  1  0.86955464  0.87425416  0.11862242  1
  O  O433  1  0.86728612  0.86954234  0.62242066  1
  O  O434  1  0.12805733  0.13196082  0.37975874  1
  O  O435  1  0.12320261  0.12093719  0.88855283  1
  O  O436  1  0.13329246  0.61680116  0.38732168  1
  O  O437  1  0.12700490  0.63113360  0.88006216  1
  O  O438  1  0.62625166  0.12309193  0.39026489  1
  O  O439  1  0.62934995  0.13098803  0.87985662  1
  O  O440  1  0.63068340  0.63084209  0.38080467  1
  O  O441  1  0.63201450  0.63355599  0.88071389  1
