# generated using pymatgen
data_V93Zn93O256
_symmetry_space_group_name_H-M   'P 1'
_cell_length_a   17.04771250
_cell_length_b   17.04495154
_cell_length_c   17.04620682
_cell_angle_alpha   90.00004821
_cell_angle_beta   89.99086136
_cell_angle_gamma   89.96953291
_symmetry_Int_Tables_number   1
_chemical_formula_structural   V93Zn93O256
_chemical_formula_sum   'V93 Zn93 O256'
_cell_volume   4953.24226546
_cell_formula_units_Z   1
loop_
 _symmetry_equiv_pos_site_id
 _symmetry_equiv_pos_as_xyz
  1  'x, y, z'
loop_
 _atom_site_type_symbol
 _atom_site_label
 _atom_site_symmetry_multiplicity
 _atom_site_fract_x
 _atom_site_fract_y
 _atom_site_fract_z
 _atom_site_occupancy
  V  V0  1  0.49861559  0.24926020  0.25024923  1
  V  V1  1  0.75075048  0.12552585  0.87522224  1
  V  V2  1  0.87533533  0.12453029  0.75021506  1
  V  V3  1  0.49818842  0.62495395  0.12551723  1
  V  V4  1  -0.00111954  0.24853465  0.25020212  1
  V  V5  1  0.38456179  -0.00075211  0.88069035  1
  V  V6  1  -0.00117315  0.12422942  0.12561485  1
  V  V7  1  0.12188917  0.62528466  0.50287210  1
  V  V8  1  0.00022250  0.74913732  0.25023971  1
  V  V9  1  0.75030857  0.24967358  0.00011357  1
  V  V10  1  0.49753422  0.75344666  0.75177609  1
  V  V11  1  0.74960492  0.24928026  0.49913002  1
  V  V12  1  0.87564234  -0.00003119  0.87444174  1
  V  V13  1  0.12560761  0.49929799  0.12443305  1
  V  V14  1  0.62054240  0.12299592  -0.00124279  1
  V  V15  1  0.37490819  0.12412496  0.25098143  1
  V  V16  1  0.49754962  0.37570285  0.37463258  1
  V  V17  1  0.75107873  0.87381261  0.12669226  1
  V  V18  1  0.24516060  0.24569885  0.50145833  1
  V  V19  1  0.50035095  0.12367985  0.62429578  1
  V  V20  1  0.37478937  -0.00037802  0.37692235  1
  V  V21  1  0.87947243  0.62380694  0.74634021  1
  V  V22  1  0.87507152  0.49845605  0.87491098  1
  V  V23  1  0.62387596  0.37432291  0.24857762  1
  V  V24  1  0.49781851  0.50019195  0.50019850  1
  V  V25  1  0.00142525  0.25092966  0.74925958  1
  V  V26  1  0.12560409  0.87408341  0.25072254  1
  V  V27  1  0.24992274  0.37145111  0.11921376  1
  V  V28  1  0.87475352  0.24972075  0.62427661  1
  V  V29  1  0.12469538  0.74910398  0.37593529  1
  V  V30  1  0.24805444  0.75170745  -0.00788236  1
  V  V31  1  0.49979092  0.12156188  0.12375283  1
  V  V32  1  0.00454563  0.00352607  0.49977936  1
  V  V33  1  0.87436264  0.37420004  -0.00037921  1
  V  V34  1  0.62624781  0.87499167  0.75063371  1
  V  V35  1  -0.00011159  0.49917266  -0.00097691  1
  V  V36  1  0.74827447  0.37580332  0.62451890  1
  V  V37  1  0.74932261  0.12420971  0.37462347  1
  V  V38  1  0.87431575  0.37522838  0.49833218  1
  V  V39  1  0.62499289  0.50025770  0.62770007  1
  V  V40  1  0.12567125  0.62961103  -0.00757004  1
  V  V41  1  0.75205797  0.87592193  0.62539300  1
  V  V42  1  0.00095650  0.62414205  0.12433379  1
  V  V43  1  0.12984707  0.12810799  -0.00781795  1
  V  V44  1  0.12463436  0.00015908  0.12587640  1
  V  V45  1  0.87565300  0.74862238  0.12514857  1
  V  V46  1  0.62393870  0.50013971  0.12337988  1
  V  V47  1  0.62544698  0.62582092  0.49955009  1
  V  V48  1  0.88087668  0.74669753  0.62474895  1
  V  V49  1  0.00061255  -0.00117584  0.00058075  1
  V  V50  1  0.24867425  0.12515779  0.37833202  1
  V  V51  1  0.87457745  0.24924626  0.12463432  1
  V  V52  1  0.62380414  0.12553399  0.50097680  1
  V  V53  1  0.50047703  0.74912541  0.25119568  1
  V  V54  1  0.87746757  0.87390224  0.50066095  1
  V  V55  1  0.49541124  0.63163482  0.62532898  1
  V  V56  1  0.37340882  0.50043892  0.37529221  1
  V  V57  1  0.50161433  0.87445192  0.37650349  1
  V  V58  1  0.49521966  0.49972880  -0.00284884  1
  V  V59  1  0.12245737  0.50451520  0.62350560  1
  V  V60  1  0.62165996  -0.00239278  0.12084519  1
  V  V61  1  0.37290261  0.24869076  0.12395327  1
  V  V62  1  0.00186385  0.12490841  0.62275169  1
  V  V63  1  0.37363473  0.62453943  0.25100927  1
  V  V64  1  0.37304460  0.25160494  0.62488122  1
  V  V65  1  0.12424541  0.37340432  0.24825980  1
  V  V66  1  0.00247840  0.87263202  0.87562486  1
  V  V67  1  0.12643541  0.87193458  0.75603993  1
  V  V68  1  0.37364922  0.63007785  0.74987637  1
  V  V69  1  0.37151311  0.12688044  0.75538777  1
  V  V70  1  0.75056633  -0.00093477  0.25096360  1
  V  V71  1  0.37589875  0.87100693  0.50487822  1
  V  V72  1  0.75109526  0.74824928  0.00051885  1
  V  V73  1  0.87470860  0.62250757  0.24951698  1
  V  V74  1  0.50144943  0.25474660  0.75115229  1
  V  V75  1  0.24885441  0.37644054  0.62398591  1
  V  V76  1  -0.00088068  0.50391938  0.50359732  1
  V  V77  1  0.24978336  0.75128791  0.50186033  1
  V  V78  1  0.87680173  0.87401662  0.00028049  1
  V  V79  1  0.74871610  0.62456943  0.37483334  1
  V  V80  1  0.25087361  0.00290614  0.75735759  1
  V  V81  1  0.00312996  0.74885923  0.75270605  1
  V  V82  1  0.00072134  0.87501256  0.37617554  1
  V  V83  1  0.25517677  0.87220943  0.62680393  1
  V  V84  1  0.24942116  0.50357228  0.74916582  1
  V  V85  1  0.12376896  0.24631684  0.37780152  1
  V  V86  1  0.24890497  0.62424796  0.37499130  1
  V  V87  1  0.87511479  0.49868432  0.37447465  1
  V  V88  1  0.75004735  0.62613266  0.87510058  1
  V  V89  1  0.24985588  -0.00044087  0.25175062  1
  V  V90  1  0.12313894  0.37689203  0.74991405  1
  V  V91  1  0.25335920  0.87289005  0.12445660  1
  V  V92  1  0.12660466  0.00479539  0.62344831  1
  Zn  Zn93  1  0.37545212  0.74869631  0.12295351  1
  Zn  Zn94  1  0.75017253  0.75005925  0.49976022  1
  Zn  Zn95  1  0.37315017  0.37540507  0.49874973  1
  Zn  Zn96  1  0.75101671  0.49879459  0.75027443  1
  Zn  Zn97  1  0.49958816  0.37722063  0.87487062  1
  Zn  Zn98  1  0.24918226  0.49921814  0.24921410  1
  Zn  Zn99  1  0.62620175  0.87318861  0.25170079  1
  Zn  Zn100  1  0.62491872  0.25422407  0.87585674  1
  Zn  Zn101  1  0.74940010  0.37443422  0.12446900  1
  Zn  Zn102  1  0.62300778  0.25065419  0.37504843  1
  Zn  Zn103  1  0.24871599  0.62877948  0.87304311  1
  Zn  Zn104  1  0.87424250  0.12507417  0.24983892  1
  Zn  Zn105  1  0.87589484  -0.00112682  0.37546507  1
  Zn  Zn106  1  -0.00059333  0.37360694  0.37434156  1
  Zn  Zn107  1  0.26053545  0.24069451  -0.01692354  1
  Zn  Zn108  1  0.50914321  0.87896984  0.88827323  1
  Zn  Zn109  1  0.62700443  0.75110991  0.37702906  1
  Zn  Zn110  1  0.62292284  0.62603300  -0.00198406  1
  Zn  Zn111  1  0.75056629  0.49819874  0.24781059  1
  Zn  Zn112  1  0.37219538  0.49953654  0.87430277  1
  Zn  Zn113  1  0.62736941  0.00103902  0.62495712  1
  Zn  Zn114  1  0.50104159  -0.00096140  0.50149727  1
  Zn  Zn115  1  0.62675976  0.37602322  0.75395007  1
  Zn  Zn116  1  0.00015076  0.37190138  0.87497090  1
  Zn  Zn117  1  0.62546730  0.75204570  0.87834188  1
  Zn  Zn118  1  0.37422180  0.37212988  -0.00561281  1
  Zn  Zn119  1  0.74948787  0.00136293  0.75076595  1
  Zn  Zn120  1  0.13009366  0.25191966  0.87054717  1
  Zn  Zn121  1  0.38481489  0.87483466  0.00321456  1
  Zn  Zn122  1  0.18679627  0.18709396  0.18642905  1
  Zn  Zn123  1  0.18799746  0.18848934  0.69018793  1
  Zn  Zn124  1  0.18745151  0.68695563  0.18546085  1
  Zn  Zn125  1  0.18614144  0.68807974  0.68510499  1
  Zn  Zn126  1  0.68688026  0.18693692  0.18587595  1
  Zn  Zn127  1  0.68730574  0.18901997  0.68841542  1
  Zn  Zn128  1  0.68579939  0.68606469  0.18888817  1
  Zn  Zn129  1  0.68887181  0.68934350  0.68836860  1
  Zn  Zn130  1  0.31041656  0.31349135  0.31032607  1
  Zn  Zn131  1  0.31066705  0.31712562  0.81531188  1
  Zn  Zn132  1  0.31430715  0.81108844  0.31451466  1
  Zn  Zn133  1  0.31692733  0.81511757  0.81441463  1
  Zn  Zn134  1  0.81058138  0.31171974  0.31141764  1
  Zn  Zn135  1  0.81132517  0.31279576  0.81179848  1
  Zn  Zn136  1  0.81426624  0.81129865  0.31345319  1
  Zn  Zn137  1  0.81439166  0.81200096  0.81235102  1
  Zn  Zn138  1  0.18649851  0.43481698  0.43699445  1
  Zn  Zn139  1  0.18739150  0.43913541  0.93408248  1
  Zn  Zn140  1  0.18749182  0.93704930  0.43851916  1
  Zn  Zn141  1  0.19031292  0.93946320  0.93894195  1
  Zn  Zn142  1  0.68549582  0.43861086  0.43716794  1
  Zn  Zn143  1  0.68578491  0.43675319  0.93650952  1
  Zn  Zn144  1  0.68632551  0.93944554  0.44158022  1
  Zn  Zn145  1  0.69070346  0.93765628  0.93794745  1
  Zn  Zn146  1  0.31130020  0.06197205  0.06389525  1
  Zn  Zn147  1  0.31440551  0.06147413  0.56450823  1
  Zn  Zn148  1  0.31094941  0.56314450  0.06308065  1
  Zn  Zn149  1  0.31179107  0.56436446  0.56265745  1
  Zn  Zn150  1  0.81113532  0.06274414  0.06174380  1
  Zn  Zn151  1  0.81568784  0.06128433  0.56125585  1
  Zn  Zn152  1  0.81165021  0.56050789  0.06197390  1
  Zn  Zn153  1  0.81181279  0.56283482  0.56181570  1
  Zn  Zn154  1  0.43474390  0.43750696  0.18613778  1
  Zn  Zn155  1  0.43420481  0.44043092  0.68666382  1
  Zn  Zn156  1  0.43847311  0.93723486  0.18982757  1
  Zn  Zn157  1  0.43850487  0.93938014  0.69116158  1
  Zn  Zn158  1  0.93802429  0.43521417  0.18643796  1
  Zn  Zn159  1  0.93700046  0.43651206  0.68557675  1
  Zn  Zn160  1  0.93698421  0.93758545  0.18828720  1
  Zn  Zn161  1  0.93865698  0.93712253  0.68814979  1
  Zn  Zn162  1  0.06308865  0.06392923  0.31277006  1
  Zn  Zn163  1  0.06054491  0.06059523  0.81091668  1
  Zn  Zn164  1  0.06179952  0.56000939  0.31410613  1
  Zn  Zn165  1  0.06132919  0.56068391  0.81294974  1
  Zn  Zn166  1  0.56355465  0.06078534  0.31138449  1
  Zn  Zn167  1  0.56431578  0.06393737  0.81020503  1
  Zn  Zn168  1  0.56149984  0.56129854  0.31237841  1
  Zn  Zn169  1  0.56219515  0.56536213  0.81279399  1
  Zn  Zn170  1  0.43506498  0.19022691  0.43829454  1
  Zn  Zn171  1  0.43944127  0.18726789  0.93630901  1
  Zn  Zn172  1  0.43589477  0.68810462  0.43812847  1
  Zn  Zn173  1  0.43566826  0.69023235  0.93759197  1
  Zn  Zn174  1  0.93647342  0.18580100  0.43702397  1
  Zn  Zn175  1  0.94092201  0.18820926  0.93646254  1
  Zn  Zn176  1  0.93672079  0.68603370  0.43717144  1
  Zn  Zn177  1  0.93801909  0.68658373  0.93523530  1
  Zn  Zn178  1  0.06087422  0.31130561  0.06199127  1
  Zn  Zn179  1  0.06169457  0.31592125  0.56209788  1
  Zn  Zn180  1  0.06497403  0.81117429  0.06325970  1
  Zn  Zn181  1  0.06513428  0.81534528  0.56644702  1
  Zn  Zn182  1  0.55964964  0.31113269  0.06146193  1
  Zn  Zn183  1  0.56182641  0.31292922  0.56190239  1
  Zn  Zn184  1  0.56440094  0.81084897  0.06276935  1
  Zn  Zn185  1  0.56566625  0.81078975  0.56301200  1
  O  O186  1  0.11820820  0.11799820  0.11863700  1
  O  O187  1  0.12055975  0.11088765  0.63279902  1
  O  O188  1  0.11961475  0.61927169  0.11726674  1
  O  O189  1  0.12998679  0.61760383  0.61490217  1
  O  O190  1  0.62090397  0.11663951  0.11824554  1
  O  O191  1  0.61580034  0.12553034  0.62064100  1
  O  O192  1  0.61773141  0.61427839  0.12639636  1
  O  O193  1  0.61888670  0.61853201  0.62088813  1
  O  O194  1  0.37999966  0.38187365  0.37408639  1
  O  O195  1  0.38163471  0.38201227  0.87709217  1
  O  O196  1  0.38222503  0.87963915  0.38377144  1
  O  O197  1  0.37949320  0.89084856  0.87496269  1
  O  O198  1  0.87339724  0.38073627  0.38099699  1
  O  O199  1  0.87582572  0.38135318  0.88104429  1
  O  O200  1  0.88322448  0.87501483  0.38187326  1
  O  O201  1  0.88110243  0.87987677  0.88130736  1
  O  O202  1  0.25381495  0.00457150  0.37168396  1
  O  O203  1  0.25946324  -0.00486480  0.86171001  1
  O  O204  1  0.25426792  0.50636756  0.37392655  1
  O  O205  1  0.25063490  0.50670725  0.86428941  1
  O  O206  1  0.74956587  0.00620881  0.36774225  1
  O  O207  1  0.75896541  0.00693906  0.87413204  1
  O  O208  1  0.75527568  0.50957331  0.37378353  1
  O  O209  1  0.75619644  0.50974046  0.87339547  1
  O  O210  1  0.24379225  0.48990214  0.12606612  1
  O  O211  1  0.24335725  0.49634537  0.62866417  1
  O  O212  1  0.24512828  0.99145041  0.13189330  1
  O  O213  1  0.24460252  0.99214737  0.63291259  1
  O  O214  1  0.73662457  0.49818342  0.12581937  1
  O  O215  1  0.73969817  0.49634393  0.62433103  1
  O  O216  1  0.74364823  0.99500736  0.13273548  1
  O  O217  1  0.75275721  0.98674594  0.62726271  1
  O  O218  1  0.00644386  0.36627318  0.25107156  1
  O  O219  1  0.00515735  0.36870903  0.74844408  1
  O  O220  1  0.00574166  0.86943914  0.25507853  1
  O  O221  1  0.00824882  0.86980110  0.75506068  1
  O  O222  1  0.50583834  0.36968371  0.25348143  1
  O  O223  1  0.50002845  0.36392936  0.74494452  1
  O  O224  1  0.49956144  0.86643402  0.26026630  1
  O  O225  1  0.50958320  0.86744962  0.74676306  1
  O  O226  1  0.49458212  0.12925455  0.24554070  1
  O  O227  1  0.49292783  0.13330796  0.74172907  1
  O  O228  1  0.49427442  0.63221696  0.24791363  1
  O  O229  1  0.49398743  0.63326253  0.74364559  1
  O  O230  1  0.99736959  0.12973387  0.24391096  1
  O  O231  1  0.99509572  0.12969129  0.74245789  1
  O  O232  1  0.99519744  0.62961015  0.24497096  1
  O  O233  1  0.98908738  0.63500336  0.75716524  1
  O  O234  1  0.37485320  0.24937364  0.00813834  1
  O  O235  1  0.36398954  0.25319652  0.50627458  1
  O  O236  1  0.36280709  0.75221369  0.00476976  1
  O  O237  1  0.36729564  0.76370838  0.49549701  1
  O  O238  1  0.87118420  0.25423155  0.00473833  1
  O  O239  1  0.86946183  0.25451788  0.50498328  1
  O  O240  1  0.87222822  0.75453896  0.00651730  1
  O  O241  1  0.87670655  0.75393013  0.51023614  1
  O  O242  1  0.13377592  0.25528989  0.49089667  1
  O  O243  1  0.12202755  0.23343877  1.00043848  1
  O  O244  1  0.12853654  0.74673929  0.49572502  1
  O  O245  1  0.13447272  0.74001058  1.00760503  1
  O  O246  1  0.63166389  0.24399891  0.49806061  1
  O  O247  1  0.63041542  0.23886645  1.00103877  1
  O  O248  1  0.62915461  0.74128323  0.49720895  1
  O  O249  1  0.63598188  0.74529279  0.99846241  1
  O  O250  1  0.49315128  0.24207731  0.13126602  1
  O  O251  1  0.49405208  0.24208412  0.63077667  1
  O  O252  1  0.49924764  0.74442557  0.13691303  1
  O  O253  1  0.50713258  0.73891781  0.63507825  1
  O  O254  1  0.99418339  0.24374239  0.13069042  1
  O  O255  1  0.99469810  0.24424892  0.62720095  1
  O  O256  1  0.99518699  0.74452736  0.13078453  1
  O  O257  1  0.98955045  0.75794832  0.63696234  1
  O  O258  1  0.00821963  0.24895599  0.37102970  1
  O  O259  1  0.00584470  0.25084129  0.86478959  1
  O  O260  1  0.00515059  0.75456762  0.36958721  1
  O  O261  1  -0.00656231  0.75796728  0.86202950  1
  O  O262  1  0.50059144  0.25614274  0.36801037  1
  O  O263  1  0.50111708  0.24983081  0.86159521  1
  O  O264  1  0.49982489  0.75769975  0.36825407  1
  O  O265  1  0.50453566  0.75156400  0.86271114  1
  O  O266  1  0.25590057  0.13706900  0.49628238  1
  O  O267  1  0.23271501  0.12333233  1.00636729  1
  O  O268  1  0.24437311  0.63247227  0.49470603  1
  O  O269  1  0.24214837  0.63413030  1.00002972  1
  O  O270  1  0.74550286  0.12814407  0.49341089  1
  O  O271  1  0.74197150  0.12999366  0.99522388  1
  O  O272  1  0.74553659  0.62571190  0.49009763  1
  O  O273  1  0.75219455  0.62986834  0.98991965  1
  O  O274  1  0.24888123  0.37295939  0.01129607  1
  O  O275  1  0.25038521  0.36427908  0.50572077  1
  O  O276  1  0.24939212  0.86937312  0.00981333  1
  O  O277  1  0.25667214  0.87254170  0.50762978  1
  O  O278  1  0.75579592  0.36779523  0.00142031  1
  O  O279  1  0.75394278  0.36958345  0.50385740  1
  O  O280  1  0.75784426  0.86878336  0.00642530  1
  O  O281  1  0.75708965  0.87302692  0.50863395  1
  O  O282  1  0.12455136  0.49268726  0.24276015  1
  O  O283  1  0.12822719  0.49855985  0.74220858  1
  O  O284  1  0.13052291  0.99378560  0.24615271  1
  O  O285  1  0.13248107  0.99296478  0.74384413  1
  O  O286  1  0.62094990  0.49057139  0.23985974  1
  O  O287  1  0.62506004  0.50160401  0.73698753  1
  O  O288  1  0.63635762  0.99838204  0.24110627  1
  O  O289  1  0.62747200  0.98897727  0.74584108  1
  O  O290  1  0.36883247  0.00461275  0.25713083  1
  O  O291  1  0.36887035  0.00734343  0.75724509  1
  O  O292  1  0.37346132  0.50720649  0.25724424  1
  O  O293  1  0.36847434  0.51321075  0.74831503  1
  O  O294  1  0.86256615  0.00158569  0.25149217  1
  O  O295  1  0.87604074  0.00648252  0.75635658  1
  O  O296  1  0.87420189  0.50506591  0.25500292  1
  O  O297  1  0.87591536  0.50983201  0.75306789  1
  O  O298  1  0.12506957  0.36219554  0.36757766  1
  O  O299  1  0.11983446  0.37663417  0.86442108  1
  O  O300  1  0.12084399  0.86856835  0.37010628  1
  O  O301  1  0.12139736  0.88292709  0.86211752  1
  O  O302  1  0.61731376  0.37626878  0.36424477  1
  O  O303  1  0.61819408  0.37273571  0.87091663  1
  O  O304  1  0.61320521  0.87426434  0.37582039  1
  O  O305  1  0.62763916  0.87459225  0.86343425  1
  O  O306  1  0.37967056  0.12665654  0.13160260  1
  O  O307  1  0.38230843  0.12993328  0.63353418  1
  O  O308  1  0.38078699  0.62562570  0.13364912  1
  O  O309  1  0.38646333  0.62280675  0.63370052  1
  O  O310  1  0.88125071  0.13049984  0.12484781  1
  O  O311  1  0.88064026  0.13060404  0.62982573  1
  O  O312  1  0.88072724  0.62877810  0.12954061  1
  O  O313  1  0.86802233  0.63514497  0.63506492  1
  O  O314  1  0.25490327  0.25694992  0.12282514  1
  O  O315  1  0.25221470  0.25458592  0.61837962  1
  O  O316  1  0.25082771  0.76069542  0.11998252  1
  O  O317  1  0.24285531  0.76635838  0.61930292  1
  O  O318  1  0.75637159  0.24983847  0.11822352  1
  O  O319  1  0.75544694  0.25473759  0.61836681  1
  O  O320  1  0.75643571  0.75322266  0.12209316  1
  O  O321  1  0.76185285  0.75982837  0.62539875  1
  O  O322  1  0.24387871  0.24592273  0.38214238  1
  O  O323  1  0.24330901  0.24967183  0.87271156  1
  O  O324  1  0.24323110  0.74579194  0.38120398  1
  O  O325  1  0.25261999  0.75242453  0.88800868  1
  O  O326  1  0.74699969  0.23972829  0.37978866  1
  O  O327  1  0.74882490  0.24234259  0.88177745  1
  O  O328  1  0.74972945  0.73694938  0.37568616  1
  O  O329  1  0.75380026  0.74100800  0.88127068  1
  O  O330  1  0.00833534  0.11743458  0.00636772  1
  O  O331  1  -0.00546244  0.11179204  0.50605115  1
  O  O332  1  0.00658161  0.62162865  0.00485311  1
  O  O333  1  0.00562304  0.61251459  0.49305367  1
  O  O334  1  0.51297172  0.12844647  0.00669526  1
  O  O335  1  0.50300324  0.12649737  0.50947556  1
  O  O336  1  0.50089430  0.61853408  0.00658821  1
  O  O337  1  0.50322545  0.62208576  0.50799637  1
  O  O338  1  0.49758564  0.38158249  0.49321348  1
  O  O339  1  0.49710296  0.38729026  1.00156021  1
  O  O340  1  0.49245442  0.87357309  0.49494375  1
  O  O341  1  0.49748283  0.87209786  1.00007085  1
  O  O342  1  0.99251283  0.38407430  0.49669757  1
  O  O343  1  0.99335665  0.38134813  0.99876785  1
  O  O344  1  0.99770115  0.88276353  0.49623824  1
  O  O345  1  0.99702434  0.87827151  0.99595110  1
  O  O346  1  0.49354472  0.49607449  0.38096884  1
  O  O347  1  0.50041028  0.50404707  0.88704115  1
  O  O348  1  0.49398553  0.98985325  0.37504047  1
  O  O349  1  0.48754153  0.99925894  0.86821363  1
  O  O350  1  0.99369056  0.49623922  0.38433206  1
  O  O351  1  0.99158290  0.49944592  0.88220724  1
  O  O352  1  1.00184325  0.99460031  0.38366931  1
  O  O353  1  0.99454446  0.99244841  0.88053551  1
  O  O354  1  0.00508553  0.00261364  0.12040825  1
  O  O355  1  0.00795863  0.00306043  0.61929193  1
  O  O356  1  0.00494124  0.50552630  0.11826942  1
  O  O357  1  0.00516437  0.49518244  0.61115746  1
  O  O358  1  0.51414529  0.00516589  0.13538779  1
  O  O359  1  0.49946677  0.01419286  0.62581739  1
  O  O360  1  0.50567950  0.50459751  0.11807767  1
  O  O361  1  0.50699347  0.51021023  0.62095716  1
  O  O362  1  0.24243937  0.37498965  0.23775906  1
  O  O363  1  0.24308788  0.38395714  0.74196551  1
  O  O364  1  0.24558076  0.87874021  0.24467149  1
  O  O365  1  0.24597940  0.88107328  0.74409045  1
  O  O366  1  0.73636861  0.37664596  0.24817692  1
  O  O367  1  0.74806068  0.37822398  0.74039112  1
  O  O368  1  0.74957559  0.88209483  0.24651628  1
  O  O369  1  0.74387698  0.87427585  0.74237504  1
  O  O370  1  0.25538111  0.11862528  0.25601857  1
  O  O371  1  0.26168376  0.11472886  0.74106821  1
  O  O372  1  0.25475461  0.62483000  0.25708359  1
  O  O373  1  0.25830884  0.62505276  0.74813059  1
  O  O374  1  0.74881577  0.11673135  0.25764804  1
  O  O375  1  0.75701421  0.12443752  0.75588997  1
  O  O376  1  0.75529442  0.62177674  0.25819092  1
  O  O377  1  0.76168204  0.62622048  0.75816212  1
  O  O378  1  0.36938625  0.11923475  0.37058779  1
  O  O379  1  0.38141362  0.11479634  0.86257494  1
  O  O380  1  0.36849947  0.62026875  0.37109229  1
  O  O381  1  0.37328630  0.62435845  0.86054108  1
  O  O382  1  0.86103870  0.12123301  0.37401460  1
  O  O383  1  0.87157176  0.11943013  0.87034209  1
  O  O384  1  0.86720811  0.61947003  0.36947891  1
  O  O385  1  0.86792536  0.61977076  0.86708424  1
  O  O386  1  0.13123891  0.37813759  0.12795793  1
  O  O387  1  0.12986624  0.38361291  0.62949523  1
  O  O388  1  0.13340083  0.87979682  0.13111817  1
  O  O389  1  0.13303522  0.88606746  0.63594444  1
  O  O390  1  0.62251570  0.38288776  0.13316550  1
  O  O391  1  0.62902438  0.38633120  0.62373534  1
  O  O392  1  0.63332072  0.88300858  0.12769355  1
  O  O393  1  0.63548735  0.87442289  0.63243055  1
  O  O394  1  0.11936232  0.25378220  0.25676338  1
  O  O395  1  0.11780523  0.25807385  0.74590340  1
  O  O396  1  0.11920794  0.75414219  0.25545151  1
  O  O397  1  0.11488577  0.76109629  0.74161728  1
  O  O398  1  0.61808302  0.25899942  0.24869141  1
  O  O399  1  0.61335721  0.25143177  0.75021977  1
  O  O400  1  0.61295486  0.75118598  0.25419633  1
  O  O401  1  0.61834658  0.75930259  0.75138631  1
  O  O402  1  0.37896047  0.24265892  0.24487155  1
  O  O403  1  0.38078929  0.24262578  0.74451701  1
  O  O404  1  0.38522303  0.74439110  0.25008487  1
  O  O405  1  0.38574366  0.74413046  0.75243532  1
  O  O406  1  0.88029175  0.24813921  0.24367436  1
  O  O407  1  0.88096615  0.24447759  0.74299865  1
  O  O408  1  0.88120766  0.74323761  0.24431801  1
  O  O409  1  0.88321040  0.74422386  0.74339122  1
  O  O410  1  0.38038844  0.49964053  0.49393300  1
  O  O411  1  0.38468684  0.50044440  0.99973045  1
  O  O412  1  0.37668517  0.98887122  0.49522709  1
  O  O413  1  0.36767647  1.00430625  0.98203798  1
  O  O414  1  0.88148166  0.49621125  0.49577681  1
  O  O415  1  0.88014219  0.49470555  0.99538479  1
  O  O416  1  0.88755646  0.99181855  0.49983135  1
  O  O417  1  0.88097988  0.99330185  0.99593555  1
  O  O418  1  0.12027347  0.00704749  0.00571906  1
  O  O419  1  0.11630400  -0.00790045  0.51173780  1
  O  O420  1  0.11996961  0.50856549  0.00546749  1
  O  O421  1  0.11732986  0.50385149  0.50279024  1
  O  O422  1  0.63415342  0.00944783  0.01199331  1
  O  O423  1  0.62025544  0.00871755  0.50591248  1
  O  O424  1  0.61609091  0.50201730  0.00980238  1
  O  O425  1  0.61789035  0.50614066  0.50908552  1
  O  O426  1  0.36465186  0.36787766  0.12495149  1
  O  O427  1  0.36635616  0.36937441  0.62382439  1
  O  O428  1  0.36267781  0.87722994  0.12556827  1
  O  O429  1  0.36570024  0.88341566  0.61776070  1
  O  O430  1  0.87251679  0.36802488  0.11794384  1
  O  O431  1  0.86818191  0.36955641  0.61767537  1
  O  O432  1  0.87120184  0.86848811  0.12013855  1
  O  O433  1  0.87003496  0.86699448  0.62232185  1
  O  O434  1  0.13253438  0.13840883  0.36951858  1
  O  O435  1  0.11959897  0.12041717  0.89042214  1
  O  O436  1  0.12940984  0.63063774  0.38115272  1
  O  O437  1  0.12496327  0.62249997  0.88893035  1
  O  O438  1  0.63420010  0.12488398  0.38036863  1
  O  O439  1  0.63057698  0.12382473  0.88465125  1
  O  O440  1  0.63368545  0.62251134  0.38007209  1
  O  O441  1  0.63990368  0.62729758  0.87334537  1
