# generated using pymatgen
data_V93Zn93O256
_symmetry_space_group_name_H-M   'P 1'
_cell_length_a   17.05220861
_cell_length_b   17.05271677
_cell_length_c   17.05103536
_cell_angle_alpha   90.01890782
_cell_angle_beta   89.99059984
_cell_angle_gamma   90.02243344
_symmetry_Int_Tables_number   1
_chemical_formula_structural   V93Zn93O256
_chemical_formula_sum   'V93 Zn93 O256'
_cell_volume   4958.20990077
_cell_formula_units_Z   1
loop_
 _symmetry_equiv_pos_site_id
 _symmetry_equiv_pos_as_xyz
  1  'x, y, z'
loop_
 _atom_site_type_symbol
 _atom_site_label
 _atom_site_symmetry_multiplicity
 _atom_site_fract_x
 _atom_site_fract_y
 _atom_site_fract_z
 _atom_site_occupancy
  V  V0  1  0.37373615  0.12436447  0.74890442  1
  V  V1  1  0.62621982  0.87571662  0.25143478  1
  V  V2  1  0.74556594  0.62342871  0.88272642  1
  V  V3  1  0.62402528  0.00058673  0.12590152  1
  V  V4  1  -0.00081667  0.62331735  0.62485215  1
  V  V5  1  0.25186940  0.62585469  0.37399472  1
  V  V6  1  0.37420094  0.62397906  0.74961928  1
  V  V7  1  0.49945193  0.74910227  0.75109382  1
  V  V8  1  0.62087409  0.37422263  0.75127298  1
  V  V9  1  0.37523751  0.37442201  0.49881913  1
  V  V10  1  0.25026131  0.49999375  0.24925656  1
  V  V11  1  0.12396237  0.11969412  0.49531762  1
  V  V12  1  0.12696585  0.00118882  0.12487035  1
  V  V13  1  0.62644832  0.74958714  0.37636240  1
  V  V14  1  0.62543668  0.12498421  0.50059386  1
  V  V15  1  0.12419546  0.87497920  0.74933091  1
  V  V16  1  0.12521037  0.62550407  -0.00083036  1
  V  V17  1  0.11754017  0.25106660  0.37350688  1
  V  V18  1  0.50121069  0.37499418  0.37471737  1
  V  V19  1  0.50450984  0.61804662  0.62495255  1
  V  V20  1  -0.00025943  -0.00027590  -0.00044399  1
  V  V21  1  0.74918270  0.24960700  0.50033205  1
  V  V22  1  -0.00197531  0.87393000  0.87523481  1
  V  V23  1  0.12631915  0.74930526  0.37453081  1
  V  V24  1  0.62415806  0.74441898  0.88295815  1
  V  V25  1  0.00057819  0.62576456  0.12425292  1
  V  V26  1  0.62630763  0.50458147  0.11698468  1
  V  V27  1  0.24773218  -0.00013043  0.74820440  1
  V  V28  1  0.12436639  0.12665479  -0.00074347  1
  V  V29  1  -0.00062529  0.11702132  0.61868073  1
  V  V30  1  0.12581160  0.87636998  0.24912035  1
  V  V31  1  0.62579283  0.37535251  0.25070000  1
  V  V32  1  0.25008154  0.87723710  0.12634200  1
  V  V33  1  0.87467972  0.74930222  0.62518819  1
  V  V34  1  0.87386590  0.12431865  0.74977265  1
  V  V35  1  0.00010828  0.49234622  0.49663625  1
  V  V36  1  0.62572685  0.61929771  0.50376813  1
  V  V37  1  0.37489273  -0.00002261  0.87523244  1
  V  V38  1  0.24957678  0.24443083  0.49063585  1
  V  V39  1  0.12440677  0.24938895  0.87374076  1
  V  V40  1  0.75140654  0.87522415  0.12592780  1
  V  V41  1  0.12326797  0.37333009  0.74797734  1
  V  V42  1  0.87330338  0.49945542  0.87425684  1
  V  V43  1  0.36975235  0.12759795  0.25193360  1
  V  V44  1  0.49902531  0.12468197  0.62564946  1
  V  V45  1  0.87551348  0.75108516  0.12536490  1
  V  V46  1  0.62462045  0.87404463  0.75140106  1
  V  V47  1  0.25212701  0.74971256  0.50034634  1
  V  V48  1  0.62443566  -0.00168697  0.62686847  1
  V  V49  1  0.37737372  0.62484791  0.25013843  1
  V  V50  1  0.25300752  0.25641276  -0.00025345  1
  V  V51  1  0.74947257  0.12468262  0.87450596  1
  V  V52  1  0.37574108  0.49346525  0.88147877  1
  V  V53  1  0.74888015  0.87326851  0.62680127  1
  V  V54  1  0.75086235  0.75054959  0.50171020  1
  V  V55  1  0.36990979  0.00553096  0.37488456  1
  V  V56  1  0.87995535  0.49349274  0.37452457  1
  V  V57  1  0.50585727  0.62535634  0.11791285  1
  V  V58  1  0.37534797  0.75009172  0.62483191  1
  V  V59  1  -0.00171769  0.88140727  0.38204620  1
  V  V60  1  0.24959945  0.37422789  0.62253719  1
  V  V61  1  0.37679234  0.25653503  0.12114257  1
  V  V62  1  0.12081594  0.37556853  0.25331207  1
  V  V63  1  0.12339540  0.49887860  0.62342018  1
  V  V64  1  0.49947536  0.87444468  0.87678592  1
  V  V65  1  0.75223619  0.50145817  0.25130364  1
  V  V66  1  0.24954000  0.75080890  -0.00114078  1
  V  V67  1  0.74980093  0.24993814  0.00056953  1
  V  V68  1  0.49978572  -0.00072508  0.50016226  1
  V  V69  1  0.74518073  0.37806176  0.62350855  1
  V  V70  1  0.12638641  0.49929094  0.12452354  1
  V  V71  1  0.00050690  0.12703494  0.12613841  1
  V  V72  1  0.75038419  0.00116049  0.25255273  1
  V  V73  1  0.87646547  0.12579502  0.24977258  1
  V  V74  1  0.74444559  0.50094226  0.74575307  1
  V  V75  1  -0.00075873  0.74895387  0.74920366  1
  V  V76  1  0.24976322  0.49997926  0.74769727  1
  V  V77  1  0.00028252  0.24926817  0.74843663  1
  V  V78  1  0.37386191  0.24887823  0.62460539  1
  V  V79  1  0.87588040  0.62484493  0.25131788  1
  V  V80  1  0.74931551  0.12538164  0.37570851  1
  V  V81  1  0.75076530  0.37562265  0.12430249  1
  V  V82  1  0.87490219  0.37533940  -0.00028086  1
  V  V83  1  0.62511777  0.12448556  0.00124569  1
  V  V84  1  0.87504634  0.87477614  0.00109415  1
  V  V85  1  0.50143643  0.75012478  0.25062608  1
  V  V86  1  0.37575612  0.49920846  0.37493833  1
  V  V87  1  0.00097769  0.75015130  0.25095187  1
  V  V88  1  0.87362086  0.24950914  0.62431882  1
  V  V89  1  0.00011417  0.49965463  -0.00199027  1
  V  V90  1  0.37584016  0.75130002  0.12558782  1
  V  V91  1  0.49894033  0.00113051  0.00101042  1
  V  V92  1  0.50036356  0.87586879  0.37608446  1
  Zn  Zn93  1  0.12456661  0.62286405  0.49847774  1
  Zn  Zn94  1  0.61830209  0.24918801  0.87601753  1
  Zn  Zn95  1  0.37504069  0.87711602  0.50098425  1
  Zn  Zn96  1  0.37371329  0.87783867  0.00159590  1
  Zn  Zn97  1  0.12130451  -0.00341760  0.61699336  1
  Zn  Zn98  1  0.25035831  0.87393766  0.62470275  1
  Zn  Zn99  1  0.24964157  0.62501760  0.87355124  1
  Zn  Zn100  1  0.87643238  0.37222533  0.49626997  1
  Zn  Zn101  1  0.74734265  0.74744782  0.00327193  1
  Zn  Zn102  1  0.24925769  0.12496283  0.87543301  1
  Zn  Zn103  1  0.24839773  0.00513336  0.25375257  1
  Zn  Zn104  1  0.87765992  0.25216591  0.12475206  1
  Zn  Zn105  1  0.62490439  0.24995122  0.37514709  1
  Zn  Zn106  1  0.49741461  0.49630411  0.00154405  1
  Zn  Zn107  1  0.87369077  0.62376442  0.75053542  1
  Zn  Zn108  1  0.25463375  0.37916566  0.12105818  1
  Zn  Zn109  1  0.74976743  -0.00114724  0.75124500  1
  Zn  Zn110  1  0.49807951  0.25058628  0.75165379  1
  Zn  Zn111  1  0.88059612  0.00607438  0.38455886  1
  Zn  Zn112  1  0.87356862  -0.00123467  0.87480224  1
  Zn  Zn113  1  0.75160039  0.62561613  0.37705637  1
  Zn  Zn114  1  0.49487260  0.36724330  0.88588274  1
  Zn  Zn115  1  -0.00182163  0.37444135  0.87349570  1
  Zn  Zn116  1  0.12469246  0.74722182  0.87378132  1
  Zn  Zn117  1  -0.00235050  0.25563063  0.25134744  1
  Zn  Zn118  1  0.50441668  0.49690295  0.50397237  1
  Zn  Zn119  1  0.49996760  0.12697545  0.12672085  1
  Zn  Zn120  1  0.88003191  0.88085573  0.50645905  1
  Zn  Zn121  1  0.49974923  0.24944371  0.24745126  1
  Zn  Zn122  1  0.19014411  0.19005162  0.18612037  1
  Zn  Zn123  1  0.18666091  0.18590574  0.68265355  1
  Zn  Zn124  1  0.18805331  0.68819288  0.18683717  1
  Zn  Zn125  1  0.18626683  0.68559995  0.68554038  1
  Zn  Zn126  1  0.68908083  0.18882143  0.18616443  1
  Zn  Zn127  1  0.68565200  0.18938171  0.68844589  1
  Zn  Zn128  1  0.68923066  0.68772631  0.18926737  1
  Zn  Zn129  1  0.68651343  0.68724811  0.69054797  1
  Zn  Zn130  1  0.31032747  0.31301899  0.30832393  1
  Zn  Zn131  1  0.30925046  0.31142801  0.81140976  1
  Zn  Zn132  1  0.31461605  0.81590776  0.31273141  1
  Zn  Zn133  1  0.31296794  0.81336300  0.81312309  1
  Zn  Zn134  1  0.81180064  0.31083921  0.31248235  1
  Zn  Zn135  1  0.81065461  0.31159360  0.81208828  1
  Zn  Zn136  1  0.81371676  0.81193590  0.31389351  1
  Zn  Zn137  1  0.81189749  0.80982910  0.81295331  1
  Zn  Zn138  1  0.18727047  0.43525574  0.43580834  1
  Zn  Zn139  1  0.18709289  0.43714295  0.93350124  1
  Zn  Zn140  1  0.18809963  0.93480064  0.43595265  1
  Zn  Zn141  1  0.18609193  0.93692270  0.93589334  1
  Zn  Zn142  1  0.69133585  0.43936234  0.43615215  1
  Zn  Zn143  1  0.68617371  0.43462970  0.93492568  1
  Zn  Zn144  1  0.69055942  0.93854375  0.43965534  1
  Zn  Zn145  1  0.68679804  0.93664742  0.93885397  1
  Zn  Zn146  1  0.31262664  0.06864083  0.06388167  1
  Zn  Zn147  1  0.31037359  0.06195918  0.56202751  1
  Zn  Zn148  1  0.31279343  0.56667370  0.06407349  1
  Zn  Zn149  1  0.31489936  0.56255983  0.56164861  1
  Zn  Zn150  1  0.81303757  0.06157267  0.06356463  1
  Zn  Zn151  1  0.81211864  0.05877668  0.56221638  1
  Zn  Zn152  1  0.81356075  0.56194389  0.06299050  1
  Zn  Zn153  1  0.81442522  0.56274787  0.56153225  1
  Zn  Zn154  1  0.44013545  0.43837367  0.18661535  1
  Zn  Zn155  1  0.43552503  0.43698246  0.68945461  1
  Zn  Zn156  1  0.43698357  0.93943542  0.18933526  1
  Zn  Zn157  1  0.43662447  0.93569326  0.68767378  1
  Zn  Zn158  1  0.93911380  0.43884732  0.18584072  1
  Zn  Zn159  1  0.93358626  0.43649083  0.68624560  1
  Zn  Zn160  1  0.93918332  0.93967020  0.19036029  1
  Zn  Zn161  1  0.93441009  0.93787328  0.68946716  1
  Zn  Zn162  1  0.06549059  0.06503683  0.31261744  1
  Zn  Zn163  1  0.06041599  0.06256368  0.81212369  1
  Zn  Zn164  1  0.06301432  0.56246666  0.31337347  1
  Zn  Zn165  1  0.06291168  0.56254757  0.81255949  1
  Zn  Zn166  1  0.55891503  0.06444035  0.31239691  1
  Zn  Zn167  1  0.56149789  0.06271185  0.81285049  1
  Zn  Zn168  1  0.56407856  0.56298242  0.31253123  1
  Zn  Zn169  1  0.56133210  0.56100074  0.81244104  1
  Zn  Zn170  1  0.43895411  0.18740314  0.43662908  1
  Zn  Zn171  1  0.43661466  0.18638512  0.93680550  1
  Zn  Zn172  1  0.43948360  0.68738852  0.43871282  1
  Zn  Zn173  1  0.43402477  0.68476530  0.93679418  1
  Zn  Zn174  1  0.93808452  0.18860293  0.43785460  1
  Zn  Zn175  1  0.93655267  0.18866923  0.93698843  1
  Zn  Zn176  1  0.93762913  0.68574349  0.43916749  1
  Zn  Zn177  1  0.93484457  0.68726092  0.93576412  1
  Zn  Zn178  1  0.06392886  0.31388996  0.06416816  1
  Zn  Zn179  1  0.06213961  0.30885758  0.56204642  1
  Zn  Zn180  1  0.06317937  0.81353431  0.06257317  1
  Zn  Zn181  1  0.06515147  0.80899344  0.56337004  1
  Zn  Zn182  1  0.56072018  0.31403680  0.06017701  1
  Zn  Zn183  1  0.56272019  0.31088076  0.56417467  1
  Zn  Zn184  1  0.56169710  0.81558751  0.06321521  1
  Zn  Zn185  1  0.56252945  0.80988665  0.56248729  1
  O  O186  1  0.12011160  0.12072963  0.12002850  1
  O  O187  1  0.11507146  0.12464140  0.61470234  1
  O  O188  1  0.11937193  0.61969456  0.12003701  1
  O  O189  1  0.11767760  0.61595602  0.62250092  1
  O  O190  1  0.62541508  0.11785482  0.11977837  1
  O  O191  1  0.61932846  0.11875569  0.62096690  1
  O  O192  1  0.61638259  0.61680793  0.13425314  1
  O  O193  1  0.61477095  0.63291525  0.61642605  1
  O  O194  1  0.38297277  0.37886022  0.37792804  1
  O  O195  1  0.37450894  0.39095730  0.86557092  1
  O  O196  1  0.38408451  0.88465545  0.37572292  1
  O  O197  1  0.38217571  0.88155144  0.87682559  1
  O  O198  1  0.87147284  0.38889382  0.37436816  1
  O  O199  1  0.87419087  0.38148741  0.88131391  1
  O  O200  1  0.89194305  0.87373114  0.37372333  1
  O  O201  1  0.87988497  0.87516755  0.88206863  1
  O  O202  1  0.26620249  -0.00708899  0.37376488  1
  O  O203  1  0.25458835  -0.00014865  0.86391082  1
  O  O204  1  0.25617708  0.50604038  0.36955310  1
  O  O205  1  0.25940637  0.50116738  0.86689097  1
  O  O206  1  0.75045855  0.00755460  0.36796186  1
  O  O207  1  0.75044634  0.01235062  0.87484571  1
  O  O208  1  0.76102760  0.50402283  0.36892082  1
  O  O209  1  0.75278240  0.50650993  0.86805333  1
  O  O210  1  0.24492927  0.50156231  0.13120625  1
  O  O211  1  0.24458991  0.49411170  0.62717986  1
  O  O212  1  0.24393191  0.99409586  0.12481242  1
  O  O213  1  0.24753326  0.99649189  0.63717117  1
  O  O214  1  0.74439210  0.49654815  0.13160137  1
  O  O215  1  0.75653301  0.49049873  0.63444867  1
  O  O216  1  0.74428102  0.99455565  0.13262443  1
  O  O217  1  0.74073158  0.99189563  0.62813971  1
  O  O218  1  0.01561821  0.37516294  0.24356386  1
  O  O219  1  0.00542079  0.36722654  0.74770983  1
  O  O220  1  0.00667649  0.86868797  0.25764998  1
  O  O221  1  0.00679855  0.87026684  0.75432064  1
  O  O222  1  0.51004093  0.37615352  0.25830054  1
  O  O223  1  0.51189250  0.37591589  0.74831032  1
  O  O224  1  0.50704204  0.86942131  0.25523928  1
  O  O225  1  0.50447844  0.86828689  0.75708725  1
  O  O226  1  0.48970302  0.12992095  0.24788796  1
  O  O227  1  0.49162031  0.12365103  0.74213188  1
  O  O228  1  0.49592689  0.63117085  0.24313784  1
  O  O229  1  0.49599649  0.62975825  0.74233895  1
  O  O230  1  0.99086462  0.12501823  0.24488939  1
  O  O231  1  0.99452403  0.13068337  0.74091845  1
  O  O232  1  0.99607381  0.63035422  0.24376817  1
  O  O233  1  0.99893907  0.63052490  0.74266089  1
  O  O234  1  0.36396733  0.24125091  0.00940112  1
  O  O235  1  0.36730204  0.25362079  0.50318615  1
  O  O236  1  0.36537903  0.75083168  0.00678108  1
  O  O237  1  0.36676881  0.75060869  0.50422651  1
  O  O238  1  0.86830717  0.25739131  0.00165075  1
  O  O239  1  0.86781162  0.25204387  0.50541905  1
  O  O240  1  0.87399705  0.75669375  0.00844263  1
  O  O241  1  0.86869149  0.75300975  0.50715609  1
  O  O242  1  0.13128765  0.24550428  0.49168541  1
  O  O243  1  0.13065846  0.24548740  0.99423075  1
  O  O244  1  0.13625569  0.74615670  0.49438643  1
  O  O245  1  0.13419206  0.74501585  1.00091579  1
  O  O246  1  0.63158031  0.24230340  0.49978013  1
  O  O247  1  0.63306768  0.24237581  0.99981670  1
  O  O248  1  0.63037320  0.74106577  0.49524988  1
  O  O249  1  0.62598635  0.75557966  0.98685229  1
  O  O250  1  0.49052221  0.24861482  0.12590805  1
  O  O251  1  0.49103892  0.24258298  0.62583227  1
  O  O252  1  0.49766798  0.74392211  0.13043300  1
  O  O253  1  0.49445419  0.74140757  0.63153839  1
  O  O254  1  0.99845879  0.24185705  0.12835957  1
  O  O255  1  0.99348196  0.24114748  0.62919749  1
  O  O256  1  0.99569208  0.74539525  0.13109725  1
  O  O257  1  0.99514264  0.74377831  0.62918398  1
  O  O258  1  0.01285787  0.25047956  0.37267791  1
  O  O259  1  0.00587888  0.25110780  0.86655190  1
  O  O260  1  0.00678411  0.75569165  0.36940895  1
  O  O261  1  0.00115268  0.75563139  0.86780666  1
  O  O262  1  0.50268661  0.26463687  0.37356517  1
  O  O263  1  0.49963370  0.25174836  0.86898655  1
  O  O264  1  0.50585711  0.75544137  0.36959339  1
  O  O265  1  0.50547737  0.75228574  0.87155509  1
  O  O266  1  0.23974496  0.13776253  0.50836476  1
  O  O267  1  0.24100599  0.13535228  0.99828789  1
  O  O268  1  0.25109309  0.63426333  0.49295079  1
  O  O269  1  0.24396790  0.63686715  1.00185408  1
  O  O270  1  0.74423156  0.13030278  0.49579548  1
  O  O271  1  0.74610806  0.12875306  0.99370276  1
  O  O272  1  0.74189266  0.63203665  0.50146079  1
  O  O273  1  0.75334349  0.62567992  0.98698999  1
  O  O274  1  0.24348957  0.36080737  0.00029940  1
  O  O275  1  0.25557316  0.36629680  0.50370906  1
  O  O276  1  0.24947149  0.86615258  0.00638684  1
  O  O277  1  0.25104240  0.86146444  0.50176993  1
  O  O278  1  0.75480314  0.37043264  0.00496352  1
  O  O279  1  0.74952329  0.37020063  0.50852898  1
  O  O280  1  0.75676837  0.87416402  0.00849233  1
  O  O281  1  0.74682275  0.86530872  0.50959881  1
  O  O282  1  0.12998019  0.49482347  0.24565024  1
  O  O283  1  0.12944517  0.49352695  0.74331468  1
  O  O284  1  0.12842140  0.99569361  0.24350583  1
  O  O285  1  0.13208407  0.99134734  0.74999914  1
  O  O286  1  0.63165988  0.49204311  0.24452550  1
  O  O287  1  0.63675236  0.49098371  0.75509410  1
  O  O288  1  0.62979054  0.99479167  0.24603254  1
  O  O289  1  0.62424210  0.99177455  0.74434461  1
  O  O290  1  0.37514300  0.00903766  0.25790708  1
  O  O291  1  0.36624443  0.00311662  0.75413085  1
  O  O292  1  0.37057248  0.50525330  0.25517928  1
  O  O293  1  0.36815593  0.50572529  0.75574842  1
  O  O294  1  0.86963529  0.01117208  0.25358454  1
  O  O295  1  0.87050551  0.00911078  0.75375361  1
  O  O296  1  0.87320120  0.50500262  0.25601878  1
  O  O297  1  0.86254806  0.49887825  0.75634456  1
  O  O298  1  0.13060043  0.36592335  0.36391886  1
  O  O299  1  0.12211662  0.36826842  0.86501658  1
  O  O300  1  0.11697111  0.86931225  0.36922016  1
  O  O301  1  0.11777175  0.87234555  0.86428895  1
  O  O302  1  0.61879788  0.37750437  0.36700287  1
  O  O303  1  0.62427151  0.37158485  0.86280058  1
  O  O304  1  0.62056510  0.87011681  0.37021673  1
  O  O305  1  0.61927510  0.86675955  0.87071972  1
  O  O306  1  0.37795947  0.13527067  0.13397328  1
  O  O307  1  0.37939385  0.12901838  0.62911605  1
  O  O308  1  0.38478606  0.63072026  0.13194532  1
  O  O309  1  0.38354899  0.63091576  0.62930950  1
  O  O310  1  0.88021321  0.12559708  0.13512486  1
  O  O311  1  0.88036547  0.13012806  0.62893887  1
  O  O312  1  0.88144409  0.63025271  0.13044392  1
  O  O313  1  0.88152994  0.63128040  0.62773785  1
  O  O314  1  0.25796871  0.25262640  0.11571491  1
  O  O315  1  0.25423437  0.25612618  0.61497191  1
  O  O316  1  0.25518571  0.75574084  0.11799936  1
  O  O317  1  0.25605192  0.74803686  0.61552651  1
  O  O318  1  0.75272548  0.25829548  0.11844878  1
  O  O319  1  0.75471988  0.25647282  0.61969104  1
  O  O320  1  0.75662894  0.75658850  0.12481274  1
  O  O321  1  0.75458568  0.75396626  0.62212604  1
  O  O322  1  0.24299791  0.25392318  0.38602887  1
  O  O323  1  0.24367465  0.24750485  0.88208715  1
  O  O324  1  0.24774803  0.74591680  0.38127507  1
  O  O325  1  0.24925255  0.74940179  0.88740716  1
  O  O326  1  0.74760075  0.24400733  0.38227035  1
  O  O327  1  0.74854852  0.23841755  0.88147408  1
  O  O328  1  0.74456843  0.74905844  0.38234552  1
  O  O329  1  0.74109353  0.74031044  0.87556897  1
  O  O330  1  0.00412184  0.12012247  0.00581743  1
  O  O331  1  0.01010397  0.13150516  0.50879689  1
  O  O332  1  0.00469759  0.62020252  0.00501651  1
  O  O333  1  0.00190090  0.61399756  0.50738288  1
  O  O334  1  0.50794228  0.11742328  0.00095849  1
  O  O335  1  0.50568446  0.11939789  0.50591267  1
  O  O336  1  0.49496283  0.62154786  0.01498123  1
  O  O337  1  0.50792849  0.62444229  0.50821009  1
  O  O338  1  0.49619529  0.37660121  0.49242239  1
  O  O339  1  0.50472740  0.38458778  0.99684420  1
  O  O340  1  0.50021552  0.88122983  0.49417843  1
  O  O341  1  0.49713691  0.88254354  0.99432855  1
  O  O342  1  0.99687787  0.38801721  0.50704563  1
  O  O343  1  0.99383732  0.38243922  0.99864065  1
  O  O344  1  1.00397260  0.86881315  0.48463824  1
  O  O345  1  0.99543921  0.87968147  0.99535383  1
  O  O346  1  0.49509903  0.48944301  0.37551347  1
  O  O347  1  0.48391180  0.50285687  0.87543250  1
  O  O348  1  0.49328122  0.99479283  0.38139275  1
  O  O349  1  0.49495090  0.99401803  0.88068423  1
  O  O350  1  0.99220595  0.50587349  0.38473687  1
  O  O351  1  0.99211878  0.49872743  0.88022295  1
  O  O352  1  1.00275594  0.98377622  0.36976504  1
  O  O353  1  0.99795668  0.99251427  0.88194785  1
  O  O354  1  0.00718425  0.00596784  0.11973275  1
  O  O355  1  0.00089040  0.01351232  0.62971019  1
  O  O356  1  0.00610824  0.50741735  0.11791327  1
  O  O357  1  0.00322493  0.50395366  0.61817714  1
  O  O358  1  0.50699524  0.00029867  0.11901081  1
  O  O359  1  0.50442970  0.00424433  0.61973233  1
  O  O360  1  0.50916037  0.50952858  0.12701687  1
  O  O361  1  0.49441382  0.51440153  0.62425279  1
  O  O362  1  0.24044811  0.38369073  0.24745078  1
  O  O363  1  0.24309852  0.37976268  0.74121234  1
  O  O364  1  0.24300050  0.87610854  0.24352656  1
  O  O365  1  0.24068541  0.88134547  0.75011746  1
  O  O366  1  0.74356702  0.38119528  0.24558850  1
  O  O367  1  0.74248110  0.38078071  0.74327270  1
  O  O368  1  0.74577904  0.88051001  0.24625619  1
  O  O369  1  0.74214273  0.87438750  0.74509325  1
  O  O370  1  0.26439617  0.12400942  0.24629094  1
  O  O371  1  0.25343103  0.11470911  0.74917224  1
  O  O372  1  0.25758849  0.62096339  0.25437480  1
  O  O373  1  0.25577805  0.61792187  0.74864058  1
  O  O374  1  0.75741391  0.12161808  0.25487321  1
  O  O375  1  0.75422432  0.12544554  0.75901178  1
  O  O376  1  0.75864550  0.61880812  0.25148861  1
  O  O377  1  0.74931377  0.61516375  0.75753160  1
  O  O378  1  0.38228308  0.11560455  0.36676839  1
  O  O379  1  0.37173640  0.11650881  0.86636427  1
  O  O380  1  0.37250841  0.61981519  0.36909927  1
  O  O381  1  0.37164894  0.61566500  0.86666325  1
  O  O382  1  0.87003055  0.12590075  0.36584985  1
  O  O383  1  0.86523346  0.12440989  0.86955206  1
  O  O384  1  0.87484319  0.61591291  0.36822084  1
  O  O385  1  0.86400562  0.61861825  0.87170624  1
  O  O386  1  0.12998177  0.38277667  0.13315623  1
  O  O387  1  0.13023690  0.37892239  0.62868627  1
  O  O388  1  0.12954436  0.88143893  0.13035464  1
  O  O389  1  0.12495018  0.87769348  0.63641428  1
  O  O390  1  0.63066956  0.38492760  0.13459700  1
  O  O391  1  0.63763955  0.36983068  0.63321054  1
  O  O392  1  0.63116288  0.87994637  0.13217790  1
  O  O393  1  0.62812919  0.87761203  0.63232946  1
  O  O394  1  0.12709327  0.25711296  0.25777215  1
  O  O395  1  0.12081510  0.25369023  0.75279764  1
  O  O396  1  0.12073304  0.75571564  0.25445024  1
  O  O397  1  0.11995781  0.75938185  0.74941250  1
  O  O398  1  0.62553884  0.26509070  0.25050038  1
  O  O399  1  0.62223287  0.26045892  0.75219390  1
  O  O400  1  0.62104879  0.75616306  0.25613788  1
  O  O401  1  0.61819278  0.75476509  0.76051907  1
  O  O402  1  0.37530212  0.24361229  0.24276963  1
  O  O403  1  0.37172737  0.24265293  0.74127779  1
  O  O404  1  0.38186364  0.74494403  0.24534927  1
  O  O405  1  0.37999171  0.74389479  0.74614586  1
  O  O406  1  0.87657863  0.23922331  0.24836049  1
  O  O407  1  0.87938323  0.24378981  0.74396016  1
  O  O408  1  0.88103945  0.74479814  0.24458199  1
  O  O409  1  0.88192792  0.74776047  0.74312942  1
  O  O410  1  0.37652468  0.49188125  0.49222453  1
  O  O411  1  0.36960521  0.50547348  0.98365196  1
  O  O412  1  0.38067766  1.00054143  0.49267240  1
  O  O413  1  0.37981157  1.00120535  0.99360286  1
  O  O414  1  0.88228224  0.49852442  0.49135892  1
  O  O415  1  0.87996992  0.49493689  0.99435091  1
  O  O416  1  0.87090969  0.99267430  0.49567728  1
  O  O417  1  0.88266746  0.99266090  1.00048869  1
  O  O418  1  0.11952090  0.00566255  0.00469181  1
  O  O419  1  0.13583786  0.01438733  0.49954474  1
  O  O420  1  0.12077423  0.50519294  0.00413937  1
  O  O421  1  0.11747688  0.49970769  0.50415307  1
  O  O422  1  0.61966287  0.00431234  0.00673546  1
  O  O423  1  0.61964510  0.00549317  0.50684591  1
  O  O424  1  0.62978425  0.49859689  0.01565888  1
  O  O425  1  0.62517812  0.51523341  0.49460252  1
  O  O426  1  0.37309803  0.36210373  0.13316727  1
  O  O427  1  0.36969047  0.36946270  0.61865972  1
  O  O428  1  0.36923758  0.86845676  0.12514239  1
  O  O429  1  0.37276061  0.86539283  0.62259709  1
  O  O430  1  0.86792402  0.37660607  0.11873665  1
  O  O431  1  0.86169787  0.36734633  0.62436749  1
  O  O432  1  0.87133479  0.87052912  0.12252450  1
  O  O433  1  0.86820020  0.86694255  0.62660399  1
  O  O434  1  0.12129115  0.13548533  0.38454581  1
  O  O435  1  0.12479635  0.13176156  0.88092972  1
  O  O436  1  0.13393263  0.63173571  0.37477661  1
  O  O437  1  0.12917740  0.62694023  0.88272655  1
  O  O438  1  0.63044283  0.12699063  0.38163394  1
  O  O439  1  0.63407121  0.12495807  0.88115336  1
  O  O440  1  0.62597432  0.63213934  0.38357243  1
  O  O441  1  0.63231722  0.63382983  0.86945826  1
