# generated using pymatgen
data_V93Zn93O256
_symmetry_space_group_name_H-M   'P 1'
_cell_length_a   17.04945547
_cell_length_b   17.05106450
_cell_length_c   17.05474671
_cell_angle_alpha   89.98830196
_cell_angle_beta   89.94482761
_cell_angle_gamma   90.00530365
_symmetry_Int_Tables_number   1
_chemical_formula_structural   V93Zn93O256
_chemical_formula_sum   'V93 Zn93 O256'
_cell_volume   4958.00627120
_cell_formula_units_Z   1
loop_
 _symmetry_equiv_pos_site_id
 _symmetry_equiv_pos_as_xyz
  1  'x, y, z'
loop_
 _atom_site_type_symbol
 _atom_site_label
 _atom_site_symmetry_multiplicity
 _atom_site_fract_x
 _atom_site_fract_y
 _atom_site_fract_z
 _atom_site_occupancy
  V  V0  1  0.63209589  0.12730904  0.50184854  1
  V  V1  1  0.37715139  0.12607969  0.24889692  1
  V  V2  1  0.00017166  0.12486338  0.62515919  1
  V  V3  1  0.00008472  0.87551103  0.37456909  1
  V  V4  1  0.62589862  0.62617195  0.50116754  1
  V  V5  1  0.12467779  0.75240343  0.37602205  1
  V  V6  1  0.49829308  0.74710078  0.24833128  1
  V  V7  1  0.62676102  0.49921761  0.62572912  1
  V  V8  1  0.75090199  0.87241023  0.12681396  1
  V  V9  1  0.50041500  0.62447631  0.62618477  1
  V  V10  1  0.50035679  0.74934592  0.75065754  1
  V  V11  1  0.87323103  0.88022284  -0.00249423  1
  V  V12  1  0.75152136  0.50126044  0.24989586  1
  V  V13  1  0.87484507  0.62544999  0.75018510  1
  V  V14  1  0.12583161  -0.00012701  0.62489473  1
  V  V15  1  0.75308289  -0.00135786  0.75290247  1
  V  V16  1  0.62071754  0.87686986  0.25382497  1
  V  V17  1  0.00220146  0.50080796  0.49825436  1
  V  V18  1  0.75293017  0.00637478  0.25232217  1
  V  V19  1  0.12397568  0.12583076  0.00047956  1
  V  V20  1  0.37473725  0.37595741  0.49764216  1
  V  V21  1  -0.00028295  0.24931557  0.74946198  1
  V  V22  1  0.50094891  0.37424893  0.87416829  1
  V  V23  1  0.12350469  0.75178937  0.87366569  1
  V  V24  1  0.24955700  0.25051922  -0.00135815  1
  V  V25  1  0.50190667  0.00136568  0.00326260  1
  V  V26  1  0.38041439  0.87593227  0.49269946  1
  V  V27  1  0.75532279  0.12010524  0.87711106  1
  V  V28  1  0.00172720  0.37616448  0.37374188  1
  V  V29  1  0.62396631  0.74932539  0.87635750  1
  V  V30  1  0.62020292  0.62624495  0.00579154  1
  V  V31  1  0.25003258  0.12363328  0.87409911  1
  V  V32  1  0.37409818  0.87407221  -0.00016931  1
  V  V33  1  0.12608401  0.12621194  0.49909030  1
  V  V34  1  0.87332716  0.24978411  0.62117532  1
  V  V35  1  0.25111670  0.75066393  0.49878168  1
  V  V36  1  0.87464671  0.37542081  -0.00001428  1
  V  V37  1  0.74844116  0.62491732  0.87606857  1
  V  V38  1  0.24913745  0.74993406  -0.00070991  1
  V  V39  1  0.62275380  0.50211443  0.12615202  1
  V  V40  1  0.88114069  0.62683040  0.24355045  1
  V  V41  1  0.50071286  0.50000137  0.50029220  1
  V  V42  1  0.74972210  0.37436205  0.12543452  1
  V  V43  1  0.12602899  0.37659917  0.24844056  1
  V  V44  1  0.37802048  0.24815752  0.62584279  1
  V  V45  1  -0.00108611  0.75083178  0.75025183  1
  V  V46  1  0.12424524  0.37553891  0.74873789  1
  V  V47  1  -0.00515860  0.88191817  0.87520996  1
  V  V48  1  0.50228133  -0.00198732  0.49500500  1
  V  V49  1  0.87539807  0.74920324  0.62483310  1
  V  V50  1  0.75055433  0.36994742  0.62035824  1
  V  V51  1  0.61957065  0.75574393  0.37598931  1
  V  V52  1  -0.00087058  0.50421502  0.00545731  1
  V  V53  1  0.24863673  0.62599276  0.87282258  1
  V  V54  1  0.50058203  0.37214576  0.37553045  1
  V  V55  1  0.87405540  0.50018669  0.87487311  1
  V  V56  1  0.87411398  0.24744562  0.12696800  1
  V  V57  1  0.49903807  0.50206278  0.00209526  1
  V  V58  1  0.25092118  0.87631693  0.62535458  1
  V  V59  1  0.24683352  0.37401219  0.12424994  1
  V  V60  1  -0.00103590  0.37469353  0.87452219  1
  V  V61  1  0.74921700  0.87600236  0.62684155  1
  V  V62  1  0.62679532  0.37490466  0.25168345  1
  V  V63  1  0.12461813  -0.00032477  0.12528893  1
  V  V64  1  0.25051698  0.37500458  0.62332455  1
  V  V65  1  0.87475376  0.37278776  0.49960263  1
  V  V66  1  0.75163222  0.62620429  0.37512993  1
  V  V67  1  0.25167849  0.12417968  0.37498163  1
  V  V68  1  0.87791446  0.50107254  0.37460017  1
  V  V69  1  0.62582688  0.25018668  0.87450553  1
  V  V70  1  0.75028093  0.49885135  0.74965702  1
  V  V71  1  0.75052640  0.24916330  0.00026899  1
  V  V72  1  -0.00061762  0.00039154  0.49980043  1
  V  V73  1  0.87532656  0.12319575  0.75196435  1
  V  V74  1  0.37818846  0.74465416  0.12759470  1
  V  V75  1  0.75067948  0.75083401  0.50006352  1
  V  V76  1  0.63482029  0.25004420  0.38016184  1
  V  V77  1  -0.00514704  0.12374505  0.12881035  1
  V  V78  1  0.50003403  0.87435723  0.87390299  1
  V  V79  1  0.12723376  0.62624691  0.49931737  1
  V  V80  1  0.87497444  0.87500113  0.49976138  1
  V  V81  1  0.87489956  0.00684101  0.37078444  1
  V  V82  1  0.37315048  0.37467121  -0.00201447  1
  V  V83  1  0.37488324  0.49979533  0.87406855  1
  V  V84  1  -0.00399166  0.24731656  0.25030837  1
  V  V85  1  0.37524088  0.62481550  0.74821270  1
  V  V86  1  0.12466897  0.50031806  0.62343586  1
  V  V87  1  0.37385966  0.00087511  0.87234182  1
  V  V88  1  0.11858506  0.62553891  0.00383197  1
  V  V89  1  0.24891084  0.50062206  0.74887990  1
  V  V90  1  0.00004496  0.74949411  0.24372519  1
  V  V91  1  0.24848032  0.87590516  0.12535442  1
  V  V92  1  0.12474416  0.24940309  0.87385496  1
  Zn  Zn93  1  0.12579850  0.25073042  0.37588832  1
  Zn  Zn94  1  0.12467557  0.87618798  0.75111364  1
  Zn  Zn95  1  0.75627079  0.13111235  0.37637916  1
  Zn  Zn96  1  0.50052985  0.24731754  0.75056094  1
  Zn  Zn97  1  0.25238035  -0.00204023  0.25091394  1
  Zn  Zn98  1  0.24939768  0.00062750  0.74925041  1
  Zn  Zn99  1  0.62565614  0.12374803  0.00342884  1
  Zn  Zn100  1  0.62360522  0.00129265  0.62664714  1
  Zn  Zn101  1  -0.00564113  0.00400325  -0.00415398  1
  Zn  Zn102  1  0.62445427  0.87661137  0.75025733  1
  Zn  Zn103  1  0.12510101  0.87623300  0.25101094  1
  Zn  Zn104  1  0.38109586  -0.00340300  0.37097093  1
  Zn  Zn105  1  0.37631848  0.75085784  0.62415879  1
  Zn  Zn106  1  0.62448392  0.00193750  0.12758348  1
  Zn  Zn107  1  0.50234072  0.12331212  0.62777690  1
  Zn  Zn108  1  0.62407694  0.37408978  0.74811019  1
  Zn  Zn109  1  0.87968569  0.74712813  0.12108062  1
  Zn  Zn110  1  0.50323409  0.24671452  0.24707662  1
  Zn  Zn111  1  0.25965541  0.62565192  0.36242654  1
  Zn  Zn112  1  0.12309029  0.50509083  0.12601928  1
  Zn  Zn113  1  -0.00076918  0.62505644  0.62572356  1
  Zn  Zn114  1  0.26212392  0.50876810  0.24365225  1
  Zn  Zn115  1  0.37679162  0.12538794  0.74842801  1
  Zn  Zn116  1  0.50251482  0.12814565  0.12550117  1
  Zn  Zn117  1  0.37798657  0.24720114  0.12281036  1
  Zn  Zn118  1  0.24841370  0.25082776  0.49904028  1
  Zn  Zn119  1  0.44127180  0.58118390  0.18285663  1
  Zn  Zn120  1  0.38058205  0.50991556  0.36092650  1
  Zn  Zn121  1  0.75054254  0.74953754  0.00104758  1
  Zn  Zn122  1  0.18728717  0.18799686  0.18869052  1
  Zn  Zn123  1  0.19146636  0.18654614  0.68703662  1
  Zn  Zn124  1  0.18716314  0.69184111  0.18664227  1
  Zn  Zn125  1  0.18626492  0.68992599  0.68547743  1
  Zn  Zn126  1  0.68336866  0.18690339  0.18796896  1
  Zn  Zn127  1  0.68793056  0.18617893  0.68859098  1
  Zn  Zn128  1  0.68809459  0.68824197  0.18960152  1
  Zn  Zn129  1  0.68742416  0.68802385  0.68904552  1
  Zn  Zn130  1  0.31223803  0.30913140  0.31166213  1
  Zn  Zn131  1  0.31225111  0.31212484  0.81062462  1
  Zn  Zn132  1  0.31086754  0.81084146  0.31120328  1
  Zn  Zn133  1  0.31317734  0.81245740  0.81064192  1
  Zn  Zn134  1  0.81493969  0.31425909  0.31199363  1
  Zn  Zn135  1  0.81178791  0.31141649  0.80950399  1
  Zn  Zn136  1  0.81258728  0.81448542  0.31312866  1
  Zn  Zn137  1  0.81226412  0.81156305  0.81436104  1
  Zn  Zn138  1  0.19324982  0.44218753  0.42988874  1
  Zn  Zn139  1  0.18523726  0.43875892  0.93626578  1
  Zn  Zn140  1  0.18954085  0.93896752  0.43826829  1
  Zn  Zn141  1  0.18453499  0.93748560  0.93922956  1
  Zn  Zn142  1  0.68906639  0.43871866  0.43851133  1
  Zn  Zn143  1  0.68625771  0.43771458  0.93858313  1
  Zn  Zn144  1  0.68863916  0.94040540  0.43896453  1
  Zn  Zn145  1  0.68629506  0.93622306  0.93762590  1
  Zn  Zn146  1  0.31267000  0.06294030  0.06255344  1
  Zn  Zn147  1  0.31472149  0.06152144  0.55918428  1
  Zn  Zn148  1  0.30502897  0.56055777  0.05784114  1
  Zn  Zn149  1  0.31368916  0.56291950  0.55865968  1
  Zn  Zn150  1  0.81096689  0.05997157  0.06474876  1
  Zn  Zn151  1  0.81221081  0.06116375  0.56402337  1
  Zn  Zn152  1  0.80909733  0.56251558  0.06204946  1
  Zn  Zn153  1  0.81331549  0.56098247  0.56272298  1
  Zn  Zn154  1  0.43742614  0.42086401  0.18599786  1
  Zn  Zn155  1  0.43878466  0.43504774  0.68780538  1
  Zn  Zn156  1  0.43563980  0.93534055  0.18841785  1
  Zn  Zn157  1  0.43967091  0.93739539  0.68353408  1
  Zn  Zn158  1  0.93758847  0.43585925  0.18787720  1
  Zn  Zn159  1  0.93727874  0.43807812  0.68600267  1
  Zn  Zn160  1  0.93621497  0.93573011  0.18710040  1
  Zn  Zn161  1  0.93587237  0.93736963  0.68884245  1
  Zn  Zn162  1  0.06451033  0.06253962  0.31240159  1
  Zn  Zn163  1  0.06463359  0.06094191  0.81004372  1
  Zn  Zn164  1  0.07525912  0.56920690  0.30693687  1
  Zn  Zn165  1  0.06061320  0.56368330  0.81474562  1
  Zn  Zn166  1  0.56414033  0.06416512  0.31602100  1
  Zn  Zn167  1  0.56401579  0.06473890  0.81208937  1
  Zn  Zn168  1  0.56565266  0.56344217  0.31693988  1
  Zn  Zn169  1  0.56343443  0.56196283  0.81371610  1
  Zn  Zn170  1  0.44199626  0.18526682  0.43858049  1
  Zn  Zn171  1  0.43777297  0.18652549  0.93806721  1
  Zn  Zn172  1  0.43769424  0.68996855  0.43834466  1
  Zn  Zn173  1  0.43691282  0.68695217  0.93777555  1
  Zn  Zn174  1  0.93934973  0.18935385  0.43854315  1
  Zn  Zn175  1  0.93715652  0.18754232  0.93952944  1
  Zn  Zn176  1  0.94027009  0.68689458  0.43493148  1
  Zn  Zn177  1  0.93539802  0.69210571  0.93697839  1
  Zn  Zn178  1  0.06128053  0.31220021  0.06214774  1
  Zn  Zn179  1  0.06184465  0.31183762  0.56123354  1
  Zn  Zn180  1  0.06142513  0.81468063  0.05939665  1
  Zn  Zn181  1  0.06242148  0.81322082  0.56315798  1
  Zn  Zn182  1  0.56201334  0.31238593  0.06158545  1
  Zn  Zn183  1  0.56368255  0.31020662  0.56156710  1
  Zn  Zn184  1  0.56186556  0.81444907  0.06470174  1
  Zn  Zn185  1  0.56266715  0.81433016  0.56556872  1
  O  O186  1  0.11692737  0.11925422  0.12012628  1
  O  O187  1  0.11987699  0.12025397  0.61999398  1
  O  O188  1  0.12839153  0.62495481  0.10626809  1
  O  O189  1  0.12234279  0.61975059  0.61598296  1
  O  O190  1  0.62127492  0.11894548  0.12119051  1
  O  O191  1  0.62482381  0.12592101  0.61501257  1
  O  O192  1  0.63300500  0.61920520  0.11393159  1
  O  O193  1  0.62141309  0.61931642  0.61993673  1
  O  O194  1  0.38579248  0.37212732  0.38249735  1
  O  O195  1  0.37865112  0.38094408  0.87923384  1
  O  O196  1  0.36747872  0.87667223  0.38908465  1
  O  O197  1  0.37871561  0.88177684  0.88069098  1
  O  O198  1  0.88145988  0.38201710  0.37908020  1
  O  O199  1  0.87892109  0.37946392  0.88003875  1
  O  O200  1  0.87992157  0.88365318  0.38155092  1
  O  O201  1  0.88357743  0.86874802  0.88486814  1
  O  O202  1  0.25201015  0.01293075  0.37327471  1
  O  O203  1  0.25866071  0.00368523  0.87731863  1
  O  O204  1  0.26136079  0.50013613  0.36339896  1
  O  O205  1  0.25439146  0.50519006  0.86826299  1
  O  O206  1  0.75981545  -0.00128151  0.36783302  1
  O  O207  1  0.74496075  0.01115293  0.86826200  1
  O  O208  1  0.75681005  0.50551728  0.36940679  1
  O  O209  1  0.75522514  0.50391994  0.87039430  1
  O  O210  1  0.24476659  0.48653735  0.12385847  1
  O  O211  1  0.24437141  0.49475684  0.62980390  1
  O  O212  1  0.23984067  0.99479793  0.12346320  1
  O  O213  1  0.24533127  0.99146401  0.62340052  1
  O  O214  1  0.74436148  0.49326981  0.13092693  1
  O  O215  1  0.74614850  0.49223110  0.63011264  1
  O  O216  1  0.75007579  0.98939714  0.13544416  1
  O  O217  1  0.74908417  0.99352968  0.63512155  1
  O  O218  1  0.00580063  0.36589704  0.25273298  1
  O  O219  1  0.00450968  0.36975653  0.75479341  1
  O  O220  1  -0.00033976  0.86702733  0.25759929  1
  O  O221  1  -0.00147193  0.86927329  0.75867544  1
  O  O222  1  0.50880689  0.37296261  0.26142093  1
  O  O223  1  0.50360621  0.37166007  0.75896825  1
  O  O224  1  0.51315264  0.86560789  0.24589027  1
  O  O225  1  0.50048076  0.86815272  0.75623848  1
  O  O226  1  0.48979429  0.12464850  0.25084050  1
  O  O227  1  0.49534066  0.12870797  0.74713175  1
  O  O228  1  0.51151169  0.64046075  0.24917866  1
  O  O229  1  0.49452800  0.62817346  0.74583926  1
  O  O230  1  1.00784589  0.13610834  0.23975069  1
  O  O231  1  0.99559251  0.12971861  0.74506348  1
  O  O232  1  0.99133464  0.63570029  0.25753506  1
  O  O233  1  0.99246303  0.63171518  0.75008361  1
  O  O234  1  0.36642496  0.25708817  -0.00247601  1
  O  O235  1  0.37667709  0.26192164  0.50693422  1
  O  O236  1  0.36971540  0.75468735  0.00621145  1
  O  O237  1  0.37051645  0.76010678  0.50352868  1
  O  O238  1  0.86998321  0.25660736  0.00662847  1
  O  O239  1  0.88274714  0.25936373  0.50852231  1
  O  O240  1  0.87113401  0.76022052  0.00412273  1
  O  O241  1  0.87014616  0.75453972  0.50349280  1
  O  O242  1  0.12617145  0.24182798  0.49750828  1
  O  O243  1  0.12883699  0.24574768  0.99254610  1
  O  O244  1  0.12910905  0.74417319  0.49677052  1
  O  O245  1  0.12831938  0.74347764  0.99393357  1
  O  O246  1  0.62186121  0.24100978  0.49062745  1
  O  O247  1  0.63301063  0.25022908  0.99022659  1
  O  O248  1  0.62983621  0.74675086  0.49336150  1
  O  O249  1  0.62393674  0.74131242  0.99633673  1
  O  O250  1  0.49641054  0.24862171  0.12783781  1
  O  O251  1  0.48932493  0.25098102  0.62657407  1
  O  O252  1  0.48871901  0.75449726  0.13291344  1
  O  O253  1  0.50015261  0.74167381  0.63230797  1
  O  O254  1  0.99523334  0.24288918  0.13066583  1
  O  O255  1  0.99492050  0.24435117  0.63136923  1
  O  O256  1  0.99979656  0.75698012  0.13960498  1
  O  O257  1  0.99263673  0.75018100  0.63160888  1
  O  O258  1  0.00034188  0.25589962  0.36487461  1
  O  O259  1  0.00494463  0.25492774  0.86945435  1
  O  O260  1  0.00495176  0.75736460  0.36873791  1
  O  O261  1  0.00424704  0.75923052  0.86924919  1
  O  O262  1  0.51093067  0.26123246  0.37554840  1
  O  O263  1  0.51064257  0.25536835  0.87815731  1
  O  O264  1  0.51377438  0.74755179  0.36761773  1
  O  O265  1  0.50360243  0.75468181  0.87033704  1
  O  O266  1  0.24489368  0.12621961  0.49120867  1
  O  O267  1  0.24346984  0.13090864  0.99442547  1
  O  O268  1  0.23820722  0.63193504  0.50420394  1
  O  O269  1  0.23988320  0.63016864  0.99073028  1
  O  O270  1  0.73719413  0.11613550  0.49611456  1
  O  O271  1  0.75173412  0.12976337  0.99234616  1
  O  O272  1  0.74553455  0.63059852  0.49546680  1
  O  O273  1  0.73925038  0.62509848  0.99381577  1
  O  O274  1  0.25197798  0.37096197  0.00476311  1
  O  O275  1  0.25977020  0.37544942  0.50387077  1
  O  O276  1  0.25395108  0.86824266  0.00476713  1
  O  O277  1  0.25728303  0.87140507  0.50790733  1
  O  O278  1  0.75573165  0.37032965  0.00586902  1
  O  O279  1  0.75832190  0.38296881  0.51266010  1
  O  O280  1  0.75512329  0.87489093  0.00886777  1
  O  O281  1  0.75573110  0.86982704  0.50595837  1
  O  O282  1  0.11415448  0.48197810  0.24286585  1
  O  O283  1  0.12875523  0.49551369  0.74500869  1
  O  O284  1  0.12658553  0.99916312  0.23630552  1
  O  O285  1  0.12837294  0.99608314  0.74030666  1
  O  O286  1  0.63181873  0.49587932  0.24648820  1
  O  O287  1  0.63228579  0.49881427  0.74361583  1
  O  O288  1  0.63269404  0.98977795  0.25439839  1
  O  O289  1  0.63899695  0.99922717  0.74920378  1
  O  O290  1  0.37346286  0.00867637  0.25284423  1
  O  O291  1  0.37455142  -0.00195122  0.76392413  1
  O  O292  1  0.38114206  0.50331499  0.24199362  1
  O  O293  1  0.36876034  0.50477585  0.75431791  1
  O  O294  1  0.86616012  -0.00722448  0.26081165  1
  O  O295  1  0.86266485  0.00775230  0.74578369  1
  O  O296  1  0.87249433  0.50708353  0.25449480  1
  O  O297  1  0.87082368  0.50506286  0.75578571  1
  O  O298  1  0.11997735  0.37353997  0.36526759  1
  O  O299  1  0.11940132  0.36949550  0.86814533  1
  O  O300  1  0.11815228  0.87100113  0.37569947  1
  O  O301  1  0.11535038  0.86848215  0.87560244  1
  O  O302  1  0.62064290  0.36971733  0.37344309  1
  O  O303  1  0.62102734  0.36638818  0.87501727  1
  O  O304  1  0.63442062  0.86413778  0.36660933  1
  O  O305  1  0.61780703  0.86696684  0.87400709  1
  O  O306  1  0.37526578  0.12606186  0.13545442  1
  O  O307  1  0.37463875  0.13779064  0.62288829  1
  O  O308  1  0.36740816  0.63928431  0.11768384  1
  O  O309  1  0.38226458  0.62499123  0.63048121  1
  O  O310  1  0.88741804  0.12998017  0.11945655  1
  O  O311  1  0.88072825  0.13006940  0.62999673  1
  O  O312  1  0.86792758  0.62669041  0.13966544  1
  O  O313  1  0.87567263  0.63103769  0.63152119  1
  O  O314  1  0.24841148  0.25911968  0.11661109  1
  O  O315  1  0.25903814  0.25758606  0.62234669  1
  O  O316  1  0.25636545  0.75638411  0.11889649  1
  O  O317  1  0.25066433  0.76033627  0.61812825  1
  O  O318  1  0.75430809  0.25460660  0.12107495  1
  O  O319  1  0.75724153  0.26228483  0.63255982  1
  O  O320  1  0.75097738  0.76307138  0.12609165  1
  O  O321  1  0.75567412  0.75479137  0.61977648  1
  O  O322  1  0.24730433  0.23811198  0.37721874  1
  O  O323  1  0.24341355  0.24522467  0.87885478  1
  O  O324  1  0.24149981  0.74910457  0.38196187  1
  O  O325  1  0.24491938  0.74587663  0.87975162  1
  O  O326  1  0.74022044  0.25031396  0.37043629  1
  O  O327  1  0.74447644  0.24363878  0.87991944  1
  O  O328  1  0.74244799  0.74564178  0.38051968  1
  O  O329  1  0.74205659  0.74279205  0.87693138  1
  O  O330  1  0.00530860  0.12492097  0.00966609  1
  O  O331  1  0.00529071  0.11922101  0.50623040  1
  O  O332  1  0.00705548  0.61590806  -0.01038076  1
  O  O333  1  0.00912444  0.61987854  0.50240342  1
  O  O334  1  0.50034607  0.11233122  0.00031112  1
  O  O335  1  0.51106547  0.11656419  0.50223557  1
  O  O336  1  0.51182848  0.61836110  -0.00580242  1
  O  O337  1  0.50778846  0.62018950  0.50659624  1
  O  O338  1  0.49519640  0.37967659  0.49280766  1
  O  O339  1  0.49326382  0.38232936  0.99405274  1
  O  O340  1  0.49003656  0.88229036  0.50747780  1
  O  O341  1  0.49382004  0.88119388  0.99391095  1
  O  O342  1  0.99615320  0.38151137  0.49337106  1
  O  O343  1  0.99439491  0.38156121  0.99331812  1
  O  O344  1  0.99438204  0.88118446  0.49494873  1
  O  O345  1  0.99084439  0.87609669  0.99197965  1
  O  O346  1  0.50245259  0.48863795  0.38136656  1
  O  O347  1  0.49378627  0.49462514  0.88065469  1
  O  O348  1  0.50050556  1.00151458  0.39003194  1
  O  O349  1  0.49215843  0.99493386  0.88232826  1
  O  O350  1  0.99697010  0.49536480  0.37891397  1
  O  O351  1  0.99339109  0.49347152  0.88258426  1
  O  O352  1  0.99351673  0.99633896  0.37877453  1
  O  O353  1  1.00528562  0.98665971  0.87604346  1
  O  O354  1  0.00634077  0.00852700  0.12571772  1
  O  O355  1  0.00388134  0.00532061  0.61958459  1
  O  O356  1  0.00023212  0.49367711  0.10847728  1
  O  O357  1  0.00723633  0.50054419  0.61735679  1
  O  O358  1  0.49885222  -0.00304576  0.11215619  1
  O  O359  1  0.50335756  0.00268397  0.61369731  1
  O  O360  1  0.50514409  0.49834081  0.11985357  1
  O  O361  1  0.50727387  0.50406886  0.62033710  1
  O  O362  1  0.24149369  0.37180655  0.23968241  1
  O  O363  1  0.24332226  0.38163760  0.74461863  1
  O  O364  1  0.24630713  0.87715517  0.24086357  1
  O  O365  1  0.24911474  0.87610323  0.73748571  1
  O  O366  1  0.74656414  0.38202821  0.24481135  1
  O  O367  1  0.75044594  0.38185531  0.73909886  1
  O  O368  1  0.74255382  0.88105116  0.24432034  1
  O  O369  1  0.75167975  0.88371315  0.74697738  1
  O  O370  1  0.25774160  0.12465688  0.25728062  1
  O  O371  1  0.25436826  0.12115235  0.75854639  1
  O  O372  1  0.21365206  0.61216069  0.25759278  1
  O  O373  1  0.25418724  0.62034748  0.75346462  1
  O  O374  1  0.74407037  0.10940740  0.25271131  1
  O  O375  1  0.75550130  0.11846077  0.75787159  1
  O  O376  1  0.75811872  0.62069247  0.25649755  1
  O  O377  1  0.75526002  0.61856420  0.75576243  1
  O  O378  1  0.36804635  0.12536995  0.36795200  1
  O  O379  1  0.36840562  0.11477778  0.87670312  1
  O  O380  1  0.37078889  0.62084338  0.38599996  1
  O  O381  1  0.36835511  0.61923390  0.86935649  1
  O  O382  1  0.87486219  0.11134421  0.38184740  1
  O  O383  1  0.86323227  0.13332785  0.86889334  1
  O  O384  1  0.87045152  0.62004321  0.36691907  1
  O  O385  1  0.86828742  0.61992127  0.87024018  1
  O  O386  1  0.13245042  0.37401034  0.12962109  1
  O  O387  1  0.12986312  0.38006533  0.62958537  1
  O  O388  1  0.12930025  0.88484775  0.12286423  1
  O  O389  1  0.13506956  0.88132285  0.62313360  1
  O  O390  1  0.63106524  0.38127801  0.13096665  1
  O  O391  1  0.63447857  0.37969620  0.62404720  1
  O  O392  1  0.63372930  0.87699135  0.13527662  1
  O  O393  1  0.63536080  0.87611404  0.62969810  1
  O  O394  1  0.11417656  0.26042468  0.24884083  1
  O  O395  1  0.11949237  0.25537661  0.75395348  1
  O  O396  1  0.11433361  0.75372765  0.25699123  1
  O  O397  1  0.11780032  0.75198697  0.75593488  1
  O  O398  1  0.62472377  0.25737712  0.26093620  1
  O  O399  1  0.62637581  0.25181124  0.76410565  1
  O  O400  1  0.62029469  0.75749617  0.25697079  1
  O  O401  1  0.61771827  0.74893827  0.75876948  1
  O  O402  1  0.37855032  0.23923133  0.24765225  1
  O  O403  1  0.37582256  0.25034904  0.73849847  1
  O  O404  1  0.38604922  0.75588772  0.24108009  1
  O  O405  1  0.38179807  0.74201375  0.74846195  1
  O  O406  1  0.88770594  0.25624752  0.24305832  1
  O  O407  1  0.88160950  0.24404194  0.74306401  1
  O  O408  1  0.88268419  0.74266287  0.25187560  1
  O  O409  1  0.87859318  0.74416898  0.74476053  1
  O  O410  1  0.38305435  0.48560969  0.50480835  1
  O  O411  1  0.37849567  0.49542772  0.99349235  1
  O  O412  1  0.38432308  0.99280251  0.49759590  1
  O  O413  1  0.38079077  0.99418338  0.99150272  1
  O  O414  1  0.88200600  0.49521510  0.49370020  1
  O  O415  1  0.88025629  0.49621078  0.99463432  1
  O  O416  1  0.88040164  0.99414087  0.49294296  1
  O  O417  1  0.87634658  0.98527844  1.00505067  1
  O  O418  1  0.12128063  0.00683459  0.01064839  1
  O  O419  1  0.11814609  0.00636290  0.50528867  1
  O  O420  1  0.11527113  0.50822179  -0.00294460  1
  O  O421  1  0.12271906  0.50762830  0.50309035  1
  O  O422  1  0.61279157  -0.00087844  0.00050290  1
  O  O423  1  0.61879299  0.00678804  0.50128267  1
  O  O424  1  0.61952721  0.50658424  0.00597449  1
  O  O425  1  0.62090587  0.50669491  0.50520502  1
  O  O426  1  0.36247800  0.37057074  0.11600457  1
  O  O427  1  0.37074802  0.36870525  0.61737003  1
  O  O428  1  0.36809584  0.86611052  0.11867386  1
  O  O429  1  0.36488378  0.87508296  0.61603780  1
  O  O430  1  0.86897774  0.36906008  0.11946857  1
  O  O431  1  0.86901263  0.37067143  0.62009336  1
  O  O432  1  0.86612377  0.87209206  0.11858735  1
  O  O433  1  0.86936315  0.86900577  0.61891077  1
  O  O434  1  0.13320158  0.12617879  0.38004753  1
  O  O435  1  0.12893946  0.12998185  0.88000039  1
  O  O436  1  0.12213708  0.63303741  0.39090686  1
  O  O437  1  0.12981050  0.63146783  0.88129957  1
  O  O438  1  0.62769447  0.13555931  0.38263484  1
  O  O439  1  0.63658650  0.13440590  0.87843160  1
  O  O440  1  0.63236675  0.63449336  0.38175650  1
  O  O441  1  0.62962040  0.62847000  0.88467582  1
