# generated using pymatgen
data_V93Zn93O256
_symmetry_space_group_name_H-M   'P 1'
_cell_length_a   17.06530178
_cell_length_b   17.07050533
_cell_length_c   17.05852053
_cell_angle_alpha   90.02048510
_cell_angle_beta   89.95681464
_cell_angle_gamma   90.03708860
_symmetry_Int_Tables_number   1
_chemical_formula_structural   V93Zn93O256
_chemical_formula_sum   'V93 Zn93 O256'
_cell_volume   4969.37156316
_cell_formula_units_Z   1
loop_
 _symmetry_equiv_pos_site_id
 _symmetry_equiv_pos_as_xyz
  1  'x, y, z'
loop_
 _atom_site_type_symbol
 _atom_site_label
 _atom_site_symmetry_multiplicity
 _atom_site_fract_x
 _atom_site_fract_y
 _atom_site_fract_z
 _atom_site_occupancy
  V  V0  1  0.62493365  0.37540682  0.75038353  1
  V  V1  1  0.37489987  0.75006321  0.62443732  1
  V  V2  1  0.25067569  0.12421636  0.37485782  1
  V  V3  1  0.37629941  0.62382653  0.74988759  1
  V  V4  1  0.87432769  0.12433363  0.75059299  1
  V  V5  1  -0.00064724  0.87678151  0.87396170  1
  V  V6  1  0.37599776  0.62562123  0.24794173  1
  V  V7  1  0.24955660  0.12525290  0.87616821  1
  V  V8  1  0.75084013  0.25038573  0.00086284  1
  V  V9  1  0.50098269  0.12279315  0.12436866  1
  V  V10  1  0.11293396  0.50429010  0.11898863  1
  V  V11  1  0.50103760  0.62543038  0.62429278  1
  V  V12  1  0.87452460  0.37434760  0.50137611  1
  V  V13  1  0.00112384  -0.00105651  0.49935006  1
  V  V14  1  0.12524628  -0.00001238  0.62486098  1
  V  V15  1  0.62533240  0.37543467  0.25001721  1
  V  V16  1  0.62450198  0.24970568  0.87426795  1
  V  V17  1  0.24989080  0.62580005  0.37498776  1
  V  V18  1  0.12324205  -0.00049772  0.12525092  1
  V  V19  1  0.24797559  0.62607334  0.88049625  1
  V  V20  1  0.00010722  0.86993942  0.37275286  1
  V  V21  1  0.37537954  -0.00339593  0.88209989  1
  V  V22  1  0.50057626  0.37559849  0.37560948  1
  V  V23  1  0.62542182  0.49989076  0.62557393  1
  V  V24  1  0.50101746  0.37436587  0.87479093  1
  V  V25  1  0.87321281  0.87233365  0.49927554  1
  V  V26  1  0.62481448  0.87453638  0.74852947  1
  V  V27  1  0.12717340  0.75076917  0.87520293  1
  V  V28  1  0.63235506  0.75053451  0.37722073  1
  V  V29  1  0.37563145  0.37491842  0.50091756  1
  V  V30  1  0.37541538  0.12501894  0.75021625  1
  V  V31  1  0.12553809  0.24944982  0.87815038  1
  V  V32  1  0.50033511  -0.00025644  0.50000708  1
  V  V33  1  0.25051600  0.75008479  0.50024727  1
  V  V34  1  0.75592860  0.49972165  0.75365712  1
  V  V35  1  0.24978910  -0.00059040  0.74955515  1
  V  V36  1  0.62627252  0.25033220  0.37616218  1
  V  V37  1  -0.00000957  0.24967178  0.25078541  1
  V  V38  1  0.37539748  0.12565454  0.25117110  1
  V  V39  1  0.88246751  0.74213359  0.12427601  1
  V  V40  1  0.37525755  0.49977236  0.87450806  1
  V  V41  1  0.50091666  0.49964874  -0.00002050  1
  V  V42  1  0.12458631  0.12426081  0.50040962  1
  V  V43  1  0.49918394  0.62469924  0.12551968  1
  V  V44  1  0.62459389  -0.00097182  0.62444069  1
  V  V45  1  0.62396556  0.75074131  0.87456095  1
  V  V46  1  0.87390604  -0.00025583  0.37443130  1
  V  V47  1  -0.00057452  0.24810951  0.75051755  1
  V  V48  1  0.37498529  0.24942764  0.62571905  1
  V  V49  1  0.74640272  -0.00465385  0.24366270  1
  V  V50  1  0.87237399  0.74907422  0.62179323  1
  V  V51  1  0.87531442  0.50088831  0.37553164  1
  V  V52  1  0.12541644  0.87465144  0.24991916  1
  V  V53  1  0.87320569  0.24943064  0.62459199  1
  V  V54  1  0.87674241  0.38673109  -0.00397047  1
  V  V55  1  -0.00490551  0.38117292  0.87814156  1
  V  V56  1  0.00060383  0.62439074  0.62860799  1
  V  V57  1  0.62550098  0.49984031  0.12513486  1
  V  V58  1  -0.00074620  0.75212748  0.74887117  1
  V  V59  1  0.75087889  0.37397037  0.12337321  1
  V  V60  1  0.00099832  0.50033994  0.50213644  1
  V  V61  1  0.87018803  0.87695168  0.00610854  1
  V  V62  1  0.37631132  0.00013724  0.37576807  1
  V  V63  1  -0.00002805  0.37523172  0.37611808  1
  V  V64  1  0.74950435  0.12401013  0.87501035  1
  V  V65  1  0.12459421  0.25006017  0.37652419  1
  V  V66  1  -0.00143864  0.00211567  0.00063102  1
  V  V67  1  0.87401558  0.00058398  0.87415766  1
  V  V68  1  0.62359976  0.12392046  0.00004771  1
  V  V69  1  0.50013856  0.12375874  0.62569323  1
  V  V70  1  0.25072052  0.49908014  0.24753341  1
  V  V71  1  0.49998020  0.24992415  0.25016741  1
  V  V72  1  0.75446257  0.62322257  0.87352426  1
  V  V73  1  0.50086349  0.87443386  0.37384781  1
  V  V74  1  0.75196140  0.50388253  0.25181983  1
  V  V75  1  0.37281752  0.37214180  0.00179310  1
  V  V76  1  0.12460138  0.37629051  0.75130358  1
  V  V77  1  0.50032312  0.74879188  0.25034215  1
  V  V78  1  0.62449813  0.62488207  -0.00057675  1
  V  V79  1  0.25734149  0.87436746  0.11961702  1
  V  V80  1  -0.00015884  0.12698277  0.12667914  1
  V  V81  1  0.74749830  0.75456636  0.00547160  1
  V  V82  1  0.50020642  0.49996806  0.49960238  1
  V  V83  1  0.12539731  0.37623601  0.25089058  1
  V  V84  1  0.24988032  0.25095821  0.50134908  1
  V  V85  1  0.12524726  0.87662751  0.74923451  1
  V  V86  1  0.63256301  0.62856068  0.49913139  1
  V  V87  1  0.49513224  0.87453594  0.88115802  1
  V  V88  1  0.12434459  0.49956109  0.62821553  1
  V  V89  1  0.24855769  0.49976182  0.74955994  1
  V  V90  1  0.74963456  0.12602088  0.37632219  1
  V  V91  1  0.74920193  0.87097464  0.61932948  1
  V  V92  1  0.50002564  0.74945380  0.74976967  1
  Zn  Zn93  1  0.50036318  0.24968768  0.74945429  1
  Zn  Zn94  1  0.74852896  0.37518539  0.62493519  1
  Zn  Zn95  1  0.12509155  0.62488929  0.50147246  1
  Zn  Zn96  1  0.75503483  0.63133392  0.37774034  1
  Zn  Zn97  1  0.25010416  0.24762455  0.00373410  1
  Zn  Zn98  1  0.88508904  0.62038026  0.24786066  1
  Zn  Zn99  1  0.62538435  0.12708993  0.50240074  1
  Zn  Zn100  1  0.37129023  0.24936525  0.12610565  1
  Zn  Zn101  1  0.37567157  0.49930846  0.37546477  1
  Zn  Zn102  1  0.49916685  -0.00474956  0.00327441  1
  Zn  Zn103  1  0.24973438  0.37540454  0.62593185  1
  Zn  Zn104  1  0.00831440  0.74237252  0.23815702  1
  Zn  Zn105  1  0.38008674  0.75513170  0.11784289  1
  Zn  Zn106  1  0.12466191  0.74847090  0.37461107  1
  Zn  Zn107  1  0.09916273  0.63491754  0.01561318  1
  Zn  Zn108  1  0.12573631  0.12567266  0.00134163  1
  Zn  Zn109  1  0.25105881  0.87466855  0.62437259  1
  Zn  Zn110  1  0.74877734  0.25202572  0.50033801  1
  Zn  Zn111  1  0.37500673  0.87537964  0.50087606  1
  Zn  Zn112  1  0.87380502  0.12713845  0.25007299  1
  Zn  Zn113  1  0.62998278  -0.00839946  0.11806023  1
  Zn  Zn114  1  0.87569081  0.62216067  0.75172060  1
  Zn  Zn115  1  0.87635454  0.25218456  0.12500600  1
  Zn  Zn116  1  0.75003087  -0.00120120  0.74908237  1
  Zn  Zn117  1  0.24835280  0.37285070  0.12409081  1
  Zn  Zn118  1  0.25428403  0.75363494  -0.00222129  1
  Zn  Zn119  1  0.25143488  0.00031399  0.25040302  1
  Zn  Zn120  1  0.62790510  0.86904212  0.24095345  1
  Zn  Zn121  1  -0.00135754  0.12323924  0.62416367  1
  Zn  Zn122  1  0.18823517  0.18894500  0.18801877  1
  Zn  Zn123  1  0.18769585  0.18687208  0.68811522  1
  Zn  Zn124  1  0.18820785  0.68801062  0.18677518  1
  Zn  Zn125  1  0.18718949  0.68584075  0.69034940  1
  Zn  Zn126  1  0.68654497  0.18547201  0.18795227  1
  Zn  Zn127  1  0.68762072  0.18641416  0.68909470  1
  Zn  Zn128  1  0.68768763  0.68783807  0.18749733  1
  Zn  Zn129  1  0.68778832  0.68723960  0.68743076  1
  Zn  Zn130  1  0.31347985  0.31213993  0.31445811  1
  Zn  Zn131  1  0.31193465  0.31241214  0.81259969  1
  Zn  Zn132  1  0.31484537  0.81294452  0.30987292  1
  Zn  Zn133  1  0.31272128  0.81252625  0.81122835  1
  Zn  Zn134  1  0.81388446  0.31306015  0.31129537  1
  Zn  Zn135  1  0.81175278  0.31251545  0.81353272  1
  Zn  Zn136  1  0.81372312  0.81437461  0.30822461  1
  Zn  Zn137  1  0.81136422  0.81272252  0.81135680  1
  Zn  Zn138  1  0.18756280  0.43828854  0.43891185  1
  Zn  Zn139  1  0.18624414  0.43802358  0.93682401  1
  Zn  Zn140  1  0.18879451  0.93697286  0.43733307  1
  Zn  Zn141  1  0.18599600  0.94013519  0.93794921  1
  Zn  Zn142  1  0.68853927  0.43808540  0.43877098  1
  Zn  Zn143  1  0.68932687  0.43714373  0.93675308  1
  Zn  Zn144  1  0.68588667  0.93769003  0.43620869  1
  Zn  Zn145  1  0.68530279  0.93817095  0.93600372  1
  Zn  Zn146  1  0.31086511  0.06279828  0.06408662  1
  Zn  Zn147  1  0.31276932  0.06256829  0.56225277  1
  Zn  Zn148  1  0.31207404  0.56120824  0.06257785  1
  Zn  Zn149  1  0.31281763  0.56199862  0.56302024  1
  Zn  Zn150  1  0.81428752  0.06651613  0.06176550  1
  Zn  Zn151  1  0.81197043  0.05991654  0.56201075  1
  Zn  Zn152  1  0.81103227  0.56462075  0.06119496  1
  Zn  Zn153  1  0.81338570  0.56026064  0.56579042  1
  Zn  Zn154  1  0.43688325  0.43789453  0.18747971  1
  Zn  Zn155  1  0.43815367  0.43653412  0.68679723  1
  Zn  Zn156  1  0.44075655  0.93921515  0.19215811  1
  Zn  Zn157  1  0.43615566  0.93644065  0.68940930  1
  Zn  Zn158  1  0.93606919  0.43484235  0.18604284  1
  Zn  Zn159  1  0.93899486  0.43452521  0.69023075  1
  Zn  Zn160  1  0.93530209  0.93750907  0.18904434  1
  Zn  Zn161  1  0.93703617  0.93809507  0.68626653  1
  Zn  Zn162  1  0.06271271  0.06117726  0.31244485  1
  Zn  Zn163  1  0.06142908  0.06382190  0.81216160  1
  Zn  Zn164  1  0.06294035  0.56338678  0.31028196  1
  Zn  Zn165  1  0.03973100  0.58285279  0.84571626  1
  Zn  Zn166  1  0.56426055  0.06305753  0.31299127  1
  Zn  Zn167  1  0.56170887  0.06047294  0.81130271  1
  Zn  Zn168  1  0.56410312  0.56373787  0.31461203  1
  Zn  Zn169  1  0.56519393  0.56174507  0.81284790  1
  Zn  Zn170  1  0.43871055  0.18741669  0.43908445  1
  Zn  Zn171  1  0.43788765  0.18669290  0.93690757  1
  Zn  Zn172  1  0.43876875  0.68721126  0.43660889  1
  Zn  Zn173  1  0.43384460  0.68934457  0.94033245  1
  Zn  Zn174  1  0.93671977  0.18624664  0.43807633  1
  Zn  Zn175  1  0.93623915  0.19197366  0.93966520  1
  Zn  Zn176  1  0.93743390  0.68393931  0.43873684  1
  Zn  Zn177  1  0.93522101  0.69202564  0.93957934  1
  Zn  Zn178  1  0.06152701  0.31777063  0.06262612  1
  Zn  Zn179  1  0.06123616  0.31267753  0.56449986  1
  Zn  Zn180  1  0.06505219  0.81636669  0.05739814  1
  Zn  Zn181  1  0.06365104  0.81188359  0.56189234  1
  Zn  Zn182  1  0.56193580  0.31055539  0.06279707  1
  Zn  Zn183  1  0.56255759  0.31133071  0.56305823  1
  Zn  Zn184  1  0.56336604  0.81242862  0.06499100  1
  Zn  Zn185  1  0.56179616  0.81228929  0.55942568  1
  O  O186  1  0.11513531  0.11868100  0.12590804  1
  O  O187  1  0.12264588  0.11869021  0.61833161  1
  O  O188  1  0.13023604  0.61122390  0.12414302  1
  O  O189  1  0.11733596  0.61773865  0.62657704  1
  O  O190  1  0.61547788  0.12264929  0.11944350  1
  O  O191  1  0.61939135  0.11759765  0.62523898  1
  O  O192  1  0.62008139  0.61904612  0.11884503  1
  O  O193  1  0.61986878  0.62190551  0.61768913  1
  O  O194  1  0.38313167  0.37598266  0.38271810  1
  O  O195  1  0.38081105  0.38051458  0.88167581  1
  O  O196  1  0.38259439  0.88193153  0.37534747  1
  O  O197  1  0.38444376  0.88491042  0.86580225  1
  O  O198  1  0.88120466  0.38048905  0.38107316  1
  O  O199  1  0.88345664  0.36535378  0.88408575  1
  O  O200  1  0.88200067  0.87829899  0.37870802  1
  O  O201  1  0.87974105  0.87979147  0.88277921  1
  O  O202  1  0.25702468  0.00701035  0.37483073  1
  O  O203  1  0.25657977  0.00411877  0.86984371  1
  O  O204  1  0.25013250  0.50868435  0.36589410  1
  O  O205  1  0.25498108  0.50705266  0.86892154  1
  O  O206  1  0.75384728  0.00788170  0.36776488  1
  O  O207  1  0.75665948  0.00630014  0.87325142  1
  O  O208  1  0.75534888  0.49930837  0.36463776  1
  O  O209  1  0.74065201  0.51191381  0.86518450  1
  O  O210  1  0.24562773  0.49771664  0.13805468  1
  O  O211  1  0.24375175  0.49932287  0.63166682  1
  O  O212  1  0.24283832  0.99077616  0.12831688  1
  O  O213  1  0.24360176  0.99906890  0.63145171  1
  O  O214  1  0.74469407  0.49499794  0.13253758  1
  O  O215  1  0.74225882  0.49918372  0.63554290  1
  O  O216  1  0.75160677  1.01111411  0.14123865  1
  O  O217  1  0.74454595  0.98888181  0.62678421  1
  O  O218  1  0.00577718  0.36974102  0.25720024  1
  O  O219  1  0.00408779  0.36476329  0.75686448  1
  O  O220  1  0.00680810  0.87181613  0.25669001  1
  O  O221  1  0.00539014  0.87231127  0.75464580  1
  O  O222  1  0.50597601  0.37089430  0.25490066  1
  O  O223  1  0.50682930  0.37480269  0.75755189  1
  O  O224  1  0.50200246  0.86712756  0.25793911  1
  O  O225  1  0.50574852  0.86801084  0.75732860  1
  O  O226  1  0.49649269  0.12994337  0.24340861  1
  O  O227  1  0.49297722  0.12560339  0.74348305  1
  O  O228  1  0.49566356  0.62788919  0.24534930  1
  O  O229  1  0.49639786  0.62955802  0.74498772  1
  O  O230  1  0.99985994  0.12997714  0.24265193  1
  O  O231  1  0.99217588  0.13116394  0.74824592  1
  O  O232  1  0.99582255  0.63387919  0.25887443  1
  O  O233  1  0.99498171  0.63390398  0.74796221  1
  O  O234  1  0.37490043  0.26157436  -0.00045317  1
  O  O235  1  0.36951286  0.25480665  0.50559091  1
  O  O236  1  0.36769722  0.74760458  0.00611535  1
  O  O237  1  0.36661344  0.74895379  0.50559569  1
  O  O238  1  0.86545488  0.25678050  0.00389712  1
  O  O239  1  0.87522449  0.25495343  0.50929195  1
  O  O240  1  0.86761359  0.75773862  0.00669962  1
  O  O241  1  0.88144759  0.75615225  0.51412479  1
  O  O242  1  0.12897464  0.24513877  0.49560521  1
  O  O243  1  0.12559180  0.25067292  0.98755557  1
  O  O244  1  0.13701018  0.74680546  0.49770270  1
  O  O245  1  0.13071061  0.74813857  0.99167899  1
  O  O246  1  0.62865883  0.24816626  0.49232467  1
  O  O247  1  0.63059878  0.24449977  0.99393141  1
  O  O248  1  0.61872434  0.73931029  0.48944139  1
  O  O249  1  0.63174918  0.74493695  0.99495993  1
  O  O250  1  0.49946356  0.23920772  0.13182340  1
  O  O251  1  0.49293298  0.24229712  0.62660465  1
  O  O252  1  0.50088405  0.74091599  0.13221109  1
  O  O253  1  0.49567923  0.74444807  0.63017873  1
  O  O254  1  1.00406013  0.24140920  0.13171655  1
  O  O255  1  0.98910350  0.24741156  0.63084454  1
  O  O256  1  0.98619280  0.75372839  0.11804354  1
  O  O257  1  0.99343008  0.74545849  0.63002008  1
  O  O258  1  0.00567267  0.25511864  0.37139539  1
  O  O259  1  0.00914640  0.25366819  0.86969791  1
  O  O260  1  0.00039388  0.76406721  0.37799301  1
  O  O261  1  0.00517747  0.76035308  0.86718826  1
  O  O262  1  0.50635282  0.25542488  0.36986834  1
  O  O263  1  0.50721734  0.25619463  0.87311821  1
  O  O264  1  0.50807898  0.75381056  0.36918126  1
  O  O265  1  0.50376137  0.75560308  0.86933331  1
  O  O266  1  0.24420138  0.13128863  0.49438236  1
  O  O267  1  0.24582634  0.12667306  0.99201481  1
  O  O268  1  0.25098327  0.63183647  0.49125999  1
  O  O269  1  0.24909922  0.62066075  0.98479746  1
  O  O270  1  0.74899768  0.12522768  0.48710856  1
  O  O271  1  0.74415474  0.13049010  0.99475082  1
  O  O272  1  0.73582098  0.61836685  0.50021872  1
  O  O273  1  0.74360051  0.63277891  0.99178569  1
  O  O274  1  0.26335131  0.37531375  -0.00107229  1
  O  O275  1  0.25670856  0.36844306  0.50092445  1
  O  O276  1  0.24367048  0.87840433  0.01720164  1
  O  O277  1  0.25255130  0.86241470  0.50039590  1
  O  O278  1  0.75527910  0.36953104  0.00362169  1
  O  O279  1  0.75908305  0.37377853  0.50345122  1
  O  O280  1  0.75873574  0.86474502  -0.00958815  1
  O  O281  1  0.75607788  0.87966804  0.51135760  1
  O  O282  1  0.13357106  0.49575714  0.24326216  1
  O  O283  1  0.13194080  0.49181814  0.74398639  1
  O  O284  1  0.12486083  0.98931755  0.24442099  1
  O  O285  1  0.12965082  0.99613830  0.74549272  1
  O  O286  1  0.63302307  0.49551613  0.24558109  1
  O  O287  1  0.63202659  0.49509494  0.74464118  1
  O  O288  1  0.63959916  1.00088357  0.25048524  1
  O  O289  1  0.62573470  0.99163050  0.74224522  1
  O  O290  1  0.37481635  0.00891833  0.25906395  1
  O  O291  1  0.36917488  0.00607196  0.75805581  1
  O  O292  1  0.36607838  0.50500400  0.25230729  1
  O  O293  1  0.37050746  0.50419945  0.75513349  1
  O  O294  1  0.86428796  0.00188534  0.25619384  1
  O  O295  1  0.87448745  0.00593992  0.75649233  1
  O  O296  1  0.86644634  0.49766773  0.25536748  1
  O  O297  1  0.85981586  0.50107846  0.74390289  1
  O  O298  1  0.11913509  0.36989933  0.37143274  1
  O  O299  1  0.11836190  0.36614560  0.87154850  1
  O  O300  1  0.11688858  0.87596138  0.36635398  1
  O  O301  1  0.11944222  0.87160951  0.86948322  1
  O  O302  1  0.62034637  0.37056666  0.36930510  1
  O  O303  1  0.61986143  0.36974269  0.87110430  1
  O  O304  1  0.61919818  0.86525191  0.37344228  1
  O  O305  1  0.61664931  0.86979562  0.86830061  1
  O  O306  1  0.38379539  0.12596229  0.13137034  1
  O  O307  1  0.37993466  0.12953890  0.63075947  1
  O  O308  1  0.38248027  0.62199751  0.13219253  1
  O  O309  1  0.38229492  0.62950844  0.63036561  1
  O  O310  1  0.88911195  0.12789630  0.12726202  1
  O  O311  1  0.87527758  0.13263433  0.62978134  1
  O  O312  1  0.87454856  0.63947140  0.12081995  1
  O  O313  1  0.88009276  0.63433048  0.62656499  1
  O  O314  1  0.25274589  0.25512884  0.12160537  1
  O  O315  1  0.25629738  0.25089035  0.61862503  1
  O  O316  1  0.24924507  0.76664400  0.12612243  1
  O  O317  1  0.25569533  0.74714743  0.61586121  1
  O  O318  1  0.74861630  0.25685873  0.11961396  1
  O  O319  1  0.76202985  0.25110629  0.62450357  1
  O  O320  1  0.75783599  0.74467897  0.11022549  1
  O  O321  1  0.75936223  0.75984038  0.63024295  1
  O  O322  1  0.24364068  0.24443738  0.38140101  1
  O  O323  1  0.23972245  0.24437561  0.87484974  1
  O  O324  1  0.25189759  0.74187490  0.38223348  1
  O  O325  1  0.24628875  0.74267990  0.87393852  1
  O  O326  1  0.74566664  0.24178902  0.37395178  1
  O  O327  1  0.74333618  0.24324905  0.88063314  1
  O  O328  1  0.73732339  0.75003902  0.36688760  1
  O  O329  1  0.74270950  0.74423107  0.88211874  1
  O  O330  1  0.00079216  0.12062314  0.00983518  1
  O  O331  1  0.00704549  0.11654974  0.49905810  1
  O  O332  1  0.00973946  0.61388177  -0.04522152  1
  O  O333  1  0.00290424  0.61753382  0.50856219  1
  O  O334  1  0.50512640  0.12507638  0.00935952  1
  O  O335  1  0.50157496  0.11774618  0.50774115  1
  O  O336  1  0.50603096  0.61861601  0.00428954  1
  O  O337  1  0.50854910  0.61935523  0.50495567  1
  O  O338  1  0.49571099  0.38046531  0.49504606  1
  O  O339  1  0.49371580  0.38039706  0.99496651  1
  O  O340  1  0.49789230  0.88146214  0.49204982  1
  O  O341  1  0.50424734  0.87423622  0.98396640  1
  O  O342  1  0.99452676  0.38033822  0.49531256  1
  O  O343  1  0.98849170  0.36815783  0.99050431  1
  O  O344  1  0.99551531  0.87999947  0.49152452  1
  O  O345  1  0.99030655  0.88221099  0.99344274  1
  O  O346  1  0.49989740  0.49338363  0.38118578  1
  O  O347  1  0.49565065  0.49534010  0.88078767  1
  O  O348  1  0.49654582  0.99525806  0.37966002  1
  O  O349  1  0.49154621  0.99119990  0.87457364  1
  O  O350  1  0.99569731  0.49371144  0.38163402  1
  O  O351  1  1.00270295  0.47784749  0.86229783  1
  O  O352  1  0.99480935  0.98939830  0.37834371  1
  O  O353  1  0.99372015  0.99629163  0.88065401  1
  O  O354  1  0.00277977  0.00759828  0.12154322  1
  O  O355  1  0.00637305  0.00044957  0.61694716  1
  O  O356  1  0.01456194  0.49781698  0.13154764  1
  O  O357  1  0.00389278  0.50479822  0.62247692  1
  O  O358  1  0.49975206  0.01266417  0.12386206  1
  O  O359  1  0.50452040  0.00355630  0.62042248  1
  O  O360  1  0.50694301  0.50477989  0.12011917  1
  O  O361  1  0.50607786  0.50643822  0.62024890  1
  O  O362  1  0.24496226  0.38486333  0.25368596  1
  O  O363  1  0.24365244  0.38203659  0.75014153  1
  O  O364  1  0.24005372  0.87777343  0.24298305  1
  O  O365  1  0.24257028  0.88190474  0.74894882  1
  O  O366  1  0.74507266  0.38383298  0.24440352  1
  O  O367  1  0.74316298  0.38400830  0.75150037  1
  O  O368  1  0.74925568  0.89275428  0.25423286  1
  O  O369  1  0.74322424  0.87593428  0.73962023  1
  O  O370  1  0.25618038  0.12381171  0.25759902  1
  O  O371  1  0.25515608  0.11870236  0.75660535  1
  O  O372  1  0.25507997  0.61875773  0.25650561  1
  O  O373  1  0.25898766  0.61941506  0.75670225  1
  O  O374  1  0.75144068  0.11790711  0.26137968  1
  O  O375  1  0.75676349  0.12244385  0.75770464  1
  O  O376  1  0.75433613  0.61158081  0.24837389  1
  O  O377  1  0.74822283  0.61751829  0.75719567  1
  O  O378  1  0.37052474  0.12068861  0.37089452  1
  O  O379  1  0.37037806  0.11723904  0.86944524  1
  O  O380  1  0.36552914  0.62304458  0.36811121  1
  O  O381  1  0.36901056  0.61863795  0.86883007  1
  O  O382  1  0.86678032  0.11869548  0.37398891  1
  O  O383  1  0.86964693  0.12051429  0.87127930  1
  O  O384  1  0.87017155  0.61688268  0.37496268  1
  O  O385  1  0.85657321  0.63569620  0.87120005  1
  O  O386  1  0.12711875  0.38571173  0.13305744  1
  O  O387  1  0.12532187  0.38034018  0.63325772  1
  O  O388  1  0.12962972  0.88016054  0.13335886  1
  O  O389  1  0.12657255  0.88201443  0.63137039  1
  O  O390  1  0.62970151  0.38083455  0.12999759  1
  O  O391  1  0.62545012  0.38151075  0.63185794  1
  O  O392  1  0.62209899  0.88008193  0.12858583  1
  O  O393  1  0.63188497  0.87699597  0.62774678  1
  O  O394  1  0.12010751  0.25607044  0.25807494  1
  O  O395  1  0.12062303  0.25490445  0.75852444  1
  O  O396  1  0.12502084  0.76238794  0.25219008  1
  O  O397  1  0.11940552  0.75812693  0.75411259  1
  O  O398  1  0.61986094  0.25664795  0.25576902  1
  O  O399  1  0.62446162  0.25725966  0.75660185  1
  O  O400  1  0.61900372  0.74740196  0.25926974  1
  O  O401  1  0.61890611  0.75454258  0.75456581  1
  O  O402  1  0.38299394  0.24375359  0.25072567  1
  O  O403  1  0.37583438  0.24301476  0.74445581  1
  O  O404  1  0.38239058  0.74264089  0.24500942  1
  O  O405  1  0.38111919  0.74308306  0.74456642  1
  O  O406  1  0.88449124  0.24886642  0.24650047  1
  O  O407  1  0.87867772  0.24452674  0.74274508  1
  O  O408  1  0.87155619  0.75361406  0.22888885  1
  O  O409  1  0.88091284  0.75252008  0.73762546  1
  O  O410  1  0.38221471  0.49382766  0.49918768  1
  O  O411  1  0.38153116  0.49217752  0.99435169  1
  O  O412  1  0.38195367  0.99908498  0.49340599  1
  O  O413  1  0.37669061  1.00477001  0.98508644  1
  O  O414  1  0.88125163  0.49416689  0.49653442  1
  O  O415  1  0.86621750  0.48564531  1.00120833  1
  O  O416  1  0.88096871  0.99239377  0.49394644  1
  O  O417  1  0.87766700  0.99367993  0.99518110  1
  O  O418  1  0.11514759  0.00154661  0.00699145  1
  O  O419  1  0.12109749  0.00456705  0.50453358  1
  O  O420  1  0.13003125  0.49612665  0.01843037  1
  O  O421  1  0.11868701  0.50043913  0.50908005  1
  O  O422  1  0.62149718  0.00892605  -0.00009826  1
  O  O423  1  0.61784461  0.00155450  0.50698411  1
  O  O424  1  0.62084492  0.50464592  0.00546039  1
  O  O425  1  0.61923341  0.50733750  0.50518520  1
  O  O426  1  0.37560519  0.37394028  0.11344891  1
  O  O427  1  0.37412811  0.36795066  0.61872859  1
  O  O428  1  0.35913737  0.87929301  0.13318678  1
  O  O429  1  0.37215870  0.86573679  0.62359159  1
  O  O430  1  0.86888816  0.37279304  0.11545875  1
  O  O431  1  0.87490012  0.36420358  0.62065251  1
  O  O432  1  0.87770982  0.86874076  0.11047208  1
  O  O433  1  0.86810158  0.86877872  0.62003548  1
  O  O434  1  0.13008100  0.12992304  0.38040894  1
  O  O435  1  0.12975803  0.13425837  0.87500479  1
  O  O436  1  0.13948377  0.62708314  0.37630167  1
  O  O437  1  0.14167579  0.63523216  0.86347519  1
  O  O438  1  0.63384567  0.13197452  0.37625941  1
  O  O439  1  0.62900911  0.12947965  0.87941046  1
  O  O440  1  0.62809900  0.63250147  0.38295562  1
  O  O441  1  0.63103234  0.63207860  0.88033662  1
