# generated using pymatgen
data_V93Zn93O256
_symmetry_space_group_name_H-M   'P 1'
_cell_length_a   17.05387465
_cell_length_b   17.05391692
_cell_length_c   17.05120366
_cell_angle_alpha   90.01123769
_cell_angle_beta   89.94994743
_cell_angle_gamma   89.97980709
_symmetry_Int_Tables_number   1
_chemical_formula_structural   V93Zn93O256
_chemical_formula_sum   'V93 Zn93 O256'
_cell_volume   4959.09068252
_cell_formula_units_Z   1
loop_
 _symmetry_equiv_pos_site_id
 _symmetry_equiv_pos_as_xyz
  1  'x, y, z'
loop_
 _atom_site_type_symbol
 _atom_site_label
 _atom_site_symmetry_multiplicity
 _atom_site_fract_x
 _atom_site_fract_y
 _atom_site_fract_z
 _atom_site_occupancy
  V  V0  1  0.75054097  0.87445117  0.62497519  1
  V  V1  1  0.74897414  0.12485255  0.87656389  1
  V  V2  1  0.12087179  0.25182448  0.37607287  1
  V  V3  1  0.24903231  0.12444463  0.37565493  1
  V  V4  1  0.37444508  -0.00505041  0.88155832  1
  V  V5  1  0.37976214  0.37430085  0.49165155  1
  V  V6  1  0.14522952  0.85757805  0.26415301  1
  V  V7  1  0.12519754  0.37417431  0.75003342  1
  V  V8  1  0.74957011  0.00037979  0.25119670  1
  V  V9  1  0.74987410  0.87464857  0.12588067  1
  V  V10  1  0.87482123  0.49942854  0.87423172  1
  V  V11  1  0.75041247  0.37741716  0.62669953  1
  V  V12  1  0.49968981  0.12393296  0.62655976  1
  V  V13  1  -0.00066622  -0.00179076  0.00205215  1
  V  V14  1  0.75259939  0.25103368  0.50219688  1
  V  V15  1  0.24945833  0.62405575  0.87457620  1
  V  V16  1  0.87459198  -0.00113975  0.87726514  1
  V  V17  1  0.00038706  0.87432122  0.87606638  1
  V  V18  1  0.12453843  0.62366960  0.00066606  1
  V  V19  1  0.37507974  0.00147222  0.37566953  1
  V  V20  1  0.00307585  0.49401122  0.49398426  1
  V  V21  1  0.25132128  0.37389088  0.62469704  1
  V  V22  1  0.87715276  0.74912805  0.62495601  1
  V  V23  1  0.25006244  0.24964095  0.50013874  1
  V  V24  1  -0.00065246  0.12426798  0.12765091  1
  V  V25  1  0.87330220  0.75052592  0.12335592  1
  V  V26  1  0.12700057  0.50024933  0.62238606  1
  V  V27  1  0.50628749  0.49676597  0.49338260  1
  V  V28  1  0.62362478  0.87533724  0.25106857  1
  V  V29  1  0.62295947  0.12462710  0.00162919  1
  V  V30  1  0.62385526  0.87447611  0.75105761  1
  V  V31  1  0.37062300  0.62685734  0.25474210  1
  V  V32  1  0.25960785  0.87954712  0.11609430  1
  V  V33  1  0.24885575  0.12441415  0.87517362  1
  V  V34  1  0.62466870  -0.00088030  0.62597106  1
  V  V35  1  0.50046480  0.25093327  0.75150511  1
  V  V36  1  0.25147374  0.00585151  0.24740396  1
  V  V37  1  0.24806299  0.37706836  0.12527914  1
  V  V38  1  0.49976777  0.12732504  0.12599367  1
  V  V39  1  0.37395055  0.25039065  0.12618344  1
  V  V40  1  0.62483121  0.12475552  0.50142343  1
  V  V41  1  0.50059245  0.75129889  0.25149430  1
  V  V42  1  0.25137179  0.49879886  0.74940298  1
  V  V43  1  0.62307064  0.25076819  0.87534562  1
  V  V44  1  0.37549642  0.24887576  0.62497388  1
  V  V45  1  0.87405231  0.25043199  0.12661941  1
  V  V46  1  0.87660519  0.87489214  0.50018044  1
  V  V47  1  0.74931420  0.25000804  0.00173439  1
  V  V48  1  0.25715256  0.75333085  -0.00000881  1
  V  V49  1  0.49892556  -0.00115339  0.50047755  1
  V  V50  1  0.62058625  0.25746840  0.37607427  1
  V  V51  1  -0.00018903  0.37508574  0.87493772  1
  V  V52  1  0.49901419  0.25816338  0.25422086  1
  V  V53  1  0.74942575  -0.00008917  0.75158061  1
  V  V54  1  0.62394307  0.00171355  0.12596223  1
  V  V55  1  0.24930647  0.50477507  0.25649848  1
  V  V56  1  0.24982073  -0.00116420  0.74997408  1
  V  V57  1  -0.00009437  -0.00105423  0.49966897  1
  V  V58  1  0.00143002  0.75058441  0.25130765  1
  V  V59  1  0.14064860  0.63549019  0.48632358  1
  V  V60  1  0.12475047  0.87329372  0.74946802  1
  V  V61  1  0.49635931  0.87421748  0.88062985  1
  V  V62  1  0.74881802  0.75117068  -0.00008578  1
  V  V63  1  0.12433782  0.12500259  0.50089662  1
  V  V64  1  -0.00121186  0.62538310  0.12346934  1
  V  V65  1  0.75004500  0.74968107  0.49947965  1
  V  V66  1  -0.00122210  0.12470057  0.62673403  1
  V  V67  1  0.24869207  0.25071214  0.00112821  1
  V  V68  1  0.74912357  0.37628345  0.12708214  1
  V  V69  1  0.62499399  0.75070124  0.87406138  1
  V  V70  1  0.25094378  0.86688957  0.62089381  1
  V  V71  1  0.87541107  0.12513940  0.75071213  1
  V  V72  1  0.12348125  0.24980334  0.87523599  1
  V  V73  1  0.37431037  0.12398376  0.75047259  1
  V  V74  1  0.00347425  0.87190074  0.37461969  1
  V  V75  1  0.12538261  -0.00095874  0.62503586  1
  V  V76  1  0.87940418  0.49333297  0.37410819  1
  V  V77  1  0.75183627  0.62551684  0.37590549  1
  V  V78  1  0.11960011  0.37646026  0.25623613  1
  V  V79  1  0.12423112  0.74991973  0.87411167  1
  V  V80  1  0.12349636  0.12420732  0.00171638  1
  V  V81  1  0.12480159  -0.00343232  0.12907323  1
  V  V82  1  0.37214155  0.86767726  0.49955694  1
  V  V83  1  0.49755326  0.49857814  0.00012423  1
  V  V84  1  0.00243572  0.62565862  0.62207831  1
  V  V85  1  0.37761604  0.62622149  0.74619766  1
  V  V86  1  -0.00056091  0.25223984  0.25454053  1
  V  V87  1  0.62535294  0.50022162  0.12629742  1
  V  V88  1  0.75021113  0.62498459  0.87244613  1
  V  V89  1  0.74952963  0.12464600  0.37549261  1
  V  V90  1  0.37534974  0.49898024  0.87529323  1
  V  V91  1  0.87437115  0.12413432  0.25170880  1
  V  V92  1  0.49914266  0.62520025  0.12601108  1
  Zn  Zn93  1  -0.00034252  0.49793663  0.00042114  1
  Zn  Zn94  1  0.62034649  0.38027766  0.25590696  1
  Zn  Zn95  1  0.88149208  0.37235644  0.49849901  1
  Zn  Zn96  1  -0.00127798  0.24982229  0.74968024  1
  Zn  Zn97  1  0.49924448  0.74980527  0.74701871  1
  Zn  Zn98  1  0.37872607  0.49912610  0.37266783  1
  Zn  Zn99  1  0.62647758  0.75038074  0.37662531  1
  Zn  Zn100  1  0.62376681  0.62557446  -0.00125461  1
  Zn  Zn101  1  0.50492053  0.62522494  0.62393113  1
  Zn  Zn102  1  0.62420356  0.37689783  0.75173472  1
  Zn  Zn103  1  0.49488349  -0.00335176  0.00462460  1
  Zn  Zn104  1  0.87734531  0.62465252  0.74824644  1
  Zn  Zn105  1  0.62321354  0.50146105  0.63023412  1
  Zn  Zn106  1  0.87495597  0.62361898  0.24935787  1
  Zn  Zn107  1  0.37366714  0.37421279  -0.00166187  1
  Zn  Zn108  1  0.37640902  0.12768639  0.25253876  1
  Zn  Zn109  1  0.50103238  0.87526810  0.37691689  1
  Zn  Zn110  1  0.75123973  0.50197201  0.25126623  1
  Zn  Zn111  1  0.62478775  0.62741840  0.50265903  1
  Zn  Zn112  1  0.87434142  -0.00017865  0.37560944  1
  Zn  Zn113  1  0.87726007  0.25178000  0.62756694  1
  Zn  Zn114  1  0.49957238  0.37496212  0.87357434  1
  Zn  Zn115  1  0.87506480  0.87509345  0.00110330  1
  Zn  Zn116  1  0.37637471  0.74557443  0.61973145  1
  Zn  Zn117  1  0.87742821  0.37482840  0.00071764  1
  Zn  Zn118  1  0.37876418  0.75512122  0.12025347  1
  Zn  Zn119  1  -0.00009611  0.74863043  0.75020122  1
  Zn  Zn120  1  0.12260942  0.50064656  0.12682712  1
  Zn  Zn121  1  0.74853675  0.49916128  0.74827649  1
  Zn  Zn122  1  0.18540945  0.18898588  0.18842720  1
  Zn  Zn123  1  0.18659641  0.18738681  0.68826843  1
  Zn  Zn124  1  0.19066464  0.68954169  0.18482235  1
  Zn  Zn125  1  0.18695175  0.68533142  0.68540054  1
  Zn  Zn126  1  0.68511785  0.18904022  0.19025290  1
  Zn  Zn127  1  0.68743503  0.18879227  0.68899996  1
  Zn  Zn128  1  0.68705743  0.68609171  0.18930933  1
  Zn  Zn129  1  0.68612736  0.68648833  0.68618339  1
  Zn  Zn130  1  0.30798717  0.31183450  0.31122632  1
  Zn  Zn131  1  0.31359012  0.31245877  0.81377248  1
  Zn  Zn132  1  0.31818500  0.81846760  0.30721500  1
  Zn  Zn133  1  0.31159078  0.81133674  0.81161521  1
  Zn  Zn134  1  0.80993837  0.31293678  0.31241289  1
  Zn  Zn135  1  0.81290699  0.31189820  0.81197525  1
  Zn  Zn136  1  0.81563039  0.81216730  0.31233530  1
  Zn  Zn137  1  0.81464942  0.81131158  0.81089932  1
  Zn  Zn138  1  0.18914955  0.43938093  0.43795425  1
  Zn  Zn139  1  0.18639784  0.43816908  0.93666726  1
  Zn  Zn140  1  0.18975883  0.93753265  0.43827187  1
  Zn  Zn141  1  0.18497840  0.93805949  0.93726935  1
  Zn  Zn142  1  0.69275811  0.43779905  0.43887807  1
  Zn  Zn143  1  0.68666476  0.43686389  0.93878530  1
  Zn  Zn144  1  0.68620297  0.93579559  0.43690512  1
  Zn  Zn145  1  0.68468830  0.93727613  0.93968059  1
  Zn  Zn146  1  0.31308744  0.06735462  0.06262012  1
  Zn  Zn147  1  0.31202071  0.05877553  0.56207193  1
  Zn  Zn148  1  0.31331034  0.56458076  0.06668627  1
  Zn  Zn149  1  0.31612497  0.55907520  0.56004149  1
  Zn  Zn150  1  0.81180961  0.06214527  0.06413655  1
  Zn  Zn151  1  0.81386879  0.06220193  0.56369459  1
  Zn  Zn152  1  0.81250425  0.56315465  0.05790836  1
  Zn  Zn153  1  0.81597872  0.56121852  0.55923073  1
  Zn  Zn154  1  0.43421757  0.43884116  0.18684445  1
  Zn  Zn155  1  0.44032544  0.43779020  0.68256430  1
  Zn  Zn156  1  0.43695485  0.94017186  0.18881113  1
  Zn  Zn157  1  0.43629939  0.93520276  0.68963861  1
  Zn  Zn158  1  0.93628033  0.43913850  0.18858698  1
  Zn  Zn159  1  0.93659604  0.43761451  0.68603821  1
  Zn  Zn160  1  0.93832812  0.93483339  0.19092496  1
  Zn  Zn161  1  0.93774754  0.93744377  0.68922081  1
  Zn  Zn162  1  0.06384876  0.05881814  0.31356411  1
  Zn  Zn163  1  0.06139398  0.06066445  0.81290021  1
  Zn  Zn164  1  0.06362452  0.56523678  0.31238414  1
  Zn  Zn165  1  0.06210891  0.56063002  0.81045640  1
  Zn  Zn166  1  0.56149869  0.06677049  0.31315231  1
  Zn  Zn167  1  0.56060238  0.06171596  0.81465527  1
  Zn  Zn168  1  0.56285956  0.56514335  0.31466107  1
  Zn  Zn169  1  0.56456178  0.56037685  0.81166022  1
  Zn  Zn170  1  0.43825218  0.18671072  0.43797726  1
  Zn  Zn171  1  0.43625738  0.18660217  0.93885830  1
  Zn  Zn172  1  0.43893434  0.68378713  0.43588756  1
  Zn  Zn173  1  0.43925720  0.68477741  0.93348092  1
  Zn  Zn174  1  0.93777983  0.18610886  0.43690947  1
  Zn  Zn175  1  0.93668443  0.18776619  0.93867490  1
  Zn  Zn176  1  0.93982340  0.68433247  0.43777135  1
  Zn  Zn177  1  0.93558518  0.68873224  0.93789590  1
  Zn  Zn178  1  0.06124219  0.31276954  0.06417463  1
  Zn  Zn179  1  0.06272134  0.31135308  0.56477097  1
  Zn  Zn180  1  0.06783593  0.81289733  0.06617134  1
  Zn  Zn181  1  0.06602464  0.80975294  0.55912165  1
  Zn  Zn182  1  0.56209221  0.31339557  0.06376227  1
  Zn  Zn183  1  0.56386252  0.31462382  0.56486560  1
  Zn  Zn184  1  0.56410284  0.81248366  0.06259536  1
  Zn  Zn185  1  0.56034135  0.80944737  0.56347177  1
  O  O186  1  0.11888387  0.11881448  0.12182907  1
  O  O187  1  0.12037373  0.11858915  0.62041802  1
  O  O188  1  0.11643378  0.62657302  0.11559606  1
  O  O189  1  0.11975984  0.61846834  0.61730305  1
  O  O190  1  0.62005338  0.12140804  0.12126458  1
  O  O191  1  0.61976863  0.11877062  0.62105982  1
  O  O192  1  0.61927618  0.61515048  0.12370045  1
  O  O193  1  0.62496554  0.61922065  0.61929884  1
  O  O194  1  0.36945451  0.37242449  0.38877400  1
  O  O195  1  0.37671802  0.38338187  0.87865991  1
  O  O196  1  0.37588475  0.88276085  0.38311216  1
  O  O197  1  0.38286070  0.88451121  0.86727362  1
  O  O198  1  0.86722054  0.38852588  0.37776645  1
  O  O199  1  0.87988594  0.38295746  0.87631575  1
  O  O200  1  0.88625242  0.87726260  0.38046190  1
  O  O201  1  0.88132169  0.88160266  0.87700315  1
  O  O202  1  0.25491988  0.00561995  0.36912032  1
  O  O203  1  0.25517238  0.00369277  0.87011674  1
  O  O204  1  0.25437159  0.49416662  0.35876142  1
  O  O205  1  0.25459054  0.50509228  0.86948604  1
  O  O206  1  0.75000169  0.00673071  0.36927373  1
  O  O207  1  0.75374725  0.00503029  0.87137045  1
  O  O208  1  0.75885438  0.50868646  0.37579140  1
  O  O209  1  0.75723510  0.50838664  0.87737468  1
  O  O210  1  0.24793808  0.49114581  0.13318909  1
  O  O211  1  0.24662803  0.49192598  0.63031550  1
  O  O212  1  0.24405837  0.99782067  0.12434352  1
  O  O213  1  0.24426258  0.99205879  0.63103182  1
  O  O214  1  0.74216055  0.49432477  0.12320567  1
  O  O215  1  0.75215347  0.48845800  0.62276994  1
  O  O216  1  0.74352418  0.99557115  0.13197140  1
  O  O217  1  0.74422023  0.99441460  0.63107790  1
  O  O218  1  0.01293842  0.36955977  0.24172416  1
  O  O219  1  0.00792211  0.37415972  0.75576498  1
  O  O220  1  0.00979401  0.86817132  0.25743095  1
  O  O221  1  0.00789755  0.87438353  0.75701897  1
  O  O222  1  0.50025284  0.36222797  0.24465102  1
  O  O223  1  0.50042834  0.36501740  0.75054042  1
  O  O224  1  0.50366220  0.86647961  0.24993454  1
  O  O225  1  0.50618043  0.87488626  0.76100276  1
  O  O226  1  0.49895756  0.13807604  0.24371699  1
  O  O227  1  0.49382254  0.12944432  0.74518550  1
  O  O228  1  0.49360988  0.63281597  0.24520501  1
  O  O229  1  0.48725738  0.62349178  0.75125594  1
  O  O230  1  0.99525244  0.12934451  0.24577261  1
  O  O231  1  0.99359935  0.12315326  0.74457343  1
  O  O232  1  1.00017489  0.63317567  0.23920905  1
  O  O233  1  1.00219903  0.62500168  0.73433414  1
  O  O234  1  0.36618054  0.25164518  0.00693670  1
  O  O235  1  0.37078395  0.25483146  0.50560973  1
  O  O236  1  0.36017845  0.74201514  -0.00162758  1
  O  O237  1  0.37976609  0.76411721  0.49645848  1
  O  O238  1  0.86725823  0.24986202  0.00884426  1
  O  O239  1  0.86310151  0.25019545  0.49933929  1
  O  O240  1  0.86666358  0.75321249  0.00582151  1
  O  O241  1  0.87116926  0.75599493  0.50571047  1
  O  O242  1  0.13033534  0.24475243  0.49627450  1
  O  O243  1  0.12934668  0.24331993  0.99605683  1
  O  O244  1  0.12660497  0.73434485  0.50165728  1
  O  O245  1  0.13361579  0.74019572  0.99542462  1
  O  O246  1  0.63151238  0.24477230  0.49457247  1
  O  O247  1  0.62959950  0.24403708  0.99635104  1
  O  O248  1  0.63474375  0.75022548  0.49678559  1
  O  O249  1  0.63124735  0.74774148  0.99266024  1
  O  O250  1  0.49471315  0.24685924  0.13287412  1
  O  O251  1  0.49485278  0.24263900  0.63006583  1
  O  O252  1  0.49919621  0.74560489  0.13313743  1
  O  O253  1  0.49422626  0.74443314  0.62962551  1
  O  O254  1  0.99426110  0.24350817  0.13275792  1
  O  O255  1  0.99825967  0.24073514  0.62774559  1
  O  O256  1  0.99233957  0.74308061  0.12715359  1
  O  O257  1  0.99598937  0.74069237  0.62323358  1
  O  O258  1  0.00794707  0.24448794  0.36771579  1
  O  O259  1  0.00642310  0.25566445  0.87446760  1
  O  O260  1  -0.00612527  0.75900115  0.36356002  1
  O  O261  1  0.00678975  0.75551031  0.87446136  1
  O  O262  1  0.50975979  0.24352009  0.36751270  1
  O  O263  1  0.50467976  0.24942592  0.86980222  1
  O  O264  1  0.50221884  0.75049945  0.36110113  1
  O  O265  1  0.50538120  0.75762395  0.87267952  1
  O  O266  1  0.24376288  0.12965585  0.49653873  1
  O  O267  1  0.24221680  0.13116241  0.99475332  1
  O  O268  1  0.23891896  0.61820754  0.50179476  1
  O  O269  1  0.24193290  0.63161416  0.99686595  1
  O  O270  1  0.74461601  0.13225558  0.49759053  1
  O  O271  1  0.74365454  0.13031257  0.99637561  1
  O  O272  1  0.75252477  0.63170672  0.49097456  1
  O  O273  1  0.74818691  0.63191169  0.98838111  1
  O  O274  1  0.24693536  0.37038746  0.01033913  1
  O  O275  1  0.25736116  0.36924141  0.50569372  1
  O  O276  1  0.24048394  0.86471381  0.00594651  1
  O  O277  1  0.25954293  0.88244322  0.50982530  1
  O  O278  1  0.75066736  0.36884978  0.01212337  1
  O  O279  1  0.75121517  0.36394901  0.50796356  1
  O  O280  1  0.74958189  0.86924099  0.00821913  1
  O  O281  1  0.75643902  0.87070676  0.50561622  1
  O  O282  1  0.13123094  0.49375863  0.24848420  1
  O  O283  1  0.13221486  0.49405876  0.74367502  1
  O  O284  1  0.13430305  0.98960066  0.24745774  1
  O  O285  1  0.13048588  0.99376792  0.74498622  1
  O  O286  1  0.62455038  0.49881180  0.23848665  1
  O  O287  1  0.63074419  0.49415220  0.74869520  1
  O  O288  1  0.62953603  0.99653925  0.24531279  1
  O  O289  1  0.63031635  0.99555137  0.74559624  1
  O  O290  1  0.36911246  0.00539591  0.25695232  1
  O  O291  1  0.36896672  0.00543667  0.75854404  1
  O  O292  1  0.36809777  0.50816882  0.25048727  1
  O  O293  1  0.36989897  0.50579575  0.75441610  1
  O  O294  1  0.86762688  0.00649068  0.25075051  1
  O  O295  1  0.86840551  0.00462264  0.75723351  1
  O  O296  1  0.87384083  0.50338618  0.25984071  1
  O  O297  1  0.87190032  0.50264782  0.76201095  1
  O  O298  1  0.13241161  0.36882844  0.36279809  1
  O  O299  1  0.12042405  0.37002941  0.86974945  1
  O  O300  1  0.10858438  0.88723308  0.37249853  1
  O  O301  1  0.12014719  0.87006282  0.86899197  1
  O  O302  1  0.63270438  0.36099553  0.37471038  1
  O  O303  1  0.62200015  0.36512715  0.87552813  1
  O  O304  1  0.62171224  0.87214036  0.36624146  1
  O  O305  1  0.61744744  0.87145828  0.86974452  1
  O  O306  1  0.38074987  0.13338025  0.12788441  1
  O  O307  1  0.37939338  0.12847873  0.63016082  1
  O  O308  1  0.38255967  0.62824501  0.13549383  1
  O  O309  1  0.37250073  0.62497398  0.63628962  1
  O  O310  1  0.87937685  0.13042741  0.13236770  1
  O  O311  1  0.88105712  0.12460373  0.63291173  1
  O  O312  1  0.88381456  0.63063752  0.12330196  1
  O  O313  1  0.88647447  0.62969911  0.62301879  1
  O  O314  1  0.25271173  0.25811482  0.12164594  1
  O  O315  1  0.25552192  0.25328062  0.61936760  1
  O  O316  1  0.25317369  0.76097854  0.11625316  1
  O  O317  1  0.25307360  0.76412231  0.62992251  1
  O  O318  1  0.75314544  0.25743734  0.12236299  1
  O  O319  1  0.75019165  0.25494566  0.61529545  1
  O  O320  1  0.75338041  0.75430317  0.12062023  1
  O  O321  1  0.75704634  0.75595542  0.61959925  1
  O  O322  1  0.24199209  0.24398719  0.38143711  1
  O  O323  1  0.24402804  0.24416461  0.88079199  1
  O  O324  1  0.20682092  0.79580494  0.31913447  1
  O  O325  1  0.24385932  0.74471743  0.88205469  1
  O  O326  1  0.74218574  0.24467687  0.38332927  1
  O  O327  1  0.74427003  0.24369750  0.88182634  1
  O  O328  1  0.75356614  0.74174351  0.38063103  1
  O  O329  1  0.74619449  0.74400736  0.87936378  1
  O  O330  1  0.00447472  0.11895749  0.00771904  1
  O  O331  1  0.00522391  0.11891957  0.50599749  1
  O  O332  1  0.00889868  0.62733534  0.00727818  1
  O  O333  1  0.00938882  0.61665955  0.50775587  1
  O  O334  1  0.50597393  0.12417597  0.00832753  1
  O  O335  1  0.50512447  0.11946218  0.50775331  1
  O  O336  1  0.50023342  0.61486556  0.00624817  1
  O  O337  1  0.49960720  0.60980255  0.49963417  1
  O  O338  1  0.49108808  0.38444992  0.50578174  1
  O  O339  1  0.49617885  0.38819665  1.00219649  1
  O  O340  1  0.49075825  0.88212384  0.49991609  1
  O  O341  1  0.50445027  0.87686422  0.98555437  1
  O  O342  1  1.00268901  0.38931810  0.50442759  1
  O  O343  1  0.99896813  0.37760844  0.99265895  1
  O  O344  1  0.99696444  0.87829797  0.49322976  1
  O  O345  1  1.00168457  0.88075544  0.99550840  1
  O  O346  1  0.49904706  0.50024995  0.38758961  1
  O  O347  1  0.49492352  0.50008565  0.88626021  1
  O  O348  1  0.49379790  1.00157008  0.38235503  1
  O  O349  1  0.49092446  0.99263055  0.87656716  1
  O  O350  1  0.99119825  0.50758072  0.38319319  1
  O  O351  1  0.99166330  0.49501894  0.87524930  1
  O  O352  1  0.99582304  0.99245819  0.38170421  1
  O  O353  1  0.99491711  0.99441611  0.88235608  1
  O  O354  1  0.00516337  0.00406470  0.12271383  1
  O  O355  1  0.00642478  0.00359094  0.61973130  1
  O  O356  1  0.00056114  0.51314325  0.12286394  1
  O  O357  1  0.00597238  0.50749373  0.61617227  1
  O  O358  1  0.50561371  0.00754181  0.12483506  1
  O  O359  1  0.50508544  0.00466086  0.62162355  1
  O  O360  1  0.50618882  0.50419195  0.11931246  1
  O  O361  1  0.50112877  0.50283500  0.61021613  1
  O  O362  1  0.24150502  0.38167492  0.24184651  1
  O  O363  1  0.24554732  0.37884666  0.74472039  1
  O  O364  1  0.25545345  0.89174811  0.23156209  1
  O  O365  1  0.24472863  0.88034193  0.74208978  1
  O  O366  1  0.74590982  0.37732202  0.23713944  1
  O  O367  1  0.74939168  0.37311288  0.73813503  1
  O  O368  1  0.74452396  0.87978242  0.24540769  1
  O  O369  1  0.74481840  0.88093667  0.74494912  1
  O  O370  1  0.24996255  0.12202210  0.25716424  1
  O  O371  1  0.25402469  0.11890534  0.75571476  1
  O  O372  1  0.25799305  0.61597291  0.23911602  1
  O  O373  1  0.25567973  0.61802609  0.75505767  1
  O  O374  1  0.75433861  0.12070020  0.25536082  1
  O  O375  1  0.75415113  0.11871349  0.75681151  1
  O  O376  1  0.75368742  0.62427116  0.26071945  1
  O  O377  1  0.75353581  0.62519859  0.76319762  1
  O  O378  1  0.36634189  0.11965462  0.37659108  1
  O  O379  1  0.36830617  0.11703452  0.86934945  1
  O  O380  1  0.37687937  0.62478584  0.35792278  1
  O  O381  1  0.36828069  0.61805629  0.86675982  1
  O  O382  1  0.86707533  0.12343994  0.36890200  1
  O  O383  1  0.86864288  0.11824089  0.87187393  1
  O  O384  1  0.86738085  0.61627658  0.37452992  1
  O  O385  1  0.86802325  0.61788272  0.87419260  1
  O  O386  1  0.13388449  0.37530768  0.13458095  1
  O  O387  1  0.13218466  0.37973331  0.62991579  1
  O  O388  1  0.13835110  0.87786891  0.13743686  1
  O  O389  1  0.13212048  0.87964485  0.62780802  1
  O  O390  1  0.63286410  0.38434666  0.12564263  1
  O  O391  1  0.63821484  0.37583985  0.62682849  1
  O  O392  1  0.63002402  0.88163502  0.13152601  1
  O  O393  1  0.63086334  0.88050422  0.63063930  1
  O  O394  1  0.11978485  0.25796219  0.25554725  1
  O  O395  1  0.12460858  0.25605190  0.75756434  1
  O  O396  1  0.10517193  0.75361661  0.23037802  1
  O  O397  1  0.12473013  0.75547824  0.75659332  1
  O  O398  1  0.61670161  0.25232232  0.25939998  1
  O  O399  1  0.61740497  0.24857691  0.75820840  1
  O  O400  1  0.61510527  0.75584077  0.24943958  1
  O  O401  1  0.62513087  0.75776783  0.75725505  1
  O  O402  1  0.38174744  0.24977403  0.24583723  1
  O  O403  1  0.37886480  0.24284300  0.74484027  1
  O  O404  1  0.38355005  0.74513894  0.24625218  1
  O  O405  1  0.37392579  0.73631335  0.75090162  1
  O  O406  1  0.87926727  0.24470440  0.24624161  1
  O  O407  1  0.87756926  0.23911124  0.74992540  1
  O  O408  1  0.88629489  0.74943738  0.24164690  1
  O  O409  1  0.87967710  0.74675937  0.74067990  1
  O  O410  1  0.38405400  0.49051518  0.49598441  1
  O  O411  1  0.38219983  0.50124875  0.99579685  1
  O  O412  1  0.38035279  0.99238521  0.49536298  1
  O  O413  1  0.37423705  1.00568843  0.98516340  1
  O  O414  1  0.88690202  0.49888416  0.49133294  1
  O  O415  1  0.87749521  0.49801506  0.98678825  1
  O  O416  1  0.88184510  0.99254090  0.50028655  1
  O  O417  1  0.88117161  0.99875413  0.99545414  1
  O  O418  1  0.11877909  0.00518514  0.00738088  1
  O  O419  1  0.11989091  0.00577493  0.50599736  1
  O  O420  1  0.12437919  0.51356728  0.00139924  1
  O  O421  1  0.12003256  0.50605065  0.50337728  1
  O  O422  1  0.62304263  0.00769563  0.00858219  1
  O  O423  1  0.61989399  0.00457121  0.50670932  1
  O  O424  1  0.61569032  0.50159794  0.00992415  1
  O  O425  1  0.61227603  0.49598162  0.49912462  1
  O  O426  1  0.36170230  0.37012494  0.12431865  1
  O  O427  1  0.36936431  0.36742986  0.61608165  1
  O  O428  1  0.36430545  0.87794462  0.12200490  1
  O  O429  1  0.36662012  0.87551341  0.61718981  1
  O  O430  1  0.86583958  0.36982031  0.12472453  1
  O  O431  1  0.86640750  0.37149859  0.62056033  1
  O  O432  1  0.86757556  0.86927452  0.12488446  1
  O  O433  1  0.87034819  0.87032016  0.62025044  1
  O  O434  1  0.12984624  0.12961837  0.38209523  1
  O  O435  1  0.12954721  0.12840223  0.88138673  1
  O  O436  1  0.12484159  0.62256740  0.38784839  1
  O  O437  1  0.12947509  0.62881643  0.88170936  1
  O  O438  1  0.63082991  0.13435817  0.38244697  1
  O  O439  1  0.62998583  0.12950112  0.88128297  1
  O  O440  1  0.63905663  0.62670414  0.37847521  1
  O  O441  1  0.63442211  0.63130167  0.87581362  1
