# generated using pymatgen
data_V93Zn93O256
_symmetry_space_group_name_H-M   'P 1'
_cell_length_a   17.04639229
_cell_length_b   17.04323070
_cell_length_c   17.04325339
_cell_angle_alpha   90.02690739
_cell_angle_beta   90.02875261
_cell_angle_gamma   90.02422298
_symmetry_Int_Tables_number   1
_chemical_formula_structural   V93Zn93O256
_chemical_formula_sum   'V93 Zn93 O256'
_cell_volume   4951.49974319
_cell_formula_units_Z   1
loop_
 _symmetry_equiv_pos_site_id
 _symmetry_equiv_pos_as_xyz
  1  'x, y, z'
loop_
 _atom_site_type_symbol
 _atom_site_label
 _atom_site_symmetry_multiplicity
 _atom_site_fract_x
 _atom_site_fract_y
 _atom_site_fract_z
 _atom_site_occupancy
  V  V0  1  0.24951428  0.00145210  0.24845037  1
  V  V1  1  0.62565404  0.75227380  0.37600527  1
  V  V2  1  0.74968572  0.62395494  0.87629476  1
  V  V3  1  0.74949839  0.12514905  0.87460195  1
  V  V4  1  0.62546502  0.12477437  -0.00070994  1
  V  V5  1  0.62515712  0.12503240  0.49981692  1
  V  V6  1  0.25162778  0.24905329  0.50040984  1
  V  V7  1  0.49914580  -0.00189677  0.49857117  1
  V  V8  1  0.12373822  0.12377421  0.49905399  1
  V  V9  1  0.37671236  0.50286906  0.87410107  1
  V  V10  1  0.74924143  -0.00137163  0.74837174  1
  V  V11  1  0.12274420  0.49899517  0.62033948  1
  V  V12  1  0.25073530  0.37482779  0.62407172  1
  V  V13  1  0.37510452  0.25076437  0.12425634  1
  V  V14  1  0.37581138  0.49982541  0.37597223  1
  V  V15  1  -0.00009138  0.12697869  0.12365614  1
  V  V16  1  0.87657695  0.49975865  0.87574976  1
  V  V17  1  0.75142778  0.62986960  0.38068752  1
  V  V18  1  0.62415392  0.87343006  0.74910081  1
  V  V19  1  0.49159450  0.74546379  0.74995114  1
  V  V20  1  0.00010414  0.75390268  0.25471413  1
  V  V21  1  -0.00055606  0.87435938  0.87333622  1
  V  V22  1  0.37636098  0.37636725  -0.00068223  1
  V  V23  1  0.24975685  0.50132636  0.25094703  1
  V  V24  1  -0.00052937  0.37592720  0.87617803  1
  V  V25  1  0.12774543  0.75336477  0.37880499  1
  V  V26  1  -0.00006997  0.12370560  0.62207730  1
  V  V27  1  0.74928658  -0.00037487  0.25023588  1
  V  V28  1  0.75092603  0.37493834  0.62526779  1
  V  V29  1  0.62480483  -0.00190948  0.62341321  1
  V  V30  1  0.87574212  0.62731072  0.25179408  1
  V  V31  1  0.87392841  0.87468327  0.00095444  1
  V  V32  1  0.37587813  -0.00113094  0.37462852  1
  V  V33  1  0.74958387  0.49923623  0.75085543  1
  V  V34  1  0.62498114  0.49951205  0.62549143  1
  V  V35  1  0.62411485  0.37320990  0.75053196  1
  V  V36  1  0.00126276  0.37949108  0.37885575  1
  V  V37  1  0.87608737  0.12509427  0.25056087  1
  V  V38  1  0.12369646  0.87434576  0.74913410  1
  V  V39  1  0.49988281  -0.00025818  -0.00051782  1
  V  V40  1  0.74983462  0.86581907  0.61972045  1
  V  V41  1  0.62389307  0.74852322  0.87636845  1
  V  V42  1  0.37434886  0.24903488  0.62489357  1
  V  V43  1  0.12457407  0.37748327  0.24965729  1
  V  V44  1  0.87870167  0.86635695  0.49695369  1
  V  V45  1  0.37415706  0.87467125  0.00091057  1
  V  V46  1  0.87458813  0.12397488  0.74819650  1
  V  V47  1  0.24872160  0.86673331  0.62090902  1
  V  V48  1  0.49930016  0.12314216  0.62488118  1
  V  V49  1  0.62518719  0.61700709  0.00608050  1
  V  V50  1  0.88224621  -0.00144980  0.37663247  1
  V  V51  1  0.24946113  0.24857834  -0.00224951  1
  V  V52  1  0.50015635  0.49982263  0.50004401  1
  V  V53  1  0.37072267  0.86649107  0.49902492  1
  V  V54  1  0.37494325  0.75005400  0.12582200  1
  V  V55  1  0.50213059  0.61987978  0.12604722  1
  V  V56  1  0.75005149  0.74973399  0.00160466  1
  V  V57  1  0.24929777  -0.00189575  0.74854798  1
  V  V58  1  0.12432304  -0.00007392  0.12313164  1
  V  V59  1  0.12517541  0.50210535  0.12587939  1
  V  V60  1  0.87806472  0.37643784  0.50015824  1
  V  V61  1  0.50149383  0.25117032  0.25048712  1
  V  V62  1  0.37407172  -0.00058424  0.87355615  1
  V  V63  1  0.12341755  0.74941538  0.87481902  1
  V  V64  1  0.74430619  0.50137800  0.24782094  1
  V  V65  1  0.25182974  0.62571268  0.87292140  1
  V  V66  1  0.12503993  0.24963602  0.87415097  1
  V  V67  1  -0.00107259  0.62208448  0.62346958  1
  V  V68  1  0.62527942  -0.00140951  0.12590494  1
  V  V69  1  0.12303862  0.62652930  0.50005992  1
  V  V70  1  0.87894926  0.50133876  0.38045297  1
  V  V71  1  0.87477090  0.62567871  0.74953108  1
  V  V72  1  0.62931144  0.63054371  0.50293995  1
  V  V73  1  0.62574285  0.25311838  0.37359740  1
  V  V74  1  0.00080343  0.62588620  0.12665775  1
  V  V75  1  0.25106079  0.62962915  0.38001778  1
  V  V76  1  0.49938658  0.87386290  0.87428112  1
  V  V77  1  0.37368317  0.12321624  0.74931067  1
  V  V78  1  0.00020395  0.25241695  0.25005809  1
  V  V79  1  0.87485814  -0.00115177  0.87360458  1
  V  V80  1  0.87524302  0.24974671  0.62419172  1
  V  V81  1  0.75192195  0.25081570  0.00138890  1
  V  V82  1  0.74565055  0.37929440  0.12652878  1
  V  V83  1  0.12375499  0.62492620  -0.00011633  1
  V  V84  1  0.12106635  0.87699437  0.25485628  1
  V  V85  1  0.00023182  0.24921130  0.74991608  1
  V  V86  1  0.74990946  0.24996317  0.49963417  1
  V  V87  1  0.25017151  0.12641944  0.37447284  1
  V  V88  1  0.49307247  0.62434451  0.62995439  1
  V  V89  1  0.49979757  0.12471045  0.12409302  1
  V  V90  1  0.37470081  0.12533853  0.24934304  1
  V  V91  1  0.50029262  0.24976693  0.75010910  1
  V  V92  1  0.25404954  0.50315442  0.74858072  1
  Zn  Zn93  1  0.12431738  0.12369580  -0.00324359  1
  Zn  Zn94  1  -0.00082624  0.49999753  0.00218386  1
  Zn  Zn95  1  0.87195290  0.74602837  0.62227672  1
  Zn  Zn96  1  0.12523190  0.37483079  0.74875236  1
  Zn  Zn97  1  0.24839988  0.87269967  0.12338945  1
  Zn  Zn98  1  0.50049314  0.75247193  0.25039762  1
  Zn  Zn99  1  0.24897281  0.75095816  0.00093713  1
  Zn  Zn100  1  0.37696506  0.37351015  0.49995119  1
  Zn  Zn101  1  0.87438821  0.75196437  0.12767063  1
  Zn  Zn102  1  0.36934186  0.74353834  0.62339463  1
  Zn  Zn103  1  0.62359895  0.87363886  0.24953167  1
  Zn  Zn104  1  0.24949008  0.37685520  0.12567658  1
  Zn  Zn105  1  -0.00032888  0.00110167  -0.00180949  1
  Zn  Zn106  1  0.50087341  0.37712854  0.37440209  1
  Zn  Zn107  1  0.12307891  -0.00311814  0.62329985  1
  Zn  Zn108  1  -0.00289546  0.75030317  0.74847951  1
  Zn  Zn109  1  0.00157407  -0.00444406  0.49762925  1
  Zn  Zn110  1  0.50179775  0.37475595  0.87525482  1
  Zn  Zn111  1  0.12670900  0.25273027  0.37397570  1
  Zn  Zn112  1  0.87513850  0.25324274  0.12653313  1
  Zn  Zn113  1  0.74840057  0.87288966  0.12642982  1
  Zn  Zn114  1  0.37664051  0.62783083  0.25070666  1
  Zn  Zn115  1  0.62336853  0.25085172  0.87496168  1
  Zn  Zn116  1  0.49969634  0.87283532  0.37476721  1
  Zn  Zn117  1  0.62157819  0.38153393  0.24638220  1
  Zn  Zn118  1  0.50413229  0.49668630  0.00417175  1
  Zn  Zn119  1  0.24694808  0.12368086  0.87209173  1
  Zn  Zn120  1  0.87493988  0.37806793  0.00378460  1
  Zn  Zn121  1  0.75167292  0.12563091  0.37583950  1
  Zn  Zn122  1  0.18663158  0.19022747  0.18627866  1
  Zn  Zn123  1  0.18644060  0.18630084  0.68667122  1
  Zn  Zn124  1  0.18933371  0.68739085  0.18994014  1
  Zn  Zn125  1  0.18514292  0.68739371  0.69051514  1
  Zn  Zn126  1  0.68830440  0.18748401  0.18673043  1
  Zn  Zn127  1  0.68678583  0.18725122  0.68675128  1
  Zn  Zn128  1  0.68818211  0.68840339  0.18873098  1
  Zn  Zn129  1  0.68388843  0.68719240  0.69052844  1
  Zn  Zn130  1  0.31234042  0.31400118  0.31250740  1
  Zn  Zn131  1  0.31239527  0.31492302  0.81118744  1
  Zn  Zn132  1  0.31004920  0.81486196  0.30932298  1
  Zn  Zn133  1  0.31028717  0.81312034  0.81176158  1
  Zn  Zn134  1  0.81287984  0.31369693  0.31105345  1
  Zn  Zn135  1  0.81295185  0.31169080  0.81346523  1
  Zn  Zn136  1  0.81109871  0.81447450  0.31526957  1
  Zn  Zn137  1  0.81188240  0.81028037  0.81124460  1
  Zn  Zn138  1  0.18891807  0.43846494  0.43890988  1
  Zn  Zn139  1  0.18658881  0.43741909  0.93821933  1
  Zn  Zn140  1  0.19051622  0.93882977  0.43735064  1
  Zn  Zn141  1  0.18817549  0.93576296  0.93722480  1
  Zn  Zn142  1  0.68944941  0.43986881  0.43741958  1
  Zn  Zn143  1  0.68873344  0.43506795  0.93670480  1
  Zn  Zn144  1  0.69346765  0.93741934  0.43861005  1
  Zn  Zn145  1  0.68736537  0.93709774  0.93705368  1
  Zn  Zn146  1  0.31195726  0.06294351  0.06132896  1
  Zn  Zn147  1  0.31091006  0.05722064  0.56285130  1
  Zn  Zn148  1  0.31182362  0.56453720  0.06167605  1
  Zn  Zn149  1  0.31025880  0.56232336  0.55888609  1
  Zn  Zn150  1  0.81265087  0.06173461  0.06333547  1
  Zn  Zn151  1  0.81188930  0.05904258  0.56080670  1
  Zn  Zn152  1  0.81524003  0.56293464  0.06406274  1
  Zn  Zn153  1  0.81258584  0.56060061  0.56285135  1
  Zn  Zn154  1  0.43678120  0.43781695  0.18960519  1
  Zn  Zn155  1  0.43709375  0.43597545  0.68795802  1
  Zn  Zn156  1  0.44026741  0.93457760  0.18958585  1
  Zn  Zn157  1  0.43526658  0.93441305  0.68513315  1
  Zn  Zn158  1  0.93393306  0.43956763  0.18960057  1
  Zn  Zn159  1  0.93829223  0.43793382  0.68965589  1
  Zn  Zn160  1  0.93775907  0.93866064  0.18759567  1
  Zn  Zn161  1  0.93761467  0.93704626  0.68348418  1
  Zn  Zn162  1  0.06231564  0.06466420  0.31224514  1
  Zn  Zn163  1  0.06281276  0.06133222  0.81107781  1
  Zn  Zn164  1  0.06287788  0.56424628  0.31221544  1
  Zn  Zn165  1  0.06380817  0.56151404  0.80892095  1
  Zn  Zn166  1  0.56258609  0.06424487  0.31316453  1
  Zn  Zn167  1  0.56238913  0.06240168  0.81218224  1
  Zn  Zn168  1  0.56120873  0.56826664  0.31242966  1
  Zn  Zn169  1  0.56250793  0.56188955  0.81439522  1
  Zn  Zn170  1  0.43863695  0.18680749  0.43709771  1
  Zn  Zn171  1  0.43702243  0.18708090  0.93425186  1
  Zn  Zn172  1  0.44192898  0.68571281  0.43936722  1
  Zn  Zn173  1  0.43804474  0.68680191  0.94145592  1
  Zn  Zn174  1  0.93825458  0.18936270  0.43453810  1
  Zn  Zn175  1  0.93643662  0.18780259  0.93750283  1
  Zn  Zn176  1  0.94304814  0.68777188  0.43811805  1
  Zn  Zn177  1  0.93813278  0.68814323  0.93773158  1
  Zn  Zn178  1  0.06423817  0.31402083  0.06225217  1
  Zn  Zn179  1  0.06372721  0.31090962  0.56081260  1
  Zn  Zn180  1  0.06061124  0.81165826  0.06280628  1
  Zn  Zn181  1  0.06012961  0.80991337  0.56305590  1
  Zn  Zn182  1  0.56428783  0.31257689  0.06324847  1
  Zn  Zn183  1  0.56092914  0.31316287  0.56204394  1
  Zn  Zn184  1  0.56238591  0.81055921  0.06360402  1
  Zn  Zn185  1  0.55869437  0.81151021  0.56203305  1
  O  O186  1  0.11613909  0.11705017  0.12548201  1
  O  O187  1  0.11979686  0.12388110  0.61386262  1
  O  O188  1  0.12055544  0.62163689  0.12115203  1
  O  O189  1  0.12019125  0.61974754  0.61872270  1
  O  O190  1  0.61894758  0.11924100  0.11889863  1
  O  O191  1  0.61922768  0.11801696  0.61991475  1
  O  O192  1  0.61588549  0.63267066  0.11577627  1
  O  O193  1  0.61909977  0.61934118  0.61927572  1
  O  O194  1  0.37603787  0.38858828  0.37715802  1
  O  O195  1  0.37525613  0.38417943  0.88360512  1
  O  O196  1  0.37165199  0.88094249  0.38285415  1
  O  O197  1  0.38052008  0.87964026  0.87983242  1
  O  O198  1  0.88182175  0.38309125  0.37880559  1
  O  O199  1  0.88425929  0.38036004  0.87482429  1
  O  O200  1  0.86706100  0.88261108  0.39038119  1
  O  O201  1  0.87847026  0.87910999  0.88122575  1
  O  O202  1  0.25577675  0.00706169  0.36759944  1
  O  O203  1  0.25645803  -0.00020749  0.86722908  1
  O  O204  1  0.25710196  0.50914855  0.37274712  1
  O  O205  1  0.25487283  0.50562572  0.86761719  1
  O  O206  1  0.75912716  0.00346460  0.36603314  1
  O  O207  1  0.75453205  0.00480405  0.86790923  1
  O  O208  1  0.75916495  0.50934806  0.36956369  1
  O  O209  1  0.75597034  0.50468321  0.86948522  1
  O  O210  1  0.24408453  0.50126559  0.13278146  1
  O  O211  1  0.24486925  0.49743128  0.63110475  1
  O  O212  1  0.23880944  1.00250209  0.13024863  1
  O  O213  1  0.24746298  0.98698739  0.63105631  1
  O  O214  1  0.75762702  0.49350005  0.13769824  1
  O  O215  1  0.74485333  0.49409557  0.63102947  1
  O  O216  1  0.74449596  0.99965999  0.13430248  1
  O  O217  1  0.74377707  0.99087199  0.63029047  1
  O  O218  1  0.00394753  0.37246094  0.25882209  1
  O  O219  1  0.00106168  0.36809764  0.75948462  1
  O  O220  1  0.01044072  0.86719737  0.24634972  1
  O  O221  1  0.00510515  0.87373952  0.75470062  1
  O  O222  1  0.50396056  0.36837847  0.25223281  1
  O  O223  1  0.50656842  0.36775868  0.74934492  1
  O  O224  1  0.50589101  0.87188116  0.25762914  1
  O  O225  1  0.50507798  0.86670887  0.75393694  1
  O  O226  1  0.49370807  0.13039989  0.24357863  1
  O  O227  1  0.49434875  0.12835406  0.74324376  1
  O  O228  1  0.49797326  0.63006468  0.24004329  1
  O  O229  1  0.50753083  0.63285012  0.74046362  1
  O  O230  1  0.99678763  0.13144118  0.24180550  1
  O  O231  1  0.99360440  0.12991149  0.74335593  1
  O  O232  1  0.99609137  0.63451800  0.24715277  1
  O  O233  1  0.99360772  0.62455159  0.74074549  1
  O  O234  1  0.36898296  0.25733061  0.00262869  1
  O  O235  1  0.36945110  0.24897771  0.50693232  1
  O  O236  1  0.37400623  0.75633841  0.00864709  1
  O  O237  1  0.38083880  0.76263045  0.50083297  1
  O  O238  1  0.86180544  0.25098918  0.00187486  1
  O  O239  1  0.86968756  0.25585230  0.50490055  1
  O  O240  1  0.86904925  0.75947752  -0.00023922  1
  O  O241  1  0.87793753  0.76256562  0.49860564  1
  O  O242  1  0.13234941  0.23941588  0.49775324  1
  O  O243  1  0.13548951  0.25049018  0.99469853  1
  O  O244  1  0.11902805  0.74212440  0.48785334  1
  O  O245  1  0.12643718  0.74409334  0.99338278  1
  O  O246  1  0.62948050  0.24565173  0.49360645  1
  O  O247  1  0.63586921  0.24366752  0.99953716  1
  O  O248  1  0.62012241  0.73691347  0.49459507  1
  O  O249  1  0.63021890  0.74166065  0.99420875  1
  O  O250  1  0.49530694  0.24405212  0.12959569  1
  O  O251  1  0.49442719  0.24262274  0.62941295  1
  O  O252  1  0.49031376  0.74120235  0.12450391  1
  O  O253  1  0.50012366  0.74068108  0.63397418  1
  O  O254  1  0.99989553  0.24206964  0.12982537  1
  O  O255  1  0.99411421  0.24502939  0.62959493  1
  O  O256  1  0.99987649  0.74490177  0.13868364  1
  O  O257  1  0.99828293  0.73387691  0.62698648  1
  O  O258  1  0.00167630  0.26240804  0.36798631  1
  O  O259  1  0.00341477  0.25679111  0.87009237  1
  O  O260  1  0.01324473  0.74401885  0.36333431  1
  O  O261  1  0.00593396  0.75637648  0.87245338  1
  O  O262  1  0.50886985  0.25100685  0.36982379  1
  O  O263  1  0.50213248  0.25211651  0.86615111  1
  O  O264  1  0.51296278  0.74816284  0.37388217  1
  O  O265  1  0.50359072  0.75306465  0.86879017  1
  O  O266  1  0.24283155  0.12799334  0.49550278  1
  O  O267  1  0.25024817  0.13791080  0.99652414  1
  O  O268  1  0.23847892  0.62415690  0.48990060  1
  O  O269  1  0.24214132  0.62533103  0.98814152  1
  O  O270  1  0.74306046  0.13198346  0.50033100  1
  O  O271  1  0.74583554  0.13174910  0.99600103  1
  O  O272  1  0.74047611  0.61811152  0.49212143  1
  O  O273  1  0.74371112  0.62914069  0.99675410  1
  O  O274  1  0.25921397  0.36582764  0.00020147  1
  O  O275  1  0.25164191  0.36780024  0.50624022  1
  O  O276  1  0.25812894  0.87234362  0.00321212  1
  O  O277  1  0.25835629  0.87978558  0.50944202  1
  O  O278  1  0.75081565  0.36758422  0.00746317  1
  O  O279  1  0.75656144  0.37043266  0.50618800  1
  O  O280  1  0.75923925  0.86934499  -0.00166433  1
  O  O281  1  0.76260342  0.88053190  0.51168409  1
  O  O282  1  0.13032721  0.49709812  0.24593813  1
  O  O283  1  0.13618443  0.49894302  0.73833839  1
  O  O284  1  0.12776587  0.99436996  0.24402546  1
  O  O285  1  0.13122121  0.99197235  0.74772095  1
  O  O286  1  0.64051293  0.50095335  0.26116200  1
  O  O287  1  0.63040399  0.49445954  0.74511806  1
  O  O288  1  0.63456039  1.00217762  0.24604685  1
  O  O289  1  0.62877156  0.99296924  0.74359713  1
  O  O290  1  0.36929891  0.00594647  0.25326654  1
  O  O291  1  0.37023858  0.00295813  0.75412609  1
  O  O292  1  0.36940521  0.50374707  0.26105431  1
  O  O293  1  0.36396614  0.49424112  0.76017838  1
  O  O294  1  0.86888192  0.00322663  0.25661761  1
  O  O295  1  0.86870196  0.00456302  0.75350285  1
  O  O296  1  0.86657434  0.50726017  0.26252474  1
  O  O297  1  0.86817743  0.50558218  0.75510282  1
  O  O298  1  0.11614563  0.37835770  0.37033247  1
  O  O299  1  0.11538835  0.36986105  0.87308112  1
  O  O300  1  0.13278196  0.86720068  0.36523334  1
  O  O301  1  0.11927981  0.86963433  0.86989248  1
  O  O302  1  0.62554017  0.36338267  0.37454543  1
  O  O303  1  0.62250995  0.37271934  0.86664925  1
  O  O304  1  0.62900480  0.86104053  0.38045103  1
  O  O305  1  0.61881162  0.86919791  0.86977580  1
  O  O306  1  0.38038645  0.13051451  0.12963642  1
  O  O307  1  0.37990097  0.12799928  0.62958814  1
  O  O308  1  0.38224052  0.63436378  0.12370515  1
  O  O309  1  0.38871476  0.62537261  0.61716608  1
  O  O310  1  0.88635591  0.12414709  0.13087557  1
  O  O311  1  0.87874958  0.13036756  0.62862487  1
  O  O312  1  0.88197425  0.62828664  0.13451195  1
  O  O313  1  0.88288171  0.62279084  0.62791735  1
  O  O314  1  0.25644359  0.25196795  0.11504340  1
  O  O315  1  0.25510116  0.25462707  0.62045337  1
  O  O316  1  0.26085715  0.74967006  0.12320502  1
  O  O317  1  0.25229005  0.76134382  0.63245608  1
  O  O318  1  0.75210928  0.25700684  0.11745326  1
  O  O319  1  0.75584765  0.25573865  0.62005874  1
  O  O320  1  0.75410152  0.75282530  0.11852292  1
  O  O321  1  0.74903426  0.76139816  0.62984045  1
  O  O322  1  0.24998356  0.24375551  0.38127988  1
  O  O323  1  0.24500023  0.25029389  0.88217744  1
  O  O324  1  0.23893340  0.74018776  0.36708638  1
  O  O325  1  0.24462565  0.73967103  0.87385005  1
  O  O326  1  0.74265247  0.24930796  0.38050778  1
  O  O327  1  0.74885107  0.24379079  0.88386311  1
  O  O328  1  0.74418275  0.73609581  0.37204031  1
  O  O329  1  0.74369449  0.74290879  0.88031377  1
  O  O330  1  0.00086116  0.12392763  0.01113781  1
  O  O331  1  0.00953933  0.12735298  0.50309497  1
  O  O332  1  0.00628147  0.62475051  0.00776685  1
  O  O333  1  0.01190100  0.62527433  0.50859228  1
  O  O334  1  0.50427883  0.11987785  0.00439695  1
  O  O335  1  0.50505868  0.11868294  0.50626695  1
  O  O336  1  0.50936025  0.62325550  0.00736613  1
  O  O337  1  0.51036399  0.61911349  0.51010293  1
  O  O338  1  0.49795266  0.38459642  0.49725337  1
  O  O339  1  0.48961723  0.37635432  0.99953835  1
  O  O340  1  0.49013776  0.88123654  0.49820317  1
  O  O341  1  0.49508490  0.88034763  0.99345492  1
  O  O342  1  0.99466710  0.36936123  0.48728538  1
  O  O343  1  0.99757585  0.37528617  0.98792057  1
  O  O344  1  0.98313922  0.87805941  0.50806892  1
  O  O345  1  0.98930817  0.87596587  0.99378699  1
  O  O346  1  0.49124745  0.50391688  0.38030082  1
  O  O347  1  0.48755191  0.49953369  0.87719168  1
  O  O348  1  0.49320774  1.00039422  0.38134284  1
  O  O349  1  0.49471555  0.99358291  0.87937608  1
  O  O350  1  0.98949846  0.49220532  0.36828192  1
  O  O351  1  0.99632055  0.49037260  0.87295574  1
  O  O352  1  0.98632319  1.00175369  0.37327980  1
  O  O353  1  0.99247313  0.99348062  0.87583579  1
  O  O354  1  0.00889615  0.00949985  0.12602684  1
  O  O355  1  0.00233650  0.00937897  0.62065747  1
  O  O356  1  0.00623008  0.50806216  0.12743516  1
  O  O357  1  0.01164625  0.50916348  0.63187095  1
  O  O358  1  0.50424799  0.00601542  0.11884226  1
  O  O359  1  0.50528791  0.00332459  0.61939747  1
  O  O360  1  0.49203045  0.51466074  0.12317708  1
  O  O361  1  0.50506415  0.50702470  0.62262079  1
  O  O362  1  0.24316506  0.38289529  0.24954334  1
  O  O363  1  0.24703349  0.38513233  0.74319778  1
  O  O364  1  0.23810485  0.88295593  0.24521404  1
  O  O365  1  0.24436405  0.87921268  0.74211627  1
  O  O366  1  0.74951135  0.38411083  0.24410012  1
  O  O367  1  0.74555661  0.37928343  0.74420308  1
  O  O368  1  0.74890618  0.88804198  0.24941739  1
  O  O369  1  0.74372079  0.87935594  0.74263015  1
  O  O370  1  0.25513697  0.12178784  0.25395022  1
  O  O371  1  0.25634234  0.11696512  0.74850947  1
  O  O372  1  0.25031291  0.61899170  0.26372988  1
  O  O373  1  0.24528286  0.61462660  0.76059078  1
  O  O374  1  0.75716668  0.11510560  0.24944642  1
  O  O375  1  0.75499709  0.11901258  0.75340454  1
  O  O376  1  0.75569192  0.61934150  0.25950658  1
  O  O377  1  0.75296687  0.61850943  0.75593615  1
  O  O378  1  0.37002685  0.11951862  0.36871176  1
  O  O379  1  0.37311359  0.11687407  0.86688292  1
  O  O380  1  0.36686149  0.61868476  0.37790412  1
  O  O381  1  0.36373815  0.61428885  0.88445419  1
  O  O382  1  0.87359146  0.11706017  0.36904738  1
  O  O383  1  0.86962266  0.11929012  0.86801192  1
  O  O384  1  0.87037509  0.62006105  0.37438889  1
  O  O385  1  0.86928150  0.61977251  0.87004355  1
  O  O386  1  0.12616466  0.38362027  0.13174640  1
  O  O387  1  0.12978876  0.38403287  0.62363715  1
  O  O388  1  0.12387100  0.88481968  0.13350599  1
  O  O389  1  0.13201924  0.87393879  0.62833340  1
  O  O390  1  0.64005745  0.37249271  0.12715988  1
  O  O391  1  0.63128084  0.38047160  0.62948136  1
  O  O392  1  0.62704738  0.88335770  0.12625597  1
  O  O393  1  0.63077129  0.87831779  0.62777001  1
  O  O394  1  0.11920096  0.25881532  0.25161014  1
  O  O395  1  0.11821981  0.25169128  0.75509037  1
  O  O396  1  0.11938657  0.75798586  0.25681931  1
  O  O397  1  0.12173538  0.75668435  0.75770700  1
  O  O398  1  0.62059209  0.24910161  0.25937369  1
  O  O399  1  0.61889481  0.25513830  0.74949084  1
  O  O400  1  0.62599550  0.75096059  0.26341116  1
  O  O401  1  0.61519577  0.75463472  0.75722897  1
  O  O402  1  0.38010042  0.24528871  0.24461221  1
  O  O403  1  0.37906812  0.24387174  0.74398868  1
  O  O404  1  0.37558294  0.74930924  0.23917697  1
  O  O405  1  0.38890036  0.75360643  0.74898017  1
  O  O406  1  0.88187763  0.24333609  0.24915086  1
  O  O407  1  0.87946198  0.24357804  0.74378747  1
  O  O408  1  0.88475556  0.74753737  0.25427769  1
  O  O409  1  0.87588709  0.74029836  0.74607465  1
  O  O410  1  0.38037190  0.50003154  0.49058685  1
  O  O411  1  0.37213284  0.49025324  0.99178145  1
  O  O412  1  0.37962079  0.99174897  0.49390787  1
  O  O413  1  0.38070700  0.99559541  0.99476237  1
  O  O414  1  0.86968374  0.49358122  0.48757092  1
  O  O415  1  0.87874117  0.49909012  0.99113674  1
  O  O416  1  0.87639339  0.99324693  0.49115560  1
  O  O417  1  0.87409845  0.99086945  0.99273226  1
  O  O418  1  0.12292855  0.00102362  0.01087771  1
  O  O419  1  0.12257874  0.01158253  0.49815481  1
  O  O420  1  0.12293698  0.50644202  0.00720540  1
  O  O421  1  0.13121505  0.51031723  0.51224185  1
  O  O422  1  0.61954906  0.00525367  0.00446901  1
  O  O423  1  0.62051711  0.00457570  0.50391070  1
  O  O424  1  0.62496949  0.51318236  -0.00484843  1
  O  O425  1  0.62097036  0.50898702  0.50531312  1
  O  O426  1  0.37329434  0.37006321  0.11534969  1
  O  O427  1  0.36829684  0.36783170  0.62326375  1
  O  O428  1  0.37512190  0.86680984  0.11954632  1
  O  O429  1  0.36649999  0.87232499  0.61609598  1
  O  O430  1  0.86378572  0.37320227  0.12417855  1
  O  O431  1  0.87139273  0.37045943  0.62052523  1
  O  O432  1  0.87425798  0.87526607  0.11268234  1
  O  O433  1  0.86679728  0.87259091  0.61540962  1
  O  O434  1  0.13089848  0.12740153  0.38227413  1
  O  O435  1  0.12616685  0.13276766  0.87740497  1
  O  O436  1  0.13096269  0.63042006  0.38207676  1
  O  O437  1  0.13196267  0.62825517  0.87889059  1
  O  O438  1  0.62645184  0.13659349  0.38144216  1
  O  O439  1  0.63209946  0.12505552  0.88122969  1
  O  O440  1  0.63299091  0.63090214  0.38433163  1
  O  O441  1  0.63023330  0.62927756  0.88375271  1
