# generated using pymatgen
data_V93Zn93O256
_symmetry_space_group_name_H-M   'P 1'
_cell_length_a   17.05648030
_cell_length_b   17.05792206
_cell_length_c   17.05780273
_cell_angle_alpha   89.94472300
_cell_angle_beta   89.94500544
_cell_angle_gamma   90.12647746
_symmetry_Int_Tables_number   1
_chemical_formula_structural   V93Zn93O256
_chemical_formula_sum   'V93 Zn93 O256'
_cell_volume   4962.91879377
_cell_formula_units_Z   1
loop_
 _symmetry_equiv_pos_site_id
 _symmetry_equiv_pos_as_xyz
  1  'x, y, z'
loop_
 _atom_site_type_symbol
 _atom_site_label
 _atom_site_symmetry_multiplicity
 _atom_site_fract_x
 _atom_site_fract_y
 _atom_site_fract_z
 _atom_site_occupancy
  V  V0  1  0.12584269  0.75128526  0.37482973  1
  V  V1  1  0.74982327  0.12599829  0.37591409  1
  V  V2  1  0.50079607  0.74971545  0.74920231  1
  V  V3  1  0.75060432  0.74799139  -0.00133491  1
  V  V4  1  0.37427483  0.62227894  0.74855675  1
  V  V5  1  0.62362829  0.37348035  0.74937314  1
  V  V6  1  0.75166771  0.62258752  0.37286856  1
  V  V7  1  0.75412499  0.25166437  0.00061296  1
  V  V8  1  0.37574782  0.37577300  -0.00042674  1
  V  V9  1  0.62306713  0.25624073  0.37315231  1
  V  V10  1  0.24898567  0.12480500  0.87737380  1
  V  V11  1  0.00069337  0.49999557  0.49900108  1
  V  V12  1  0.25052555  0.87615563  0.12094899  1
  V  V13  1  0.62355392  -0.00182620  0.62260363  1
  V  V14  1  0.00128999  0.62549248  0.12387459  1
  V  V15  1  -0.00317673  -0.00012533  0.00151302  1
  V  V16  1  0.62004834  0.61990705  0.49685453  1
  V  V17  1  0.38467052  0.38180446  0.49758475  1
  V  V18  1  0.12917498  0.49959390  0.12667738  1
  V  V19  1  0.12527367  0.00098147  0.62612360  1
  V  V20  1  0.37642701  -0.00827534  0.37905709  1
  V  V21  1  0.12582690  0.50024177  0.62641397  1
  V  V22  1  0.87499042  0.24913368  0.62615824  1
  V  V23  1  0.75007830  0.49947710  0.75007421  1
  V  V24  1  0.75136976  0.74832017  0.49866781  1
  V  V25  1  -0.00205378  0.12416030  0.12549303  1
  V  V26  1  0.25172477  0.75468757  -0.00119649  1
  V  V27  1  0.87540762  0.37544676  0.50016996  1
  V  V28  1  0.87498890  0.49156094  0.87809563  1
  V  V29  1  0.37391799  0.12719831  0.25162392  1
  V  V30  1  0.12226706  0.00068579  0.12435141  1
  V  V31  1  0.12577792  0.25305638  0.37641427  1
  V  V32  1  0.12660261  0.62531309  0.49913227  1
  V  V33  1  0.62897194  0.75487006  0.36729479  1
  V  V34  1  0.87582598  0.87465865  0.50085594  1
  V  V35  1  0.74875826  -0.00121598  0.75175662  1
  V  V36  1  0.62617328  0.62292090  -0.00257933  1
  V  V37  1  0.75544039  0.37440118  0.12105084  1
  V  V38  1  0.37504103  0.24943872  0.62576050  1
  V  V39  1  0.74772624  0.12321379  0.87585189  1
  V  V40  1  0.12512858  0.74941901  0.87381287  1
  V  V41  1  0.74996813  0.62290211  0.87355089  1
  V  V42  1  0.25262015  0.75542793  0.49920064  1
  V  V43  1  0.25139031  0.62559373  0.87381608  1
  V  V44  1  0.62393010  0.24866363  0.87555012  1
  V  V45  1  0.62450557  0.87350849  0.75066972  1
  V  V46  1  0.87274390  0.87365519  -0.00190011  1
  V  V47  1  0.00040609  0.87524024  0.37593241  1
  V  V48  1  0.87561625  0.00319217  0.37744615  1
  V  V49  1  0.87561240  0.49886239  0.37456472  1
  V  V50  1  0.24868917  0.24861950  0.00064059  1
  V  V51  1  0.50081478  0.62649559  0.12301228  1
  V  V52  1  0.25008037  0.37554684  0.62582365  1
  V  V53  1  -0.00131794  0.12554056  0.62707635  1
  V  V54  1  0.37445724  0.62585335  0.24929384  1
  V  V55  1  0.49761335  -0.00274813  0.00203278  1
  V  V56  1  0.12513719  0.87461615  0.74987736  1
  V  V57  1  0.50377763  0.12480307  0.12566786  1
  V  V58  1  0.62208117  0.50018800  0.62185100  1
  V  V59  1  0.24893449  0.12594933  0.37493647  1
  V  V60  1  0.62527354  0.49345363  0.12818928  1
  V  V61  1  0.87268388  0.12727714  0.25127679  1
  V  V62  1  0.74936538  0.87331623  0.62572772  1
  V  V63  1  0.50736003  0.75823927  0.24734912  1
  V  V64  1  -0.00030179  0.74916833  0.24858137  1
  V  V65  1  0.74938674  0.37488031  0.62519097  1
  V  V66  1  0.12567831  0.62532275  -0.00124144  1
  V  V67  1  0.37455192  0.12504369  0.75089895  1
  V  V68  1  0.37656498  0.75560397  0.61821455  1
  V  V69  1  0.50035888  0.62229130  0.62094892  1
  V  V70  1  0.49500849  0.87271908  0.88020772  1
  V  V71  1  0.00041620  -0.00009210  0.50162417  1
  V  V72  1  0.12417474  0.12632046  0.50042488  1
  V  V73  1  0.24779058  0.00106435  0.24892367  1
  V  V74  1  0.37358753  -0.00393203  0.87868105  1
  V  V75  1  0.49977578  0.49894380  -0.00056296  1
  V  V76  1  0.61674990  0.12149726  0.50112586  1
  V  V77  1  -0.00346312  0.49204452  -0.00037251  1
  V  V78  1  0.12174853  0.87655726  0.24862287  1
  V  V79  1  0.87571066  0.74851584  0.62515915  1
  V  V80  1  0.74785372  0.49385857  0.24906715  1
  V  V81  1  0.25296316  0.87633025  0.62188348  1
  V  V82  1  -0.00013620  0.74765881  0.74933615  1
  V  V83  1  0.37603516  0.25059690  0.12580474  1
  V  V84  1  0.00112856  0.25343672  0.25037179  1
  V  V85  1  0.74884297  0.24961082  0.50077464  1
  V  V86  1  0.50273765  0.25876221  0.25215019  1
  V  V87  1  0.37564140  0.75692934  0.11844947  1
  V  V88  1  0.87315866  0.12360367  0.74960118  1
  V  V89  1  0.25269579  0.62747203  0.37405105  1
  V  V90  1  0.49935258  0.24814560  0.75120531  1
  V  V91  1  0.24909025  0.00017676  0.75160240  1
  V  V92  1  0.87601224  0.74619715  0.12151892  1
  Zn  Zn93  1  0.87843399  0.25430733  0.11999487  1
  Zn  Zn94  1  0.00102296  0.25136878  0.75453872  1
  Zn  Zn95  1  0.73647418  -0.00946980  0.25346517  1
  Zn  Zn96  1  0.87494355  0.62249855  0.74799522  1
  Zn  Zn97  1  0.25214772  0.25135050  0.49979468  1
  Zn  Zn98  1  0.00048841  0.87656749  0.87441103  1
  Zn  Zn99  1  0.00133678  0.37109892  0.87508937  1
  Zn  Zn100  1  0.87663238  0.62281614  0.24843149  1
  Zn  Zn101  1  0.12138640  0.12637068  -0.00077185  1
  Zn  Zn102  1  0.13049899  0.37767329  0.25195816  1
  Zn  Zn103  1  0.25095315  0.37565957  0.12823935  1
  Zn  Zn104  1  0.51694996  0.88441693  0.37074768  1
  Zn  Zn105  1  0.12201933  0.25186505  0.87387814  1
  Zn  Zn106  1  0.37508934  0.50004732  0.87533022  1
  Zn  Zn107  1  0.24766020  0.49891901  0.75414594  1
  Zn  Zn108  1  -0.00097837  0.62409238  0.62361069  1
  Zn  Zn109  1  0.00214345  0.37718550  0.37480424  1
  Zn  Zn110  1  0.74214747  0.87434147  0.13175543  1
  Zn  Zn111  1  0.62642269  0.12178782  0.00311358  1
  Zn  Zn112  1  0.62551889  0.74854661  0.87387294  1
  Zn  Zn113  1  0.49671407  0.12080505  0.62499072  1
  Zn  Zn114  1  0.87356832  -0.00035839  0.87584841  1
  Zn  Zn115  1  0.38496942  0.51142022  0.38577523  1
  Zn  Zn116  1  0.47491104  -0.03031854  0.51939235  1
  Zn  Zn117  1  0.25198107  0.49818128  0.25500374  1
  Zn  Zn118  1  0.50880257  0.38787356  0.37452090  1
  Zn  Zn119  1  0.12210341  0.37292524  0.75378434  1
  Zn  Zn120  1  0.61820813  -0.01507006  0.14193779  1
  Zn  Zn121  1  0.49968482  0.37567569  0.87403495  1
  Zn  Zn122  1  0.18589039  0.18713449  0.18636578  1
  Zn  Zn123  1  0.18694214  0.18965037  0.68999849  1
  Zn  Zn124  1  0.18800965  0.68856592  0.18647414  1
  Zn  Zn125  1  0.18880863  0.68753085  0.68586488  1
  Zn  Zn126  1  0.68695873  0.18837126  0.18949497  1
  Zn  Zn127  1  0.68611933  0.18567903  0.68725537  1
  Zn  Zn128  1  0.69067171  0.68278422  0.18400507  1
  Zn  Zn129  1  0.68706482  0.68624326  0.68712975  1
  Zn  Zn130  1  0.31314086  0.31502552  0.31269814  1
  Zn  Zn131  1  0.31109283  0.31218345  0.81360686  1
  Zn  Zn132  1  0.31173111  0.81221606  0.30582636  1
  Zn  Zn133  1  0.31309776  0.81106605  0.80851610  1
  Zn  Zn134  1  0.81063207  0.31425719  0.31275415  1
  Zn  Zn135  1  0.81172161  0.31028715  0.81236885  1
  Zn  Zn136  1  0.81420995  0.81010430  0.31186065  1
  Zn  Zn137  1  0.81350391  0.81133461  0.81410102  1
  Zn  Zn138  1  0.19465922  0.43980339  0.43876378  1
  Zn  Zn139  1  0.18781974  0.43719125  0.93740119  1
  Zn  Zn140  1  0.18865004  0.93850044  0.43797796  1
  Zn  Zn141  1  0.18434006  0.93684713  0.93811951  1
  Zn  Zn142  1  0.68988523  0.43820526  0.43871618  1
  Zn  Zn143  1  0.68717328  0.43486402  0.93766525  1
  Zn  Zn144  1  0.68996111  0.93931537  0.43833532  1
  Zn  Zn145  1  0.68274723  0.93615973  0.94078416  1
  Zn  Zn146  1  0.31532026  0.06295770  0.06317190  1
  Zn  Zn147  1  0.30879411  0.06580873  0.56237861  1
  Zn  Zn148  1  0.31284481  0.56656034  0.06193097  1
  Zn  Zn149  1  0.31117102  0.56445535  0.56248673  1
  Zn  Zn150  1  0.80701157  0.06122334  0.06771401  1
  Zn  Zn151  1  0.80939787  0.06240802  0.56290629  1
  Zn  Zn152  1  0.81380592  0.56170468  0.06038475  1
  Zn  Zn153  1  0.81145957  0.56293145  0.56230389  1
  Zn  Zn154  1  0.43704772  0.43938232  0.18621584  1
  Zn  Zn155  1  0.43976309  0.43703821  0.68470947  1
  Zn  Zn156  1  0.43582084  0.93912550  0.19084675  1
  Zn  Zn157  1  0.43731384  0.93699683  0.69513038  1
  Zn  Zn158  1  0.93736438  0.43843313  0.18672303  1
  Zn  Zn159  1  0.93846238  0.43600651  0.68991881  1
  Zn  Zn160  1  0.90811457  0.92362329  0.20106575  1
  Zn  Zn161  1  0.93654403  0.93659725  0.68864148  1
  Zn  Zn162  1  0.06040280  0.06475510  0.31244288  1
  Zn  Zn163  1  0.06190752  0.06609154  0.81521129  1
  Zn  Zn164  1  0.06336575  0.56389622  0.31216033  1
  Zn  Zn165  1  0.06128420  0.56108453  0.81300594  1
  Zn  Zn166  1  0.56091875  0.06978583  0.31343479  1
  Zn  Zn167  1  0.56179835  0.06109895  0.81336180  1
  Zn  Zn168  1  0.56141448  0.56617158  0.30952985  1
  Zn  Zn169  1  0.56124716  0.55989089  0.81119926  1
  Zn  Zn170  1  0.43548910  0.19023450  0.43684302  1
  Zn  Zn171  1  0.43716544  0.18535875  0.93760282  1
  Zn  Zn172  1  0.44212921  0.69560985  0.43441796  1
  Zn  Zn173  1  0.43796453  0.68689274  0.93700905  1
  Zn  Zn174  1  0.93875747  0.18941598  0.43941672  1
  Zn  Zn175  1  0.93442405  0.18616394  0.93532676  1
  Zn  Zn176  1  0.93848728  0.68525130  0.43706512  1
  Zn  Zn177  1  0.93717655  0.68149200  0.93454845  1
  Zn  Zn178  1  0.06480166  0.31382438  0.06480497  1
  Zn  Zn179  1  0.06094839  0.31364630  0.56414580  1
  Zn  Zn180  1  0.06214979  0.81411929  0.06089487  1
  Zn  Zn181  1  0.06482467  0.81253075  0.56361340  1
  Zn  Zn182  1  0.56488034  0.31161725  0.06149549  1
  Zn  Zn183  1  0.56167351  0.30894474  0.56426003  1
  Zn  Zn184  1  0.56600129  0.81162095  0.05936980  1
  Zn  Zn185  1  0.56387566  0.80941395  0.55689662  1
  O  O186  1  0.11603705  0.11809622  0.12365924  1
  O  O187  1  0.11994971  0.11917297  0.62035101  1
  O  O188  1  0.12081242  0.61943852  0.11902403  1
  O  O189  1  0.12689157  0.61604793  0.61746321  1
  O  O190  1  0.60920205  0.12666431  0.12682473  1
  O  O191  1  0.62354225  0.11754408  0.61656128  1
  O  O192  1  0.62073111  0.61512441  0.11665232  1
  O  O193  1  0.62099253  0.62125654  0.61515028  1
  O  O194  1  0.37431411  0.37393858  0.39278987  1
  O  O195  1  0.37575499  0.37681949  0.88808935  1
  O  O196  1  0.36838481  0.89165319  0.36863680  1
  O  O197  1  0.38662708  0.88027313  0.86543548  1
  O  O198  1  0.87556691  0.38115225  0.38264318  1
  O  O199  1  0.87298241  0.38892905  0.87204961  1
  O  O200  1  0.88248186  0.88096568  0.38367451  1
  O  O201  1  0.87889504  0.87663841  0.88578856  1
  O  O202  1  0.25587974  0.00627360  0.36887529  1
  O  O203  1  0.25388833  0.00351334  0.87143291  1
  O  O204  1  0.25991605  0.51235709  0.37488223  1
  O  O205  1  0.25460625  0.50998390  0.87355565  1
  O  O206  1  0.75947483  0.00859548  0.37500514  1
  O  O207  1  0.74754780  0.00502255  0.86927967  1
  O  O208  1  0.75382222  0.50230951  0.36614355  1
  O  O209  1  0.75605407  0.50293588  0.87114014  1
  O  O210  1  0.23795500  0.50356248  0.12425089  1
  O  O211  1  0.24113414  0.49352882  0.62473458  1
  O  O212  1  0.24448289  0.99675385  0.12951482  1
  O  O213  1  0.24475379  0.99634055  0.63159079  1
  O  O214  1  0.74499549  0.49384076  0.12883087  1
  O  O215  1  0.74343325  0.49403124  0.62981421  1
  O  O216  1  0.73990496  0.99850916  0.13169316  1
  O  O217  1  0.74396950  0.99208683  0.63071279  1
  O  O218  1  0.00156743  0.36326873  0.25151909  1
  O  O219  1  0.00266440  0.37069536  0.75376199  1
  O  O220  1  0.00145990  0.86966996  0.25650539  1
  O  O221  1  0.00581440  0.86485587  0.75071575  1
  O  O222  1  0.49301077  0.36130481  0.25048404  1
  O  O223  1  0.50552848  0.36709495  0.75060294  1
  O  O224  1  0.49530018  0.86144564  0.25407576  1
  O  O225  1  0.50593049  0.86898292  0.75874578  1
  O  O226  1  0.49238954  0.13630161  0.24320015  1
  O  O227  1  0.49152432  0.12971942  0.75014016  1
  O  O228  1  0.49295567  0.63711643  0.24116863  1
  O  O229  1  0.49283090  0.63032444  0.74342793  1
  O  O230  1  0.99408006  0.13653697  0.24681111  1
  O  O231  1  0.99103542  0.12328863  0.74295492  1
  O  O232  1  1.00037383  0.63190867  0.24249721  1
  O  O233  1  1.00034038  0.63734575  0.74657391  1
  O  O234  1  0.36955383  0.25686265  0.00548035  1
  O  O235  1  0.37301458  0.25931376  0.50765911  1
  O  O236  1  0.36951341  0.74447752  0.01182689  1
  O  O237  1  0.37048545  0.74431145  0.51206383  1
  O  O238  1  0.85795769  0.24440988  0.00220293  1
  O  O239  1  0.86855951  0.25482728  0.50555431  1
  O  O240  1  0.87202721  0.75406955  0.00098607  1
  O  O241  1  0.87088660  0.75507860  0.50402890  1
  O  O242  1  0.12410562  0.24506461  0.49073285  1
  O  O243  1  0.13925938  0.24865089  1.00300662  1
  O  O244  1  0.13096002  0.74565092  0.49396090  1
  O  O245  1  0.12993232  0.74460606  0.99372955  1
  O  O246  1  0.62948047  0.24109820  0.49540677  1
  O  O247  1  0.63334375  0.24636136  0.99375390  1
  O  O248  1  0.63392377  0.73944317  0.48921724  1
  O  O249  1  0.63209118  0.73927879  0.99582221  1
  O  O250  1  0.49655898  0.24408921  0.13182940  1
  O  O251  1  0.49267916  0.24542216  0.63366991  1
  O  O252  1  0.49345093  0.74666303  0.12834034  1
  O  O253  1  0.49363068  0.74444175  0.62894733  1
  O  O254  1  0.99927548  0.24534739  0.13353623  1
  O  O255  1  0.99160761  0.24161820  0.62397418  1
  O  O256  1  0.99702868  0.74432058  0.12839214  1
  O  O257  1  0.99568251  0.74975131  0.63335378  1
  O  O258  1  0.00980308  0.25080631  0.36813914  1
  O  O259  1  0.00162229  0.25250771  0.87579446  1
  O  O260  1  0.00616024  0.75542931  0.37035443  1
  O  O261  1  0.00652379  0.74868231  0.86492300  1
  O  O262  1  0.50689874  0.25184980  0.36735334  1
  O  O263  1  0.50554087  0.25049839  0.86908790  1
  O  O264  1  0.51387878  0.74940697  0.36239256  1
  O  O265  1  0.49992433  0.75746517  0.86907797  1
  O  O266  1  0.24079005  0.12892547  0.49363444  1
  O  O267  1  0.25240934  0.13388528  0.99599296  1
  O  O268  1  0.24616521  0.63440458  0.49378422  1
  O  O269  1  0.24523814  0.63377866  0.99336889  1
  O  O270  1  0.74126349  0.13090755  0.49554507  1
  O  O271  1  0.74579705  0.13218303  0.99512161  1
  O  O272  1  0.74249739  0.62983774  0.49312799  1
  O  O273  1  0.74537422  0.62770175  0.99323114  1
  O  O274  1  0.25995923  0.36628015  0.00350243  1
  O  O275  1  0.26007570  0.37308172  0.51137175  1
  O  O276  1  0.24303982  0.86743112  0.00836845  1
  O  O277  1  0.24368614  0.86814761  0.50908136  1
  O  O278  1  0.74409719  0.36473567  0.00967178  1
  O  O279  1  0.75554870  0.36940127  0.50651124  1
  O  O280  1  0.75983192  0.86704507  -0.00325431  1
  O  O281  1  0.75644654  0.86837664  0.50581704  1
  O  O282  1  0.12725260  0.50129436  0.23953877  1
  O  O283  1  0.12648505  0.50070294  0.73662516  1
  O  O284  1  0.12759179  0.99592427  0.24513245  1
  O  O285  1  0.12965849  0.99543314  0.74554924  1
  O  O286  1  0.63552613  0.50874089  0.23722290  1
  O  O287  1  0.63044673  0.49308774  0.74333501  1
  O  O288  1  0.62354592  1.00007899  0.25668551  1
  O  O289  1  0.62918142  0.99320417  0.74326715  1
  O  O290  1  0.36671269  0.00732158  0.25839261  1
  O  O291  1  0.36748531  0.00526806  0.75761293  1
  O  O292  1  0.37423787  0.51953311  0.24256948  1
  O  O293  1  0.37449298  0.51358683  0.74790495  1
  O  O294  1  0.88595562  0.02030859  0.26099886  1
  O  O295  1  0.86639810  0.00429370  0.75094038  1
  O  O296  1  0.86655516  0.50110125  0.25562892  1
  O  O297  1  0.86777965  0.50172337  0.75745062  1
  O  O298  1  0.12621288  0.36500528  0.37528384  1
  O  O299  1  0.12357737  0.37237133  0.87248856  1
  O  O300  1  0.11934490  0.87143222  0.36872859  1
  O  O301  1  0.12332553  0.86741280  0.86687877  1
  O  O302  1  0.62444061  0.36005312  0.38558645  1
  O  O303  1  0.62390580  0.36708949  0.86702552  1
  O  O304  1  0.63727236  0.85799620  0.37365417  1
  O  O305  1  0.61315654  0.87266769  0.86851116  1
  O  O306  1  0.38437689  0.13059908  0.13170154  1
  O  O307  1  0.37373372  0.13096472  0.63226940  1
  O  O308  1  0.37987764  0.63690274  0.13055591  1
  O  O309  1  0.37914077  0.63355157  0.63058362  1
  O  O310  1  0.87959662  0.12916154  0.13660076  1
  O  O311  1  0.87838462  0.12908384  0.62899244  1
  O  O312  1  0.88383417  0.62953349  0.12363686  1
  O  O313  1  0.87742869  0.63276818  0.62660964  1
  O  O314  1  0.25766751  0.24825991  0.11675991  1
  O  O315  1  0.25619707  0.25953771  0.62423710  1
  O  O316  1  0.25719569  0.75546743  0.11963010  1
  O  O317  1  0.25841685  0.75584010  0.61983796  1
  O  O318  1  0.74703690  0.25861446  0.11907104  1
  O  O319  1  0.75420066  0.25509472  0.61986078  1
  O  O320  1  0.75920471  0.74708826  0.11581805  1
  O  O321  1  0.75501086  0.75458930  0.61916621  1
  O  O322  1  0.23968450  0.24450735  0.37463694  1
  O  O323  1  0.25328053  0.24261833  0.88710553  1
  O  O324  1  0.24486379  0.74835280  0.37877268  1
  O  O325  1  0.24509068  0.74595678  0.87836429  1
  O  O326  1  0.74202041  0.24630179  0.38049086  1
  O  O327  1  0.74421544  0.24453266  0.88230166  1
  O  O328  1  0.74762798  0.74241752  0.37704238  1
  O  O329  1  0.74910480  0.74071908  0.88003725  1
  O  O330  1  -0.00340975  0.11591029  0.00737128  1
  O  O331  1  0.00453315  0.11886042  0.50642289  1
  O  O332  1  0.00759252  0.61696691  0.00457714  1
  O  O333  1  0.00894382  0.61868707  0.50081992  1
  O  O334  1  0.49901739  0.11834183  0.01075030  1
  O  O335  1  0.51162835  0.12633734  0.50056497  1
  O  O336  1  0.50488034  0.61937109  0.00496780  1
  O  O337  1  0.51350272  0.63387787  0.50403983  1
  O  O338  1  0.48693374  0.37085788  0.50150107  1
  O  O339  1  0.49100052  0.37917905  1.00038794  1
  O  O340  1  0.50716686  0.87112580  0.48394450  1
  O  O341  1  0.50181702  0.88086446  0.98784911  1
  O  O342  1  0.99264043  0.38191314  0.49862894  1
  O  O343  1  1.00381251  0.38963147  1.00150497  1
  O  O344  1  0.99637097  0.88019195  0.49605165  1
  O  O345  1  0.99280215  0.88322126  0.99754476  1
  O  O346  1  0.49521783  0.49831528  0.36654822  1
  O  O347  1  0.49599349  0.49698136  0.88345783  1
  O  O348  1  0.48109424  1.00144662  0.36996145  1
  O  O349  1  0.49377423  0.99239170  0.88148371  1
  O  O350  1  0.99487536  0.49874424  0.38033118  1
  O  O351  1  0.99176618  0.50085991  0.88361974  1
  O  O352  1  0.99600593  0.99572774  0.38287450  1
  O  O353  1  0.99752176  1.00026463  0.88857141  1
  O  O354  1  0.00274273  0.00481861  0.11579098  1
  O  O355  1  0.00551198  0.00428729  0.62036978  1
  O  O356  1  0.00733301  0.50507510  0.11885403  1
  O  O357  1  0.01036462  0.50082994  0.61804658  1
  O  O358  1  0.49610116  0.00778450  0.11967958  1
  O  O359  1  0.50480092  0.00045872  0.62521590  1
  O  O360  1  0.50863336  0.50541105  0.12093458  1
  O  O361  1  0.50980377  0.50988472  0.62973293  1
  O  O362  1  0.24995325  0.38080710  0.24548392  1
  O  O363  1  0.25330780  0.37895569  0.73634979  1
  O  O364  1  0.24094321  0.88105996  0.24204612  1
  O  O365  1  0.24425002  0.88058423  0.74310467  1
  O  O366  1  0.75061099  0.38699359  0.24188251  1
  O  O367  1  0.74340155  0.37929772  0.74353612  1
  O  O368  1  0.79388092  0.88999642  0.23734893  1
  O  O369  1  0.74469240  0.87808882  0.74553383  1
  O  O370  1  0.25351816  0.12016973  0.25453602  1
  O  O371  1  0.25528549  0.11867496  0.75689954  1
  O  O372  1  0.25983578  0.63014640  0.25587799  1
  O  O373  1  0.25978674  0.62600206  0.75413059  1
  O  O374  1  0.76153161  0.13099394  0.25828212  1
  O  O375  1  0.75336824  0.11789575  0.75439969  1
  O  O376  1  0.75407922  0.61220533  0.25390857  1
  O  O377  1  0.74900466  0.61682070  0.75554422  1
  O  O378  1  0.36757381  0.12047837  0.36953606  1
  O  O379  1  0.36825433  0.11722217  0.87051074  1
  O  O380  1  0.37187026  0.63269656  0.36492329  1
  O  O381  1  0.37038716  0.62708883  0.86357967  1
  O  O382  1  0.87029087  0.12348517  0.37198167  1
  O  O383  1  0.86444493  0.12130635  0.86732824  1
  O  O384  1  0.86862187  0.61684779  0.37428730  1
  O  O385  1  0.86731526  0.61328008  0.87082766  1
  O  O386  1  0.12792530  0.38800681  0.12777409  1
  O  O387  1  0.13483531  0.38421102  0.62177053  1
  O  O388  1  0.12895060  0.88110078  0.13088911  1
  O  O389  1  0.13121506  0.88192599  0.63090034  1
  O  O390  1  0.63290390  0.38789148  0.12171958  1
  O  O391  1  0.63007888  0.37925317  0.62863792  1
  O  O392  1  0.62913966  0.87293098  0.12386221  1
  O  O393  1  0.63062840  0.87762879  0.62976806  1
  O  O394  1  0.11655486  0.24959329  0.25872731  1
  O  O395  1  0.12120594  0.25304478  0.75371636  1
  O  O396  1  0.11957358  0.75698924  0.25480623  1
  O  O397  1  0.11875343  0.75440850  0.75262154  1
  O  O398  1  0.61505263  0.24320469  0.26268933  1
  O  O399  1  0.62000288  0.25435482  0.75441278  1
  O  O400  1  0.61854873  0.73925834  0.25587089  1
  O  O401  1  0.61819845  0.75529248  0.75044234  1
  O  O402  1  0.38212092  0.24571140  0.24614388  1
  O  O403  1  0.37914047  0.24464958  0.74584314  1
  O  O404  1  0.38317586  0.74317488  0.24068592  1
  O  O405  1  0.37993802  0.74044995  0.73939747  1
  O  O406  1  0.88454006  0.24257886  0.25333260  1
  O  O407  1  0.87263218  0.24089234  0.74209263  1
  O  O408  1  0.88403578  0.74511595  0.24146156  1
  O  O409  1  0.88449630  0.74980640  0.74451031  1
  O  O410  1  0.37365180  0.48599000  0.50474166  1
  O  O411  1  0.38089975  0.49194188  1.00338202  1
  O  O412  1  0.37107344  1.00662044  0.48437898  1
  O  O413  1  0.38775599  1.00361816  0.99417815  1
  O  O414  1  0.87946255  0.49496988  0.49494979  1
  O  O415  1  0.88559750  0.50571893  0.99079655  1
  O  O416  1  0.88051744  0.99478527  0.49715134  1
  O  O417  1  0.88101548  0.99097513  1.00167125  1
  O  O418  1  0.11374662  0.00052827  0.00652822  1
  O  O419  1  0.11957116  0.00601461  0.50581169  1
  O  O420  1  0.11809517  0.50666449  0.00795795  1
  O  O421  1  0.12184020  0.50523112  0.50645252  1
  O  O422  1  0.60641041  0.00310764  -0.00021029  1
  O  O423  1  0.62760727  0.00975847  0.50502908  1
  O  O424  1  0.61999970  0.50355191  0.00794464  1
  O  O425  1  0.63257661  0.51295349  0.50473875  1
  O  O426  1  0.37499277  0.36949657  0.11465844  1
  O  O427  1  0.36948204  0.37083432  0.61708704  1
  O  O428  1  0.36753220  0.86350372  0.13319575  1
  O  O429  1  0.37039804  0.86318412  0.63327152  1
  O  O430  1  0.86051215  0.37310610  0.12845788  1
  O  O431  1  0.86808339  0.36982871  0.61944486  1
  O  O432  1  0.87929683  0.86364119  0.10666671  1
  O  O433  1  0.86918413  0.86897791  0.61930049  1
  O  O434  1  0.12837915  0.13324180  0.37988501  1
  O  O435  1  0.13535644  0.12690581  0.88042083  1
  O  O436  1  0.13209512  0.63234400  0.37934009  1
  O  O437  1  0.13159584  0.63002405  0.87882181  1
  O  O438  1  0.62935114  0.13535330  0.38500434  1
  O  O439  1  0.63091399  0.13164243  0.87468143  1
  O  O440  1  0.63226099  0.63174066  0.38001848  1
  O  O441  1  0.63175646  0.62281405  0.88016824  1
