# generated using pymatgen
data_V93Zn93O256
_symmetry_space_group_name_H-M   'P 1'
_cell_length_a   17.05407780
_cell_length_b   17.05334042
_cell_length_c   17.05213510
_cell_angle_alpha   89.97331760
_cell_angle_beta   90.04720706
_cell_angle_gamma   90.09343185
_symmetry_Int_Tables_number   1
_chemical_formula_structural   V93Zn93O256
_chemical_formula_sum   'V93 Zn93 O256'
_cell_volume   4959.24648782
_cell_formula_units_Z   1
loop_
 _symmetry_equiv_pos_site_id
 _symmetry_equiv_pos_as_xyz
  1  'x, y, z'
loop_
 _atom_site_type_symbol
 _atom_site_label
 _atom_site_symmetry_multiplicity
 _atom_site_fract_x
 _atom_site_fract_y
 _atom_site_fract_z
 _atom_site_occupancy
  V  V0  1  0.49966120  0.62565504  0.62563019  1
  V  V1  1  0.24948753  0.62337155  0.87581173  1
  V  V2  1  0.00018515  0.87950946  0.38065209  1
  V  V3  1  0.24927186  0.12382589  0.87439865  1
  V  V4  1  0.62496217  0.12844198  -0.00594087  1
  V  V5  1  0.12156400  -0.00063949  0.62083663  1
  V  V6  1  0.75009735  0.74943116  0.00204468  1
  V  V7  1  0.00017894  0.37409123  0.37371999  1
  V  V8  1  0.62557198  0.75294129  0.37613018  1
  V  V9  1  0.37506185  0.25062254  0.62511300  1
  V  V10  1  0.12613822  0.87499382  0.74947406  1
  V  V11  1  0.37486015  0.24961077  0.12412503  1
  V  V12  1  0.74995410  0.11700140  0.87292047  1
  V  V13  1  0.87259391  0.25138584  0.62423153  1
  V  V14  1  0.49950083  0.87707600  0.37363408  1
  V  V15  1  0.12500849  0.24836171  0.87425682  1
  V  V16  1  0.49938889  0.12636695  0.62417548  1
  V  V17  1  0.62482166  0.62804649  0.50163450  1
  V  V18  1  0.24949078  0.25046233  0.49939576  1
  V  V19  1  0.62543920  0.50049080  0.62815817  1
  V  V20  1  0.74746386  0.25009299  -0.00822869  1
  V  V21  1  0.50803044  0.37151126  0.87507355  1
  V  V22  1  0.75093493  0.62744858  0.37599014  1
  V  V23  1  0.49928534  0.00215472  0.49862598  1
  V  V24  1  0.50663947  0.25092865  0.75354986  1
  V  V25  1  0.49940641  -0.00042036  -0.00068580  1
  V  V26  1  0.50032645  0.49937963  0.00088977  1
  V  V27  1  0.50795487  0.37643265  0.37116056  1
  V  V28  1  0.49856855  0.62420958  0.12607279  1
  V  V29  1  -0.00036256  0.12290884  0.62326908  1
  V  V30  1  0.49970212  0.74984547  0.24996300  1
  V  V31  1  0.12019099  0.61804578  -0.00013863  1
  V  V32  1  0.12395912  0.49642086  0.12547855  1
  V  V33  1  0.87618985  0.62401013  0.75129227  1
  V  V34  1  0.37482592  0.12460059  0.74900550  1
  V  V35  1  0.87887669  0.00121215  0.38044072  1
  V  V36  1  0.62387584  0.62291045  0.00424418  1
  V  V37  1  0.37484084  0.50097406  0.37501733  1
  V  V38  1  0.63161510  -0.00071662  0.63035629  1
  V  V39  1  -0.00067340  -0.00255860  0.00062203  1
  V  V40  1  0.87681338  0.24719031  0.12490660  1
  V  V41  1  0.50051516  0.50108084  0.50066596  1
  V  V42  1  0.37585298  -0.00115693  0.87396545  1
  V  V43  1  0.24966189  0.62471349  0.37353947  1
  V  V44  1  0.49949119  0.12600737  0.12447568  1
  V  V45  1  0.74983283  0.12570480  0.37082681  1
  V  V46  1  0.12588403  0.37279177  0.74999169  1
  V  V47  1  0.25046695  0.49885855  0.75034191  1
  V  V48  1  -0.00006005  0.37422964  0.87617290  1
  V  V49  1  0.00006420  0.24765558  0.75006515  1
  V  V50  1  0.87541637  0.50112951  0.37780854  1
  V  V51  1  0.00004137  0.87416197  0.87638726  1
  V  V52  1  0.74951848  0.49835670  0.75013213  1
  V  V53  1  0.37512182  0.62471289  0.25061551  1
  V  V54  1  0.74561752  0.37684083  0.13041079  1
  V  V55  1  0.24307368  0.87998890  0.12748813  1
  V  V56  1  0.37526570  0.75176502  0.62482865  1
  V  V57  1  0.75183612  0.75791828  0.50395024  1
  V  V58  1  0.87520605  0.75115734  0.12541981  1
  V  V59  1  0.37470575  0.62533305  0.75020261  1
  V  V60  1  0.12526099  0.74790513  0.87459253  1
  V  V61  1  0.00038359  0.74958316  0.75033366  1
  V  V62  1  0.62433016  0.74958317  0.87557570  1
  V  V63  1  0.25001482  -0.00069235  0.74918970  1
  V  V64  1  0.62572656  -0.00063144  0.12508506  1
  V  V65  1  0.87130620  0.11682820  0.75126712  1
  V  V66  1  -0.00173766  0.61829451  0.12288242  1
  V  V67  1  0.87960937  0.49904036  0.87791142  1
  V  V68  1  0.00140249  0.62482011  0.62521655  1
  V  V69  1  0.25013034  0.37503852  0.62487017  1
  V  V70  1  0.87936320  0.37741952  -0.00053325  1
  V  V71  1  0.12349196  0.75247623  0.36955135  1
  V  V72  1  0.87291881  0.62469895  0.25047251  1
  V  V73  1  0.00102230  0.11957681  0.12618029  1
  V  V74  1  0.12452746  0.50031325  0.62514212  1
  V  V75  1  0.37420350  0.37369380  0.00018034  1
  V  V76  1  0.50214973  0.75070103  0.75150256  1
  V  V77  1  0.37536395  0.37615748  0.49962437  1
  V  V78  1  0.25058904  0.75158203  0.49944336  1
  V  V79  1  0.12036927  0.12260416  0.49833451  1
  V  V80  1  0.25014347  0.24915658  0.00029532  1
  V  V81  1  0.37327277  0.00191080  0.37312796  1
  V  V82  1  0.50563893  0.25445256  0.24920874  1
  V  V83  1  0.12394948  0.11960714  0.00354901  1
  V  V84  1  0.25103118  0.12592427  0.37363569  1
  V  V85  1  0.37553896  0.49906991  0.87544515  1
  V  V86  1  0.87470062  0.75058037  0.62536821  1
  V  V87  1  0.37465140  0.87437449  -0.00026935  1
  V  V88  1  0.25077747  0.74833859  0.00063907  1
  V  V89  1  0.62499882  0.87746142  0.24889522  1
  V  V90  1  0.12424801  0.62551813  0.49972496  1
  V  V91  1  0.62494694  0.13033378  0.49657251  1
  V  V92  1  0.37489746  0.87578787  0.49959015  1
  Zn  Zn93  1  0.11695058  0.88598902  0.24287560  1
  Zn  Zn94  1  0.87075192  -0.00810741  0.86996691  1
  Zn  Zn95  1  0.75028437  0.25458154  0.49778420  1
  Zn  Zn96  1  0.00016297  0.49860742  0.50151687  1
  Zn  Zn97  1  0.12403303  0.25123229  0.37178574  1
  Zn  Zn98  1  0.75187328  0.87721888  0.12738112  1
  Zn  Zn99  1  0.37398951  0.75008804  0.12576726  1
  Zn  Zn100  1  0.61882631  0.49300585  0.13421240  1
  Zn  Zn101  1  0.75071622  0.62302790  0.87719029  1
  Zn  Zn102  1  0.25067388  0.87631582  0.62413725  1
  Zn  Zn103  1  0.74757812  0.37307008  0.62385685  1
  Zn  Zn104  1  0.00214872  0.24903861  0.25000650  1
  Zn  Zn105  1  0.63074031  0.25684344  0.36781600  1
  Zn  Zn106  1  0.24973786  0.49709176  0.24989515  1
  Zn  Zn107  1  0.87581390  0.12245404  0.24977605  1
  Zn  Zn108  1  0.24903444  0.37376689  0.12789925  1
  Zn  Zn109  1  0.75161353  -0.00068394  0.24763843  1
  Zn  Zn110  1  0.12744582  0.37326345  0.25121447  1
  Zn  Zn111  1  0.75970702  0.88555066  0.63730728  1
  Zn  Zn112  1  0.74224192  0.49450400  0.25734495  1
  Zn  Zn113  1  0.87387151  0.37626666  0.50235741  1
  Zn  Zn114  1  0.88007930  0.88250498  0.50453263  1
  Zn  Zn115  1  0.37508664  0.12527307  0.24904410  1
  Zn  Zn116  1  0.63032487  0.88143958  0.75618122  1
  Zn  Zn117  1  0.49998764  0.87509495  0.87432546  1
  Zn  Zn118  1  0.62874505  0.37059257  0.75203099  1
  Zn  Zn119  1  0.24540156  0.00655292  0.24292886  1
  Zn  Zn120  1  0.87454043  0.87514795  -0.00037705  1
  Zn  Zn121  1  -0.00084530  0.75179019  0.24949785  1
  Zn  Zn122  1  0.18532862  0.19102938  0.18908232  1
  Zn  Zn123  1  0.18804520  0.18609094  0.68564247  1
  Zn  Zn124  1  0.18963929  0.68766744  0.18649551  1
  Zn  Zn125  1  0.18901576  0.68831523  0.68663997  1
  Zn  Zn126  1  0.68707469  0.18840742  0.18348568  1
  Zn  Zn127  1  0.68884661  0.18368092  0.68728030  1
  Zn  Zn128  1  0.68599977  0.68564699  0.18973998  1
  Zn  Zn129  1  0.68990199  0.68710722  0.68958956  1
  Zn  Zn130  1  0.31522188  0.31349272  0.30958392  1
  Zn  Zn131  1  0.31601691  0.31134998  0.81382162  1
  Zn  Zn132  1  0.31302082  0.81203800  0.31114607  1
  Zn  Zn133  1  0.31197512  0.81261359  0.81278421  1
  Zn  Zn134  1  0.81669775  0.31074751  0.31248261  1
  Zn  Zn135  1  0.81318774  0.30982991  0.81028651  1
  Zn  Zn136  1  0.81330666  0.81562848  0.31247232  1
  Zn  Zn137  1  0.81027978  0.81356096  0.81232929  1
  Zn  Zn138  1  0.18633826  0.43878973  0.43724925  1
  Zn  Zn139  1  0.18761671  0.43616137  0.93918255  1
  Zn  Zn140  1  0.18765808  0.93823047  0.43526535  1
  Zn  Zn141  1  0.18742705  0.93621543  0.93854537  1
  Zn  Zn142  1  0.69064375  0.43950755  0.44340306  1
  Zn  Zn143  1  0.68961487  0.43891270  0.94077088  1
  Zn  Zn144  1  0.68815399  0.94208020  0.43809987  1
  Zn  Zn145  1  0.68687694  0.93565629  0.94144960  1
  Zn  Zn146  1  0.31361224  0.06198545  0.06080362  1
  Zn  Zn147  1  0.31003675  0.06224130  0.56081422  1
  Zn  Zn148  1  0.31131997  0.56065873  0.06438747  1
  Zn  Zn149  1  0.31151576  0.56388345  0.56132977  1
  Zn  Zn150  1  0.81324070  0.06009336  0.05939554  1
  Zn  Zn151  1  0.81176368  0.06867611  0.55876074  1
  Zn  Zn152  1  0.81189177  0.56170857  0.06241093  1
  Zn  Zn153  1  0.81181933  0.56563860  0.56291500  1
  Zn  Zn154  1  0.43551286  0.43702101  0.18828294  1
  Zn  Zn155  1  0.43876864  0.43707199  0.68880127  1
  Zn  Zn156  1  0.43277619  0.93845314  0.18653144  1
  Zn  Zn157  1  0.44319032  0.93616474  0.68750454  1
  Zn  Zn158  1  0.93453778  0.43776659  0.19157554  1
  Zn  Zn159  1  0.93860585  0.43644437  0.68981139  1
  Zn  Zn160  1  0.93713929  0.93822950  0.19363018  1
  Zn  Zn161  1  0.94097037  0.93585377  0.68699515  1
  Zn  Zn162  1  0.06469808  0.05919787  0.30981434  1
  Zn  Zn163  1  0.06049378  0.06032338  0.81222187  1
  Zn  Zn164  1  0.06051174  0.56244923  0.30917169  1
  Zn  Zn165  1  0.06195278  0.56036929  0.81163918  1
  Zn  Zn166  1  0.56183667  0.06495901  0.30971135  1
  Zn  Zn167  1  0.56118780  0.06486498  0.81325249  1
  Zn  Zn168  1  0.56530401  0.56238205  0.31147861  1
  Zn  Zn169  1  0.56290192  0.56374932  0.81494604  1
  Zn  Zn170  1  0.43754609  0.19118513  0.43537652  1
  Zn  Zn171  1  0.43698868  0.18744851  0.93625128  1
  Zn  Zn172  1  0.43744961  0.68877545  0.43671987  1
  Zn  Zn173  1  0.43747684  0.68725230  0.93865653  1
  Zn  Zn174  1  0.93712965  0.18786815  0.43766577  1
  Zn  Zn175  1  0.93541451  0.18620838  0.93692950  1
  Zn  Zn176  1  0.93871699  0.68967888  0.43922787  1
  Zn  Zn177  1  0.93801225  0.68639169  0.93818327  1
  Zn  Zn178  1  0.06238612  0.30921518  0.06081557  1
  Zn  Zn179  1  0.06001160  0.31113604  0.55927307  1
  Zn  Zn180  1  0.06226398  0.80724682  0.06068806  1
  Zn  Zn181  1  0.06288285  0.81210164  0.56087074  1
  Zn  Zn182  1  0.56212571  0.31092990  0.06105901  1
  Zn  Zn183  1  0.56224959  0.31559661  0.56406478  1
  Zn  Zn184  1  0.56069751  0.81285309  0.06388475  1
  Zn  Zn185  1  0.56145911  0.81536074  0.56276419  1
  O  O186  1  0.11472345  0.13226383  0.11141967  1
  O  O187  1  0.12109785  0.11843579  0.61836116  1
  O  O188  1  0.11765564  0.61841280  0.11862681  1
  O  O189  1  0.12115512  0.62031314  0.62112075  1
  O  O190  1  0.62004427  0.11987009  0.11374063  1
  O  O191  1  0.62026193  0.11761063  0.61642662  1
  O  O192  1  0.61705512  0.62511433  0.11805368  1
  O  O193  1  0.61865286  0.62119173  0.62100113  1
  O  O194  1  0.38422533  0.38114958  0.38183355  1
  O  O195  1  0.38362125  0.38051953  0.88023344  1
  O  O196  1  0.37988824  0.88100838  0.37989888  1
  O  O197  1  0.37524574  0.88165819  0.88112489  1
  O  O198  1  0.88094451  0.38520656  0.37552879  1
  O  O199  1  0.87909386  0.37935121  0.88078588  1
  O  O200  1  0.88236510  0.88284616  0.37765497  1
  O  O201  1  0.88432031  0.87329483  0.87835589  1
  O  O202  1  0.25665545  0.01269776  0.37872605  1
  O  O203  1  0.25485471  0.00488041  0.86925768  1
  O  O204  1  0.25698799  0.50769737  0.37589022  1
  O  O205  1  0.25503055  0.50377252  0.86963877  1
  O  O206  1  0.75611981  0.01098330  0.37315684  1
  O  O207  1  0.75352109  0.01236440  0.88469050  1
  O  O208  1  0.75913714  0.50805622  0.37807279  1
  O  O209  1  0.76010400  0.49989892  0.86742307  1
  O  O210  1  0.23743973  0.49774992  0.12603834  1
  O  O211  1  0.24528025  0.49484656  0.63094276  1
  O  O212  1  0.25286263  0.98354985  0.12029378  1
  O  O213  1  0.23968492  0.99997446  0.63126347  1
  O  O214  1  0.75436853  0.48241844  0.12360724  1
  O  O215  1  0.74597195  0.50163207  0.63609638  1
  O  O216  1  0.74259525  0.99827777  0.12507203  1
  O  O217  1  0.73473216  1.00372760  0.61772051  1
  O  O218  1  -0.00014651  0.37429503  0.26153042  1
  O  O219  1  0.00712628  0.36720401  0.75598024  1
  O  O220  1  0.00143761  0.87024690  0.26206842  1
  O  O221  1  0.00712707  0.86837361  0.75623031  1
  O  O222  1  0.49408524  0.36759267  0.26068722  1
  O  O223  1  0.50026133  0.36767375  0.75847410  1
  O  O224  1  0.50388317  0.87047798  0.25510358  1
  O  O225  1  0.50881367  0.86700502  0.75338783  1
  O  O226  1  0.49736880  0.13489562  0.24269710  1
  O  O227  1  0.49390178  0.13316177  0.74564259  1
  O  O228  1  0.49461998  0.63105217  0.24643192  1
  O  O229  1  0.49327069  0.62923380  0.74535573  1
  O  O230  1  0.99865962  0.12524332  0.23613114  1
  O  O231  1  0.99241979  0.12954637  0.74496305  1
  O  O232  1  0.99209368  0.62865023  0.23938531  1
  O  O233  1  0.99640308  0.63045682  0.74533622  1
  O  O234  1  0.36959829  0.25361196  0.00374983  1
  O  O235  1  0.37043339  0.25646490  0.50637845  1
  O  O236  1  0.36783567  0.75558499  -0.00078304  1
  O  O237  1  0.37085403  0.75572490  0.50467702  1
  O  O238  1  0.86681623  0.25591015  0.00622260  1
  O  O239  1  0.87462206  0.24755920  0.51501199  1
  O  O240  1  0.86689252  0.74682344  0.00845010  1
  O  O241  1  0.86541348  0.75056980  0.50646135  1
  O  O242  1  0.13206784  0.23978856  0.49976807  1
  O  O243  1  0.12938390  0.24026063  0.99278675  1
  O  O244  1  0.13082998  0.74510812  0.49098094  1
  O  O245  1  0.13035740  0.73758102  0.99357871  1
  O  O246  1  0.62326322  0.23797846  0.50056195  1
  O  O247  1  0.63491271  0.23827498  1.00518169  1
  O  O248  1  0.63179848  0.74784969  0.49694026  1
  O  O249  1  0.63099932  0.74370063  0.99556039  1
  O  O250  1  0.49527190  0.24649587  0.12997401  1
  O  O251  1  0.49341391  0.24641598  0.63270320  1
  O  O252  1  0.49735151  0.74279886  0.13204404  1
  O  O253  1  0.49555498  0.74476407  0.63010580  1
  O  O254  1  0.98996473  0.23875407  0.11940286  1
  O  O255  1  0.99326145  0.24297142  0.63114879  1
  O  O256  1  0.99080765  0.73918038  0.12494076  1
  O  O257  1  0.99588119  0.74479990  0.63130087  1
  O  O258  1  -0.00246783  0.26116613  0.37317887  1
  O  O259  1  0.00519342  0.25361984  0.86986847  1
  O  O260  1  0.00865875  0.75663263  0.37342953  1
  O  O261  1  0.00658277  0.75312267  0.87029712  1
  O  O262  1  0.50145147  0.25937346  0.36665349  1
  O  O263  1  0.49254861  0.25966929  0.86507748  1
  O  O264  1  0.50614706  0.75713106  0.37101917  1
  O  O265  1  0.50908064  0.74909933  0.87112815  1
  O  O266  1  0.24244749  0.13103974  0.49328685  1
  O  O267  1  0.24149050  0.12763834  0.99439996  1
  O  O268  1  0.24451667  0.63191490  0.49389342  1
  O  O269  1  0.24180034  0.62803770  0.99437190  1
  O  O270  1  0.74053173  0.12955129  0.48873818  1
  O  O271  1  0.74435539  0.13210455  0.99340875  1
  O  O272  1  0.74406685  0.63625827  0.49619653  1
  O  O273  1  0.74335787  0.63319205  1.00089903  1
  O  O274  1  0.25632911  0.36650757  0.00000365  1
  O  O275  1  0.25531067  0.37092568  0.50553622  1
  O  O276  1  0.25341819  0.86883117  0.00739258  1
  O  O277  1  0.25734270  0.86933078  0.50071283  1
  O  O278  1  0.75982844  0.36673025  0.00438610  1
  O  O279  1  0.75577588  0.37098037  0.50604397  1
  O  O280  1  0.75198954  0.86090355  0.00438679  1
  O  O281  1  0.74990012  0.86474560  0.50352174  1
  O  O282  1  0.12604149  0.49913665  0.23746627  1
  O  O283  1  0.13138142  0.49293003  0.74564764  1
  O  O284  1  0.13432013  0.99627558  0.25221130  1
  O  O285  1  0.13035778  0.99560157  0.74235536  1
  O  O286  1  0.63109782  0.50334729  0.24549164  1
  O  O287  1  0.63501178  0.50236165  0.74743673  1
  O  O288  1  0.62441562  0.99500429  0.24239353  1
  O  O289  1  0.61954143  1.00518626  0.73308815  1
  O  O290  1  0.36800320  0.00421208  0.25745608  1
  O  O291  1  0.37139520  0.00530969  0.75312446  1
  O  O292  1  0.37483593  0.50759721  0.25800514  1
  O  O293  1  0.36968438  0.50538106  0.75490218  1
  O  O294  1  0.87035843  0.00343995  0.26254950  1
  O  O295  1  0.88008138  0.01335442  0.74921879  1
  O  O296  1  0.86829627  0.50612730  0.26143416  1
  O  O297  1  0.86774244  0.50310315  0.75766808  1
  O  O298  1  0.11293811  0.37523494  0.37605007  1
  O  O299  1  0.12060686  0.36874665  0.87024579  1
  O  O300  1  0.11862670  0.86645819  0.37593343  1
  O  O301  1  0.12103986  0.86744894  0.86973652  1
  O  O302  1  0.61138577  0.37545134  0.38411324  1
  O  O303  1  0.61155133  0.37977824  0.87511076  1
  O  O304  1  0.61884592  0.87258843  0.37076415  1
  O  O305  1  0.62300757  0.86102909  0.87851030  1
  O  O306  1  0.38191448  0.13164281  0.12298535  1
  O  O307  1  0.37944248  0.13012243  0.62900017  1
  O  O308  1  0.38080544  0.62574917  0.13166702  1
  O  O309  1  0.37966231  0.63101955  0.63041693  1
  O  O310  1  0.88226166  0.13258785  0.12134565  1
  O  O311  1  0.87888937  0.13028413  0.63222476  1
  O  O312  1  0.88083364  0.62951540  0.12785460  1
  O  O313  1  0.88177671  0.63014879  0.63191073  1
  O  O314  1  0.25614594  0.24940946  0.11653357  1
  O  O315  1  0.25556777  0.25570670  0.62050156  1
  O  O316  1  0.25298347  0.75702639  0.11737935  1
  O  O317  1  0.25714851  0.75197917  0.61831638  1
  O  O318  1  0.75823099  0.25681164  0.11450924  1
  O  O319  1  0.76096370  0.24940190  0.62632467  1
  O  O320  1  0.75866728  0.74736943  0.11737214  1
  O  O321  1  0.75606119  0.74842064  0.61634265  1
  O  O322  1  0.25165754  0.24144553  0.38182714  1
  O  O323  1  0.24541598  0.24301762  0.87932057  1
  O  O324  1  0.24239853  0.74599016  0.37978021  1
  O  O325  1  0.24388582  0.74237089  0.87912011  1
  O  O326  1  0.74850739  0.24158714  0.37540361  1
  O  O327  1  0.75612486  0.24089482  0.88658268  1
  O  O328  1  0.74568927  0.74780794  0.38506086  1
  O  O329  1  0.74259961  0.74541454  0.88613024  1
  O  O330  1  0.00567075  0.11753849  0.00405043  1
  O  O331  1  0.01358500  0.13017603  0.50571983  1
  O  O332  1  0.01042613  0.62938691  0.00937999  1
  O  O333  1  0.00715381  0.62494693  0.50811235  1
  O  O334  1  0.50779704  0.12187366  0.00253859  1
  O  O335  1  0.50620868  0.12276894  0.50352161  1
  O  O336  1  0.50408811  0.61879497  0.00565075  1
  O  O337  1  0.50470298  0.62136364  0.50579727  1
  O  O338  1  0.49395593  0.38123477  0.49343524  1
  O  O339  1  0.49497758  0.37789422  0.99249062  1
  O  O340  1  0.49461861  0.88148885  0.49268584  1
  O  O341  1  0.49304816  0.88181518  0.99880719  1
  O  O342  1  0.99510748  0.37838666  0.49019982  1
  O  O343  1  0.98576192  0.36648185  0.99312027  1
  O  O344  1  0.99860760  0.87033038  0.48596131  1
  O  O345  1  1.00280475  0.88245361  0.99569397  1
  O  O346  1  0.49548829  0.49485012  0.38143301  1
  O  O347  1  0.49428912  0.49237297  0.88005194  1
  O  O348  1  0.49398828  0.99685006  0.37923820  1
  O  O349  1  0.49366958  0.99944710  0.88080161  1
  O  O350  1  0.99062667  0.49465264  0.37562247  1
  O  O351  1  0.98710313  0.49114274  0.86706735  1
  O  O352  1  0.99056358  0.99211101  0.37101295  1
  O  O353  1  0.99863898  0.99261183  0.88326996  1
  O  O354  1  -0.00742340  0.00976898  0.11457657  1
  O  O355  1  0.01438941  0.00638265  0.63005719  1
  O  O356  1  0.00490438  0.51132097  0.12878365  1
  O  O357  1  0.00691281  0.50644578  0.62702423  1
  O  O358  1  0.50402727  0.00665444  0.11847654  1
  O  O359  1  0.50760223  0.00803808  0.61788674  1
  O  O360  1  0.49931142  0.50458515  0.11756796  1
  O  O361  1  0.50396599  0.50656744  0.62078282  1
  O  O362  1  0.24684992  0.37879495  0.24602237  1
  O  O363  1  0.24597278  0.37863038  0.74538180  1
  O  O364  1  0.25200618  0.87201070  0.23297077  1
  O  O365  1  0.24347034  0.88094797  0.74805771  1
  O  O366  1  0.75603845  0.37061145  0.23241404  1
  O  O367  1  0.74832398  0.38534531  0.75013200  1
  O  O368  1  0.73992566  0.87660249  0.24788864  1
  O  O369  1  0.74142195  0.86974365  0.74678958  1
  O  O370  1  0.25195643  0.12832370  0.26238972  1
  O  O371  1  0.25527721  0.11991492  0.75480998  1
  O  O372  1  0.25705708  0.62393462  0.25691087  1
  O  O373  1  0.25479129  0.61901731  0.75577266  1
  O  O374  1  0.74941841  0.12569585  0.26012676  1
  O  O375  1  0.75856932  0.13134471  0.76250318  1
  O  O376  1  0.75700787  0.62715910  0.25957117  1
  O  O377  1  0.75774269  0.61483821  0.75368176  1
  O  O378  1  0.36583841  0.12094410  0.37710922  1
  O  O379  1  0.36875312  0.11896231  0.86931549  1
  O  O380  1  0.37022071  0.62039003  0.37141303  1
  O  O381  1  0.36935713  0.61867858  0.87017883  1
  O  O382  1  0.86724583  0.11970998  0.37440158  1
  O  O383  1  0.86819949  0.12275342  0.86684698  1
  O  O384  1  0.87206330  0.61991406  0.37104709  1
  O  O385  1  0.87622279  0.61468230  0.87096235  1
  O  O386  1  0.12153667  0.38675665  0.12061662  1
  O  O387  1  0.13026439  0.37894363  0.63035675  1
  O  O388  1  0.13943082  0.86585806  0.12347997  1
  O  O389  1  0.12533710  0.88331637  0.62969358  1
  O  O390  1  0.64302944  0.37290060  0.11531472  1
  O  O391  1  0.62564560  0.38516316  0.63027119  1
  O  O392  1  0.62491878  0.88169444  0.13092397  1
  O  O393  1  0.62302543  0.89402805  0.62144662  1
  O  O394  1  0.11851557  0.25508856  0.25349345  1
  O  O395  1  0.12106322  0.25328855  0.75462330  1
  O  O396  1  0.12526925  0.75139787  0.26225511  1
  O  O397  1  0.12051213  0.75407302  0.75495592  1
  O  O398  1  0.61028567  0.24762650  0.24787707  1
  O  O399  1  0.61000815  0.24884763  0.74428714  1
  O  O400  1  0.61903554  0.75601085  0.25696777  1
  O  O401  1  0.61967937  0.74305079  0.76284945  1
  O  O402  1  0.38636769  0.24800032  0.24221613  1
  O  O403  1  0.38257781  0.24427887  0.74411735  1
  O  O404  1  0.38305100  0.74250548  0.25099600  1
  O  O405  1  0.38035236  0.74447566  0.74564617  1
  O  O406  1  0.87783922  0.24653225  0.23448966  1
  O  O407  1  0.88078242  0.23989771  0.74328912  1
  O  O408  1  0.87363720  0.74374922  0.23955792  1
  O  O409  1  0.88156730  0.74316024  0.74597709  1
  O  O410  1  0.38104203  0.49622285  0.49583500  1
  O  O411  1  0.38015375  0.49446625  0.99425464  1
  O  O412  1  0.38033630  0.99586801  0.49493535  1
  O  O413  1  0.38041133  0.99550703  0.99260285  1
  O  O414  1  0.87719046  0.50301909  0.48897708  1
  O  O415  1  0.86765555  0.48919037  0.98880806  1
  O  O416  1  0.86887916  1.00036127  0.48626508  1
  O  O417  1  0.88756511  0.99692388  0.99533676  1
  O  O418  1  0.11472068  0.01106088  -0.00685670  1
  O  O419  1  0.13304640  0.01074055  0.51047795  1
  O  O420  1  0.12845716  0.51098760  0.00695716  1
  O  O421  1  0.12448262  0.50802275  0.50828078  1
  O  O422  1  0.61914526  0.00824012  0.00520693  1
  O  O423  1  0.61875420  0.01199908  0.50571466  1
  O  O424  1  0.61909727  0.50670154  0.00380264  1
  O  O425  1  0.61971926  0.50887852  0.50750211  1
  O  O426  1  0.37489246  0.36770310  0.11624363  1
  O  O427  1  0.36964810  0.37133018  0.61998528  1
  O  O428  1  0.36488606  0.87180534  0.11688241  1
  O  O429  1  0.37567807  0.86967392  0.61807704  1
  O  O430  1  0.86982817  0.36742911  0.11647497  1
  O  O431  1  0.87543014  0.36250513  0.62801760  1
  O  O432  1  0.87606855  0.86160930  0.12367014  1
  O  O433  1  0.87598712  0.86855148  0.62188572  1
  O  O434  1  0.13277391  0.12558916  0.38430796  1
  O  O435  1  0.12913310  0.12936476  0.88182555  1
  O  O436  1  0.12832346  0.63289024  0.37892778  1
  O  O437  1  0.12850690  0.62646512  0.88145124  1
  O  O438  1  0.63163638  0.12647802  0.38214152  1
  O  O439  1  0.63322317  0.11956842  0.88631324  1
  O  O440  1  0.62983916  0.63385086  0.38279655  1
  O  O441  1  0.62574975  0.63337284  0.88587771  1
