# generated using pymatgen
data_V93Zn93O256
_symmetry_space_group_name_H-M   'P 1'
_cell_length_a   17.04346924
_cell_length_b   17.04212291
_cell_length_c   17.04635609
_cell_angle_alpha   89.89495277
_cell_angle_beta   90.03676736
_cell_angle_gamma   89.96364961
_symmetry_Int_Tables_number   1
_chemical_formula_structural   V93Zn93O256
_chemical_formula_sum   'V93 Zn93 O256'
_cell_volume   4951.22136337
_cell_formula_units_Z   1
loop_
 _symmetry_equiv_pos_site_id
 _symmetry_equiv_pos_as_xyz
  1  'x, y, z'
loop_
 _atom_site_type_symbol
 _atom_site_label
 _atom_site_symmetry_multiplicity
 _atom_site_fract_x
 _atom_site_fract_y
 _atom_site_fract_z
 _atom_site_occupancy
  V  V0  1  0.49973616  0.62580033  0.12392784  1
  V  V1  1  0.25110492  0.62474511  0.37506840  1
  V  V2  1  0.25087460  0.24834914  0.00150407  1
  V  V3  1  0.87516828  0.12559753  0.25130116  1
  V  V4  1  0.37452450  0.75101025  0.62306298  1
  V  V5  1  0.74967352  0.37482607  0.62584276  1
  V  V6  1  0.62640370  0.25342722  0.37312787  1
  V  V7  1  0.24616834  0.87459677  0.13128409  1
  V  V8  1  0.74810144  0.37433744  0.12691705  1
  V  V9  1  0.49228044  0.00140224  -0.00513416  1
  V  V10  1  0.24964539  0.62570219  0.87446844  1
  V  V11  1  0.49327697  0.00086018  0.49658787  1
  V  V12  1  0.12489881  0.37353775  0.75170635  1
  V  V13  1  0.74925558  0.62511793  0.37436643  1
  V  V14  1  0.37468832  0.75006343  0.12253486  1
  V  V15  1  0.87673589  0.37474307  0.50085266  1
  V  V16  1  0.37635262  0.37096280  0.50592959  1
  V  V17  1  0.74947701  0.75136133  -0.00058766  1
  V  V18  1  0.50241296  0.25097079  0.25023462  1
  V  V19  1  0.87493545  0.12308995  0.75277260  1
  V  V20  1  -0.00013229  0.62575046  0.62420835  1
  V  V21  1  0.00011767  0.12434540  0.12656443  1
  V  V22  1  0.00605679  0.75376931  0.24844406  1
  V  V23  1  0.49300874  0.87958704  0.87395536  1
  V  V24  1  0.25573370  0.24938501  0.50812362  1
  V  V25  1  0.25341909  0.11918596  0.87819691  1
  V  V26  1  0.87478108  0.75067892  0.12317479  1
  V  V27  1  0.50000532  0.75253013  0.74922173  1
  V  V28  1  0.74962864  0.75011875  0.49782104  1
  V  V29  1  0.62390464  0.12580862  0.50133114  1
  V  V30  1  0.75003616  0.00105007  0.24992070  1
  V  V31  1  0.12581428  0.12418412  0.00131433  1
  V  V32  1  0.00051624  0.24934170  0.75217425  1
  V  V33  1  0.12642731  0.37388423  0.25053292  1
  V  V34  1  0.62522926  0.75111904  0.37343758  1
  V  V35  1  0.49325291  0.87987166  0.37342209  1
  V  V36  1  0.37535026  0.49938119  0.87572440  1
  V  V37  1  -0.00563069  -0.00064709  -0.00297600  1
  V  V38  1  0.12506515  -0.00436035  0.13411953  1
  V  V39  1  0.62390622  -0.00013523  0.12480337  1
  V  V40  1  0.00042491  0.49967424  0.49903511  1
  V  V41  1  0.49990642  0.37463230  0.87501429  1
  V  V42  1  0.12581961  0.62466437  0.49775540  1
  V  V43  1  0.00036384  0.75065425  0.74920274  1
  V  V44  1  0.12402240  0.62339535  0.00011234  1
  V  V45  1  0.75240120  -0.00057600  0.75255512  1
  V  V46  1  0.49539530  0.12769505  0.62519337  1
  V  V47  1  0.62463460  0.12496490  -0.00016646  1
  V  V48  1  0.24965148  0.74966890  0.49963452  1
  V  V49  1  -0.00627339  0.87827470  0.87475962  1
  V  V50  1  0.12488657  0.12431311  0.50290613  1
  V  V51  1  0.62438775  0.62506749  -0.00105140  1
  V  V52  1  0.00612581  0.87514751  0.37100952  1
  V  V53  1  0.25569906  0.11835396  0.37637154  1
  V  V54  1  0.37512205  0.62448048  0.24900005  1
  V  V55  1  0.00086700  0.24946748  0.25109826  1
  V  V56  1  0.87435298  -0.00012192  0.37506642  1
  V  V57  1  0.62442950  0.87551646  0.24992034  1
  V  V58  1  0.24926156  0.87611273  0.62557783  1
  V  V59  1  0.74830945  0.49658348  0.25030796  1
  V  V60  1  0.12430746  0.49901293  0.12572254  1
  V  V61  1  0.87533933  0.62526375  0.74897901  1
  V  V62  1  0.24996605  0.49939245  0.74947916  1
  V  V63  1  0.49455908  0.25072304  0.74645691  1
  V  V64  1  0.37621266  0.49994371  0.37473806  1
  V  V65  1  0.87466284  0.49987268  0.37555193  1
  V  V66  1  0.50155002  0.37525780  0.37208386  1
  V  V67  1  0.25257478  -0.00128278  0.75404868  1
  V  V68  1  0.37485339  0.62523651  0.74931415  1
  V  V69  1  0.75415805  0.11970769  0.87647614  1
  V  V70  1  0.87451154  0.87544079  0.49816632  1
  V  V71  1  0.50251778  0.62495363  0.62139644  1
  V  V72  1  0.62516220  0.49823609  0.12677068  1
  V  V73  1  0.37545269  0.37393172  0.00078881  1
  V  V74  1  -0.00009051  0.62525993  0.12408401  1
  V  V75  1  0.62343192  0.75089675  0.87352146  1
  V  V76  1  0.74912518  0.87453658  0.12390317  1
  V  V77  1  0.12648196  0.25067647  0.37569272  1
  V  V78  1  0.49884813  0.12534080  0.12508884  1
  V  V79  1  0.00023953  0.12355681  0.62595894  1
  V  V80  1  0.25069988  0.37398966  0.12639256  1
  V  V81  1  0.12699470  0.49894547  0.62462953  1
  V  V82  1  0.24985153  0.75083730  -0.00035821  1
  V  V83  1  0.37522068  0.11697219  0.25458670  1
  V  V84  1  0.12385259  0.75018565  0.87420647  1
  V  V85  1  0.75062308  0.24900755  0.50018131  1
  V  V86  1  0.37561221  0.12380797  0.75334716  1
  V  V87  1  0.74978300  0.62584077  0.87270321  1
  V  V88  1  0.87521906  0.24907159  0.62580891  1
  V  V89  1  0.62563536  0.37580636  0.74863219  1
  V  V90  1  0.87600696  0.49803747  0.87578914  1
  V  V91  1  0.74852660  0.87571023  0.62422413  1
  V  V92  1  0.75126794  0.25031282  0.00047860  1
  Zn  Zn93  1  0.00134435  0.37569317  0.37455932  1
  Zn  Zn94  1  0.74962946  0.50133129  0.74787041  1
  Zn  Zn95  1  0.50204040  0.49917924  0.49971960  1
  Zn  Zn96  1  0.25056012  -0.00707864  0.25697734  1
  Zn  Zn97  1  0.36971743  0.88059994  -0.00314571  1
  Zn  Zn98  1  0.87012566  0.87983403  -0.00409255  1
  Zn  Zn99  1  0.87626819  0.62455480  0.24905493  1
  Zn  Zn100  1  0.74990569  0.12493856  0.37554878  1
  Zn  Zn101  1  -0.00049609  -0.00196098  0.50167933  1
  Zn  Zn102  1  0.50012906  0.75152671  0.24912422  1
  Zn  Zn103  1  -0.00033041  0.49597298  0.00077503  1
  Zn  Zn104  1  0.24979210  0.49843201  0.25125225  1
  Zn  Zn105  1  0.50092403  0.49828088  -0.00018392  1
  Zn  Zn106  1  0.62744617  0.50133242  0.62102752  1
  Zn  Zn107  1  0.37088299  0.87999327  0.49326386  1
  Zn  Zn108  1  0.12402956  0.24908712  0.87687288  1
  Zn  Zn109  1  0.87533077  0.74939760  0.62317407  1
  Zn  Zn110  1  0.37538817  0.25106790  0.12782741  1
  Zn  Zn111  1  0.12337438  0.87703131  0.75101862  1
  Zn  Zn112  1  0.62508718  0.25027021  0.87474849  1
  Zn  Zn113  1  0.12308038  -0.00095215  0.62710342  1
  Zn  Zn114  1  0.87614986  0.25204269  0.12753573  1
  Zn  Zn115  1  0.25719050  0.37061632  0.62947734  1
  Zn  Zn116  1  0.62343962  0.87772035  0.74946304  1
  Zn  Zn117  1  0.62344298  0.00047082  0.62503820  1
  Zn  Zn118  1  0.87732709  0.37439806  0.00034247  1
  Zn  Zn119  1  -0.00065601  0.37228608  0.87901435  1
  Zn  Zn120  1  0.12790146  0.75319804  0.37038031  1
  Zn  Zn121  1  0.62444477  0.62290698  0.49741742  1
  Zn  Zn122  1  0.18823103  0.18613529  0.18830310  1
  Zn  Zn123  1  0.18742598  0.18704680  0.68941459  1
  Zn  Zn124  1  0.18792304  0.68615573  0.18721630  1
  Zn  Zn125  1  0.18555924  0.68789545  0.68674298  1
  Zn  Zn126  1  0.68639902  0.18679023  0.18792309  1
  Zn  Zn127  1  0.68487425  0.18826938  0.68775403  1
  Zn  Zn128  1  0.68770727  0.68627819  0.18835620  1
  Zn  Zn129  1  0.68699762  0.69041690  0.68719300  1
  Zn  Zn130  1  0.31389620  0.30835642  0.31581513  1
  Zn  Zn131  1  0.31171050  0.30932113  0.81569837  1
  Zn  Zn132  1  0.31387076  0.80817861  0.31020701  1
  Zn  Zn133  1  0.31323686  0.81197845  0.81157717  1
  Zn  Zn134  1  0.81365115  0.31434238  0.31262572  1
  Zn  Zn135  1  0.81195107  0.31046265  0.81379958  1
  Zn  Zn136  1  0.81616368  0.81241960  0.31012636  1
  Zn  Zn137  1  0.81370527  0.81171663  0.81067409  1
  Zn  Zn138  1  0.19048977  0.43659663  0.43739322  1
  Zn  Zn139  1  0.18846909  0.43729136  0.93893200  1
  Zn  Zn140  1  0.18603631  0.93804993  0.44019499  1
  Zn  Zn141  1  0.18161386  0.93665014  0.94104198  1
  Zn  Zn142  1  0.68651595  0.43800034  0.43986530  1
  Zn  Zn143  1  0.68883290  0.43793731  0.93678116  1
  Zn  Zn144  1  0.68363745  0.93937531  0.43729614  1
  Zn  Zn145  1  0.68126406  0.93730350  0.93677130  1
  Zn  Zn146  1  0.31269096  0.06308986  0.06895101  1
  Zn  Zn147  1  0.31348669  0.06304365  0.56693649  1
  Zn  Zn148  1  0.31123387  0.56051835  0.06246473  1
  Zn  Zn149  1  0.31490667  0.55979449  0.56093885  1
  Zn  Zn150  1  0.81346582  0.06381032  0.06529714  1
  Zn  Zn151  1  0.81241311  0.06153385  0.56312595  1
  Zn  Zn152  1  0.81327374  0.56444939  0.06050571  1
  Zn  Zn153  1  0.81165640  0.56227250  0.56232996  1
  Zn  Zn154  1  0.43730763  0.43806468  0.18821361  1
  Zn  Zn155  1  0.43917842  0.44044233  0.68771177  1
  Zn  Zn156  1  0.43592505  0.93595014  0.18411546  1
  Zn  Zn157  1  0.43533620  0.94032842  0.68598083  1
  Zn  Zn158  1  0.93679761  0.43675229  0.18757776  1
  Zn  Zn159  1  0.93847535  0.43801566  0.68862759  1
  Zn  Zn160  1  0.93592169  0.93667076  0.18680873  1
  Zn  Zn161  1  0.93546114  0.93816618  0.68745779  1
  Zn  Zn162  1  0.06271022  0.06317825  0.31615741  1
  Zn  Zn163  1  0.06581391  0.06189602  0.81370760  1
  Zn  Zn164  1  0.06248439  0.56356545  0.31101275  1
  Zn  Zn165  1  0.06082264  0.56167136  0.81261945  1
  Zn  Zn166  1  0.56325409  0.06349531  0.31407698  1
  Zn  Zn167  1  0.56767225  0.06247990  0.81321993  1
  Zn  Zn168  1  0.56271780  0.56336343  0.31005370  1
  Zn  Zn169  1  0.56161684  0.56198603  0.81054427  1
  Zn  Zn170  1  0.43711820  0.18805305  0.43691992  1
  Zn  Zn171  1  0.43643556  0.18934845  0.93538110  1
  Zn  Zn172  1  0.43722174  0.69182424  0.43650452  1
  Zn  Zn173  1  0.43768167  0.68849327  0.93801003  1
  Zn  Zn174  1  0.93876781  0.18742206  0.43669671  1
  Zn  Zn175  1  0.93730799  0.18689313  0.93842542  1
  Zn  Zn176  1  0.93634797  0.68842337  0.43523577  1
  Zn  Zn177  1  0.93676318  0.68781389  0.93743031  1
  Zn  Zn178  1  0.06289647  0.31186115  0.06290999  1
  Zn  Zn179  1  0.06384796  0.31184512  0.56477076  1
  Zn  Zn180  1  0.06270011  0.81341071  0.06052125  1
  Zn  Zn181  1  0.06321167  0.81172115  0.56008595  1
  Zn  Zn182  1  0.56416087  0.31282883  0.06282637  1
  Zn  Zn183  1  0.56233640  0.31165854  0.56224062  1
  Zn  Zn184  1  0.56071467  0.81373161  0.05997576  1
  Zn  Zn185  1  0.56337068  0.81305820  0.55865676  1
  O  O186  1  0.12046896  0.11629824  0.12032292  1
  O  O187  1  0.12012747  0.12608379  0.61693679  1
  O  O188  1  0.12057189  0.61905780  0.11944817  1
  O  O189  1  0.11995627  0.61866614  0.61854957  1
  O  O190  1  0.61852902  0.11925190  0.11988412  1
  O  O191  1  0.61288448  0.12550455  0.61972621  1
  O  O192  1  0.62107180  0.61759626  0.11899494  1
  O  O193  1  0.61344197  0.62664277  0.62416729  1
  O  O194  1  0.38333821  0.37854337  0.38273122  1
  O  O195  1  0.37963297  0.37968012  0.87992604  1
  O  O196  1  0.38870723  0.87117261  0.37327096  1
  O  O197  1  0.38860637  0.87086542  0.87706181  1
  O  O198  1  0.87681126  0.38168718  0.38327652  1
  O  O199  1  0.87429898  0.38555349  0.87505688  1
  O  O200  1  0.88262096  0.88069669  0.37949543  1
  O  O201  1  0.88925475  0.87101116  0.87669734  1
  O  O202  1  0.24368531  0.01345242  0.37436705  1
  O  O203  1  0.24426212  0.00883824  0.86849173  1
  O  O204  1  0.25836857  0.50682519  0.37432293  1
  O  O205  1  0.25544727  0.50626921  0.86914680  1
  O  O206  1  0.75519362  0.00097453  0.36773733  1
  O  O207  1  0.74349714  0.00947732  0.86748572  1
  O  O208  1  0.75283645  0.50251198  0.36718157  1
  O  O209  1  0.75796266  0.50722766  0.87170004  1
  O  O210  1  0.24288165  0.49220180  0.12761202  1
  O  O211  1  0.24472361  0.49820723  0.63193737  1
  O  O212  1  0.24143466  0.99173077  0.12605885  1
  O  O213  1  0.24980059  0.99192190  0.63386941  1
  O  O214  1  0.74471433  0.49503660  0.13036152  1
  O  O215  1  0.74856124  0.49077246  0.62831035  1
  O  O216  1  0.74344555  0.99502429  0.12931602  1
  O  O217  1  0.74754491  0.99212493  0.63217268  1
  O  O218  1  0.00744086  0.36762127  0.25098326  1
  O  O219  1  0.01008985  0.36853765  0.75045704  1
  O  O220  1  -0.00680016  0.86613656  0.25946799  1
  O  O221  1  0.00110942  0.87138131  0.75721504  1
  O  O222  1  0.49290790  0.36342312  0.26146409  1
  O  O223  1  0.50454667  0.36770478  0.75265959  1
  O  O224  1  0.50605172  0.87700745  0.25669740  1
  O  O225  1  0.49964148  0.87226967  0.75618627  1
  O  O226  1  0.49384551  0.13069219  0.24694930  1
  O  O227  1  0.49490502  0.12980896  0.74638647  1
  O  O228  1  0.49343366  0.62716953  0.24163823  1
  O  O229  1  0.49429193  0.63183139  0.74203018  1
  O  O230  1  0.99554011  0.12981458  0.24625435  1
  O  O231  1  0.99545873  0.12847180  0.74669564  1
  O  O232  1  0.99763113  0.63423515  0.24277337  1
  O  O233  1  0.99576560  0.63043699  0.74374035  1
  O  O234  1  0.36915357  0.25604360  0.00233019  1
  O  O235  1  0.36648148  0.25890365  0.49378855  1
  O  O236  1  0.36648088  0.75005228  0.00573265  1
  O  O237  1  0.36678469  0.75388776  0.50636455  1
  O  O238  1  0.86123351  0.24808581  0.00497167  1
  O  O239  1  0.87082853  0.25415032  0.50583588  1
  O  O240  1  0.86656142  0.75237477  0.00518367  1
  O  O241  1  0.86728625  0.75757693  0.49996980  1
  O  O242  1  0.13354975  0.24186939  0.49692756  1
  O  O243  1  0.13293634  0.24134333  1.00007568  1
  O  O244  1  0.13257686  0.74183530  0.49781288  1
  O  O245  1  0.13066348  0.74330874  0.99412389  1
  O  O246  1  0.63003808  0.24548092  0.49255070  1
  O  O247  1  0.63568341  0.24360428  1.00019301  1
  O  O248  1  0.63260640  0.74903620  0.49061426  1
  O  O249  1  0.62973171  0.74458452  0.99375507  1
  O  O250  1  0.50273865  0.24497584  0.13550232  1
  O  O251  1  0.50356853  0.24008400  0.63556338  1
  O  O252  1  0.49352573  0.74414177  0.12420307  1
  O  O253  1  0.49482155  0.74527013  0.62861960  1
  O  O254  1  0.99962574  0.24176095  0.13275202  1
  O  O255  1  0.99445225  0.24349337  0.63187190  1
  O  O256  1  0.99583577  0.74720939  0.13010947  1
  O  O257  1  0.99916224  0.74394051  0.63050005  1
  O  O258  1  0.00873586  0.25128724  0.36948114  1
  O  O259  1  0.00279118  0.25037974  0.86731305  1
  O  O260  1  0.00011559  0.75758954  0.36577490  1
  O  O261  1  0.00488073  0.75710125  0.86981185  1
  O  O262  1  0.50699664  0.25561538  0.36938423  1
  O  O263  1  0.50249762  0.25536713  0.86394567  1
  O  O264  1  0.50689147  0.76120551  0.37306848  1
  O  O265  1  0.50391086  0.75766862  0.86943414  1
  O  O266  1  0.24639891  0.13008480  0.49644550  1
  O  O267  1  0.24768880  0.12641747  0.99483230  1
  O  O268  1  0.24623322  0.62964359  0.49526979  1
  O  O269  1  0.24420024  0.63027484  0.99374900  1
  O  O270  1  0.74336935  0.13200448  0.49952337  1
  O  O271  1  0.74573243  0.12952441  0.99533330  1
  O  O272  1  0.74887205  0.63206625  0.49274590  1
  O  O273  1  0.74329999  0.63189105  0.99298826  1
  O  O274  1  0.25521010  0.36824027  0.00540376  1
  O  O275  1  0.25894103  0.36576664  0.50094922  1
  O  O276  1  0.25062586  0.86938413  0.00789704  1
  O  O277  1  0.25131470  0.87110992  0.50833151  1
  O  O278  1  0.75045773  0.36529546  0.00682612  1
  O  O279  1  0.75653494  0.36818415  0.50585445  1
  O  O280  1  0.74823286  0.87026830  0.00501212  1
  O  O281  1  0.75359639  0.87177069  0.50604881  1
  O  O282  1  0.12687582  0.49244197  0.24408504  1
  O  O283  1  0.13002833  0.49287572  0.74521996  1
  O  O284  1  0.12725338  1.00615071  0.23738569  1
  O  O285  1  0.13957591  0.99974413  0.74702500  1
  O  O286  1  0.63593946  0.50521746  0.23761261  1
  O  O287  1  0.62493247  0.48655363  0.74674394  1
  O  O288  1  0.62982839  0.99635253  0.24411246  1
  O  O289  1  0.63846283  0.99898679  0.74619186  1
  O  O290  1  0.37302904  0.01354647  0.24464865  1
  O  O291  1  0.36327522  0.01069837  0.74772992  1
  O  O292  1  0.37337026  0.50639676  0.25690129  1
  O  O293  1  0.36956674  0.50527308  0.75582537  1
  O  O294  1  0.86929654  0.00540176  0.25497926  1
  O  O295  1  0.86049069  0.00743186  0.74552531  1
  O  O296  1  0.86479778  0.50069818  0.25588120  1
  O  O297  1  0.87405406  0.50644988  0.75863788  1
  O  O298  1  0.12561990  0.36811119  0.36935343  1
  O  O299  1  0.12557421  0.37425182  0.86204721  1
  O  O300  1  0.11060655  0.87439611  0.38074234  1
  O  O301  1  0.11433477  0.86768628  0.87412413  1
  O  O302  1  0.61476532  0.36319502  0.38131919  1
  O  O303  1  0.61964233  0.37416406  0.86546240  1
  O  O304  1  0.61686396  0.87069334  0.36867440  1
  O  O305  1  0.61265620  0.86825956  0.87291269  1
  O  O306  1  0.38138583  0.12996356  0.13565093  1
  O  O307  1  0.38628328  0.12274841  0.63752074  1
  O  O308  1  0.37948921  0.62887047  0.12841802  1
  O  O309  1  0.38219432  0.63040193  0.62980625  1
  O  O310  1  0.88220506  0.12656188  0.13394928  1
  O  O311  1  0.88010681  0.13050129  0.63128997  1
  O  O312  1  0.88155707  0.63252802  0.12449778  1
  O  O313  1  0.88238895  0.62536331  0.63049613  1
  O  O314  1  0.25182893  0.25545271  0.11904880  1
  O  O315  1  0.24806198  0.24932442  0.61208864  1
  O  O316  1  0.25281221  0.75674366  0.11958520  1
  O  O317  1  0.25420550  0.75731110  0.62100846  1
  O  O318  1  0.74748298  0.25827607  0.11914206  1
  O  O319  1  0.75585570  0.25398066  0.62013272  1
  O  O320  1  0.75335258  0.75488631  0.11925035  1
  O  O321  1  0.75156660  0.76012951  0.61849590  1
  O  O322  1  0.24538775  0.23941331  0.38607945  1
  O  O323  1  0.24834073  0.23700875  0.88230274  1
  O  O324  1  0.24860274  0.74455137  0.38106878  1
  O  O325  1  0.24475990  0.74482386  0.87871643  1
  O  O326  1  0.74088835  0.25113802  0.37992179  1
  O  O327  1  0.74780462  0.24107786  0.88489093  1
  O  O328  1  0.74562063  0.74600432  0.37750888  1
  O  O329  1  0.74391655  0.74616904  0.87898673  1
  O  O330  1  0.00498966  0.11800426  0.00519144  1
  O  O331  1  0.01022886  0.12618695  0.50627030  1
  O  O332  1  0.00752362  0.62483671  0.00641158  1
  O  O333  1  0.00519578  0.61974771  0.50408527  1
  O  O334  1  0.50425891  0.12068625  0.00327770  1
  O  O335  1  0.50198863  0.12150133  0.50726039  1
  O  O336  1  0.50667466  0.62202515  0.00548944  1
  O  O337  1  0.49948045  0.62648069  0.51072514  1
  O  O338  1  0.49244926  0.37120788  0.48918844  1
  O  O339  1  0.49483184  0.37486458  0.99334267  1
  O  O340  1  0.49830653  0.88411634  0.49213142  1
  O  O341  1  0.49821698  0.88489735  0.99175980  1
  O  O342  1  0.99476698  0.38109787  0.50032877  1
  O  O343  1  0.99566225  0.37653329  0.99730127  1
  O  O344  1  0.99290094  0.87509795  0.49121500  1
  O  O345  1  0.99872558  0.88280867  0.99222499  1
  O  O346  1  0.49666584  0.48918713  0.37267490  1
  O  O347  1  0.49293122  0.49314109  0.87521423  1
  O  O348  1  0.50611880  0.99165979  0.38430904  1
  O  O349  1  0.50749601  0.99238977  0.88374194  1
  O  O350  1  0.99357182  0.49919335  0.38143300  1
  O  O351  1  0.98834367  0.49872131  0.87654231  1
  O  O352  1  0.99375314  0.99153457  0.37618871  1
  O  O353  1  1.00878674  0.99093396  0.88570328  1
  O  O354  1  0.00722768  0.00310592  0.11934310  1
  O  O355  1  0.00258143  0.00737301  0.62312557  1
  O  O356  1  0.00583398  0.50691032  0.12455555  1
  O  O357  1  0.00660108  0.50562543  0.61909517  1
  O  O358  1  0.50531288  0.00549164  0.11631418  1
  O  O359  1  0.50226753  0.00957523  0.61805996  1
  O  O360  1  0.51076063  0.50414475  0.12490270  1
  O  O361  1  0.50119700  0.51392569  0.62431761  1
  O  O362  1  0.24519802  0.37265636  0.24520620  1
  O  O363  1  0.24370532  0.37877863  0.74934440  1
  O  O364  1  0.25464506  0.87544258  0.23668116  1
  O  O365  1  0.25022223  0.88259104  0.74395665  1
  O  O366  1  0.75252793  0.38552626  0.24083722  1
  O  O367  1  0.73968858  0.37158999  0.74466505  1
  O  O368  1  0.74451622  0.88113740  0.24367726  1
  O  O369  1  0.75078697  0.88249490  0.74237447  1
  O  O370  1  0.25893595  0.12667209  0.26024323  1
  O  O371  1  0.25664427  0.11993757  0.75691409  1
  O  O372  1  0.25712820  0.62393010  0.25687302  1
  O  O373  1  0.25499747  0.62026884  0.75473958  1
  O  O374  1  0.75581661  0.11884178  0.25129411  1
  O  O375  1  0.75302156  0.11997111  0.75709132  1
  O  O376  1  0.75260978  0.61378740  0.25468887  1
  O  O377  1  0.75612954  0.62559812  0.75513266  1
  O  O378  1  0.36643755  0.12893946  0.36774031  1
  O  O379  1  0.36514706  0.12668700  0.86568654  1
  O  O380  1  0.37164826  0.62061651  0.36989653  1
  O  O381  1  0.36961957  0.62057393  0.86890756  1
  O  O382  1  0.87371088  0.11853737  0.36928524  1
  O  O383  1  0.86139719  0.12958725  0.86955135  1
  O  O384  1  0.86708988  0.61698789  0.37358223  1
  O  O385  1  0.86967856  0.61854170  0.86911342  1
  O  O386  1  0.13132524  0.37934863  0.13112454  1
  O  O387  1  0.12819069  0.37993561  0.63634558  1
  O  O388  1  0.13439753  0.88381271  0.11910246  1
  O  O389  1  0.13806443  0.87565011  0.62659029  1
  O  O390  1  0.63626155  0.38658173  0.11893528  1
  O  O391  1  0.62973664  0.37366960  0.63342556  1
  O  O392  1  0.62896266  0.88044445  0.12971574  1
  O  O393  1  0.63740882  0.87622085  0.62558144  1
  O  O394  1  0.12067594  0.25352892  0.25607579  1
  O  O395  1  0.12050052  0.25825014  0.75088641  1
  O  O396  1  0.11075401  0.74689500  0.24984331  1
  O  O397  1  0.11812417  0.75108302  0.75655365  1
  O  O398  1  0.61342542  0.24261044  0.26070531  1
  O  O399  1  0.61477701  0.25931775  0.75133018  1
  O  O400  1  0.62399490  0.75788063  0.25499915  1
  O  O401  1  0.61727822  0.75340933  0.75627613  1
  O  O402  1  0.38766300  0.23985220  0.25188743  1
  O  O403  1  0.38536558  0.24007625  0.75394125  1
  O  O404  1  0.37781224  0.74189848  0.24000603  1
  O  O405  1  0.37997422  0.74400191  0.74318922  1
  O  O406  1  0.88176032  0.24413898  0.25044602  1
  O  O407  1  0.87979749  0.24342098  0.74469517  1
  O  O408  1  0.88467047  0.74747918  0.24136003  1
  O  O409  1  0.88272342  0.74279931  0.74747619  1
  O  O410  1  0.37905393  0.48995940  0.49189176  1
  O  O411  1  0.37616397  0.49260378  0.99299270  1
  O  O412  1  0.38873556  1.00045639  0.50439322  1
  O  O413  1  0.38912956  1.00233711  1.00496795  1
  O  O414  1  0.88044713  0.49405801  0.49538418  1
  O  O415  1  0.87487398  0.49983454  0.98763408  1
  O  O416  1  0.87569422  0.99399264  0.49291316  1
  O  O417  1  0.89025276  1.00021715  1.00587324  1
  O  O418  1  0.11525476  0.00546856  0.01086124  1
  O  O419  1  0.12425695  0.01464847  0.50350978  1
  O  O420  1  0.12451715  0.50615875  0.00690261  1
  O  O421  1  0.12098454  0.50414017  0.50487437  1
  O  O422  1  0.61533342  0.00636041  0.00611693  1
  O  O423  1  0.61377488  0.00831500  0.50187802  1
  O  O424  1  0.62627655  0.50659440  0.00993809  1
  O  O425  1  0.61939225  0.50418105  0.50303833  1
  O  O426  1  0.36966470  0.37348795  0.11924258  1
  O  O427  1  0.37717885  0.38012587  0.61053148  1
  O  O428  1  0.36512250  0.86914891  0.12017516  1
  O  O429  1  0.36304163  0.87004412  0.62468235  1
  O  O430  1  0.86067706  0.37412351  0.12234240  1
  O  O431  1  0.87059479  0.36834838  0.62108996  1
  O  O432  1  0.86624647  0.86914162  0.12168731  1
  O  O433  1  0.86353471  0.87456630  0.61823572  1
  O  O434  1  0.13302123  0.13051298  0.38480541  1
  O  O435  1  0.13649962  0.12560480  0.88246141  1
  O  O436  1  0.13260321  0.62568158  0.38123535  1
  O  O437  1  0.13043598  0.62950070  0.87930788  1
  O  O438  1  0.62478506  0.13721836  0.38242220  1
  O  O439  1  0.63624347  0.12838697  0.88135489  1
  O  O440  1  0.63106651  0.63287088  0.37332738  1
  O  O441  1  0.62892081  0.63022582  0.87823707  1
