# generated using pymatgen
data_V93Zn93O256
_symmetry_space_group_name_H-M   'P 1'
_cell_length_a   17.04724778
_cell_length_b   17.04788739
_cell_length_c   17.04771181
_cell_angle_alpha   90.00721142
_cell_angle_beta   90.01242511
_cell_angle_gamma   89.95373161
_symmetry_Int_Tables_number   1
_chemical_formula_structural   V93Zn93O256
_chemical_formula_sum   'V93 Zn93 O256'
_cell_volume   4954.39674118
_cell_formula_units_Z   1
loop_
 _symmetry_equiv_pos_site_id
 _symmetry_equiv_pos_as_xyz
  1  'x, y, z'
loop_
 _atom_site_type_symbol
 _atom_site_label
 _atom_site_symmetry_multiplicity
 _atom_site_fract_x
 _atom_site_fract_y
 _atom_site_fract_z
 _atom_site_occupancy
  V  V0  1  0.37694383  0.25313368  0.62495702  1
  V  V1  1  0.87484638  0.25001888  0.62393746  1
  V  V2  1  -0.00017306  0.50080272  0.50052187  1
  V  V3  1  0.50050796  0.87591016  0.37516914  1
  V  V4  1  0.62580898  0.24992277  0.37461265  1
  V  V5  1  0.74860006  0.37428420  0.62488262  1
  V  V6  1  0.74955662  0.62471729  0.87664421  1
  V  V7  1  0.49881920  0.74940362  0.24997906  1
  V  V8  1  0.12777829  0.24524432  0.37353401  1
  V  V9  1  0.50139327  0.12518013  0.12527468  1
  V  V10  1  0.49216838  0.37813884  0.37612462  1
  V  V11  1  0.00073486  0.62433177  0.12391127  1
  V  V12  1  0.62355529  0.49930014  0.62472475  1
  V  V13  1  0.50049749  0.37053611  0.87245173  1
  V  V14  1  0.12497969  0.75034096  0.87521524  1
  V  V15  1  0.25037110  0.12676472  0.87596230  1
  V  V16  1  0.87673993  -0.00067233  0.87373866  1
  V  V17  1  0.25296612  0.49896194  0.25749147  1
  V  V18  1  0.12486496  0.62485482  0.00169229  1
  V  V19  1  0.74946383  0.25034161  -0.00041402  1
  V  V20  1  -0.00025870  0.62396041  0.62549399  1
  V  V21  1  0.49867316  0.74895430  0.75080399  1
  V  V22  1  0.62504664  0.87464464  0.25034507  1
  V  V23  1  0.24955660  0.74996110  0.50026576  1
  V  V24  1  0.50057446  0.00049382  0.50070446  1
  V  V25  1  0.24576734  0.49293192  0.75018405  1
  V  V26  1  0.25034155  0.62452839  0.87576837  1
  V  V27  1  -0.00005882  0.12717030  0.12457927  1
  V  V28  1  0.75141932  0.87418883  0.12452188  1
  V  V29  1  0.25107854  0.24741788  0.49750130  1
  V  V30  1  0.87442975  0.74863672  0.62482705  1
  V  V31  1  0.87658604  0.12104376  0.25227230  1
  V  V32  1  0.37485981  0.75108759  0.62557072  1
  V  V33  1  0.62527507  0.12507728  0.00024865  1
  V  V34  1  0.75369973  0.12030017  0.37454434  1
  V  V35  1  0.12576309  0.74848090  0.37635722  1
  V  V36  1  0.12606707  0.87554123  0.74877960  1
  V  V37  1  0.12830864  0.00034393  0.12485176  1
  V  V38  1  0.00038928  0.00016192  -0.00130993  1
  V  V39  1  0.61980703  0.36837817  0.75018632  1
  V  V40  1  0.50010391  0.50034171  0.00169828  1
  V  V41  1  0.62515333  0.74853233  0.87638130  1
  V  V42  1  0.00049755  0.87635120  0.87392726  1
  V  V43  1  0.37384076  0.37571093  0.00180053  1
  V  V44  1  0.37522279  0.87537381  0.00168483  1
  V  V45  1  0.50148153  0.12913869  0.62725362  1
  V  V46  1  0.37512929  0.87629332  0.50056078  1
  V  V47  1  0.00421881  0.37576229  0.86935764  1
  V  V48  1  0.00155977  0.25138098  0.74890753  1
  V  V49  1  0.37902110  0.12944022  0.75023553  1
  V  V50  1  0.87349264  0.62464914  0.25374743  1
  V  V51  1  0.62526189  0.37561970  0.24978190  1
  V  V52  1  0.36929384  0.12505789  0.25378413  1
  V  V53  1  0.36964420  0.00438486  0.37460531  1
  V  V54  1  0.75019893  -0.00099003  0.74871319  1
  V  V55  1  0.62464764  -0.00098549  0.62492474  1
  V  V56  1  0.75186628  0.00004629  0.25169098  1
  V  V57  1  0.12654507  0.25329262  0.86900465  1
  V  V58  1  0.74970767  0.50400092  0.25517517  1
  V  V59  1  0.25001808  0.87576297  0.62647244  1
  V  V60  1  0.25055003  0.75063369  0.00145567  1
  V  V61  1  0.00001879  0.74944118  0.74953206  1
  V  V62  1  0.12421037  0.37597736  0.24730588  1
  V  V63  1  -0.00073710  0.37537028  0.37420339  1
  V  V64  1  0.50010553  0.87663357  0.87535675  1
  V  V65  1  0.87220055  0.50367717  0.37524073  1
  V  V66  1  0.49888205  0.62497090  0.12627009  1
  V  V67  1  0.62971221  0.62454073  0.49722833  1
  V  V68  1  0.50030984  0.25045993  0.25091030  1
  V  V69  1  0.37470047  0.62088191  0.25823877  1
  V  V70  1  0.87535527  0.12471516  0.74843070  1
  V  V71  1  0.37427460  0.25055184  0.12503336  1
  V  V72  1  0.12773743  0.87498922  0.25039547  1
  V  V73  1  0.74880749  0.49896181  0.75078543  1
  V  V74  1  0.75038185  0.12424336  0.87501533  1
  V  V75  1  0.00096716  0.74959367  0.25048764  1
  V  V76  1  0.62510537  0.49984083  0.12610060  1
  V  V77  1  0.63017901  0.74561116  0.37607863  1
  V  V78  1  0.87429776  0.75079209  0.12524480  1
  V  V79  1  0.74992067  0.24975829  0.49802144  1
  V  V80  1  0.12686889  0.12318485  0.49824627  1
  V  V81  1  0.49126447  0.49958838  0.49718335  1
  V  V82  1  0.87472928  0.49993866  0.87501492  1
  V  V83  1  0.00094906  0.12477681  0.62271825  1
  V  V84  1  0.87367990  0.37573516  0.49873988  1
  V  V85  1  0.62552866  0.00017312  0.12476477  1
  V  V86  1  0.12358042  0.49208766  0.62866814  1
  V  V87  1  0.37324149  0.62411766  0.75089529  1
  V  V88  1  0.49923113  0.62459789  0.62569786  1
  V  V89  1  0.87554285  0.37445842  0.00020463  1
  V  V90  1  0.24980435  0.00099800  0.74892606  1
  V  V91  1  0.87629261  0.87964431  0.49308897  1
  V  V92  1  0.74962957  0.87281706  0.62443649  1
  Zn  Zn93  1  0.87560593  0.25075312  0.12594447  1
  Zn  Zn94  1  0.75147362  0.37539325  0.12591974  1
  Zn  Zn95  1  -0.00478211  0.88186643  0.37117875  1
  Zn  Zn96  1  0.24849116  0.00359394  0.25309787  1
  Zn  Zn97  1  -0.00508885  0.00492502  0.49274111  1
  Zn  Zn98  1  0.37638453  0.00271298  0.87577856  1
  Zn  Zn99  1  0.12672610  0.62311495  0.50064827  1
  Zn  Zn100  1  0.00224244  0.49943862  0.00004226  1
  Zn  Zn101  1  0.62584295  0.12435460  0.49874176  1
  Zn  Zn102  1  0.12539486  0.50004433  0.12447566  1
  Zn  Zn103  1  0.37455463  0.49976886  0.87504827  1
  Zn  Zn104  1  0.87467532  0.62477873  0.75036032  1
  Zn  Zn105  1  0.24888446  0.37629163  0.12472231  1
  Zn  Zn106  1  0.24520309  0.37132666  0.62874373  1
  Zn  Zn107  1  0.25449477  0.61930737  0.38052972  1
  Zn  Zn108  1  0.87457249  0.87379730  -0.00079232  1
  Zn  Zn109  1  0.62089486  0.24605385  0.87029749  1
  Zn  Zn110  1  0.24782232  0.25214258  0.00118371  1
  Zn  Zn111  1  0.75319705  0.74483245  0.49748782  1
  Zn  Zn112  1  0.37299018  0.75012174  0.12808938  1
  Zn  Zn113  1  0.12276002  -0.00090295  0.62212098  1
  Zn  Zn114  1  0.75155128  0.75082639  0.00039309  1
  Zn  Zn115  1  0.12617550  0.12672921  -0.00070139  1
  Zn  Zn116  1  0.62420620  0.62422888  0.00223058  1
  Zn  Zn117  1  -0.00172176  0.25085761  0.24914436  1
  Zn  Zn118  1  0.25301137  0.87578712  0.12569269  1
  Zn  Zn119  1  0.49995034  0.00171387  -0.00038184  1
  Zn  Zn120  1  0.62507392  0.87442343  0.74923831  1
  Zn  Zn121  1  0.36906059  0.37948407  0.49784308  1
  Zn  Zn122  1  0.18859956  0.19014539  0.18609415  1
  Zn  Zn123  1  0.18871320  0.18745514  0.68596757  1
  Zn  Zn124  1  0.19076974  0.68650671  0.18738354  1
  Zn  Zn125  1  0.18587945  0.68387390  0.68711726  1
  Zn  Zn126  1  0.68873152  0.18867046  0.18674077  1
  Zn  Zn127  1  0.68815419  0.18654351  0.68627345  1
  Zn  Zn128  1  0.68730304  0.68643701  0.18801093  1
  Zn  Zn129  1  0.68673697  0.68719804  0.68830773  1
  Zn  Zn130  1  0.30996919  0.31102078  0.31176709  1
  Zn  Zn131  1  0.31592534  0.31217090  0.81317134  1
  Zn  Zn132  1  0.31235150  0.81186627  0.31408854  1
  Zn  Zn133  1  0.31266796  0.81224934  0.81446760  1
  Zn  Zn134  1  0.81292267  0.31165831  0.31061866  1
  Zn  Zn135  1  0.81227347  0.31229739  0.81285330  1
  Zn  Zn136  1  0.81083816  0.81033764  0.31055788  1
  Zn  Zn137  1  0.81365976  0.81281820  0.81025102  1
  Zn  Zn138  1  0.18546508  0.43369596  0.43942379  1
  Zn  Zn139  1  0.18723620  0.43988293  0.93730506  1
  Zn  Zn140  1  0.18737189  0.93627908  0.43673210  1
  Zn  Zn141  1  0.18843253  0.93953856  0.93684607  1
  Zn  Zn142  1  0.68347180  0.43775512  0.43639314  1
  Zn  Zn143  1  0.68548030  0.43740557  0.93756885  1
  Zn  Zn144  1  0.68886621  0.93601278  0.43929042  1
  Zn  Zn145  1  0.68859305  0.93732504  0.93884568  1
  Zn  Zn146  1  0.31528294  0.06256988  0.06233005  1
  Zn  Zn147  1  0.31162409  0.06351729  0.56247969  1
  Zn  Zn148  1  0.31142771  0.56113834  0.06950249  1
  Zn  Zn149  1  0.30856152  0.56421390  0.56639792  1
  Zn  Zn150  1  0.81414340  0.06078494  0.06292284  1
  Zn  Zn151  1  0.81144081  0.06139149  0.56209768  1
  Zn  Zn152  1  0.81238702  0.56179661  0.06470021  1
  Zn  Zn153  1  0.81272127  0.56145628  0.56407300  1
  Zn  Zn154  1  0.43667210  0.43925185  0.18858938  1
  Zn  Zn155  1  0.43611978  0.43873830  0.68806087  1
  Zn  Zn156  1  0.43950456  0.93927381  0.18786218  1
  Zn  Zn157  1  0.43716964  0.94039099  0.68954475  1
  Zn  Zn158  1  0.93830524  0.43961747  0.18645191  1
  Zn  Zn159  1  0.93546048  0.43814043  0.68823271  1
  Zn  Zn160  1  0.93911475  0.93817255  0.18755684  1
  Zn  Zn161  1  0.93859110  0.93754262  0.68167987  1
  Zn  Zn162  1  0.05975268  0.05991853  0.31380009  1
  Zn  Zn163  1  0.06444826  0.06391100  0.81001125  1
  Zn  Zn164  1  0.06205055  0.56228890  0.31253475  1
  Zn  Zn165  1  0.06317658  0.56284053  0.81244791  1
  Zn  Zn166  1  0.56254527  0.06300131  0.31236878  1
  Zn  Zn167  1  0.56440219  0.06153018  0.81150643  1
  Zn  Zn168  1  0.56109090  0.56184472  0.31377575  1
  Zn  Zn169  1  0.56137294  0.55851851  0.81364728  1
  Zn  Zn170  1  0.43892836  0.18766166  0.43872843  1
  Zn  Zn171  1  0.43789425  0.19027756  0.93920341  1
  Zn  Zn172  1  0.44058801  0.68881297  0.43841324  1
  Zn  Zn173  1  0.43601581  0.68723456  0.93940546  1
  Zn  Zn174  1  0.93923298  0.18862366  0.43515115  1
  Zn  Zn175  1  0.93829696  0.18752104  0.93686302  1
  Zn  Zn176  1  0.93925085  0.68912934  0.43752817  1
  Zn  Zn177  1  0.93697216  0.68864901  0.93890621  1
  Zn  Zn178  1  0.06350865  0.31091631  0.05737016  1
  Zn  Zn179  1  0.06112172  0.31171202  0.56023042  1
  Zn  Zn180  1  0.06163340  0.81291008  0.06241593  1
  Zn  Zn181  1  0.06084717  0.81206423  0.56305853  1
  Zn  Zn182  1  0.56215337  0.31281646  0.06245586  1
  Zn  Zn183  1  0.56242998  0.31242484  0.55972945  1
  Zn  Zn184  1  0.56277610  0.81105488  0.06286521  1
  Zn  Zn185  1  0.56266244  0.81209101  0.56188665  1
  O  O186  1  0.11784068  0.11722962  0.12596017  1
  O  O187  1  0.11902954  0.12659423  0.61498062  1
  O  O188  1  0.11708701  0.62701137  0.11969541  1
  O  O189  1  0.11765170  0.61391688  0.62301261  1
  O  O190  1  0.62116478  0.12030813  0.12064062  1
  O  O191  1  0.61629017  0.11987159  0.62485835  1
  O  O192  1  0.61744482  0.61813882  0.12469261  1
  O  O193  1  0.61776428  0.61997757  0.61867179  1
  O  O194  1  0.38887327  0.36726569  0.37687240  1
  O  O195  1  0.38304765  0.37618910  0.88382336  1
  O  O196  1  0.38145192  0.88288399  0.38029341  1
  O  O197  1  0.38462905  0.87488127  0.88308259  1
  O  O198  1  0.87961873  0.38079496  0.37979521  1
  O  O199  1  0.88202964  0.37849871  0.88237221  1
  O  O200  1  0.87309648  0.86587449  0.39003684  1
  O  O201  1  0.88280204  0.88194632  0.87398669  1
  O  O202  1  0.26636239  -0.00436696  0.37455265  1
  O  O203  1  0.25146348  0.01145849  0.86833019  1
  O  O204  1  0.24270134  0.50035280  0.36321156  1
  O  O205  1  0.25027851  0.50654525  0.86613349  1
  O  O206  1  0.74265350  0.01255167  0.36850495  1
  O  O207  1  0.75590821  0.00482054  0.86906523  1
  O  O208  1  0.75491628  0.49369380  0.36355116  1
  O  O209  1  0.75324408  0.50689399  0.87097275  1
  O  O210  1  0.24495888  0.49621388  0.14000583  1
  O  O211  1  0.24086015  0.49755821  0.63241975  1
  O  O212  1  0.23839643  1.00009715  0.12587351  1
  O  O213  1  0.24932918  0.99348396  0.63100260  1
  O  O214  1  0.74436704  0.49699587  0.13514216  1
  O  O215  1  0.74339380  0.49307540  0.62980114  1
  O  O216  1  0.74458077  0.99511859  0.13144713  1
  O  O217  1  0.74426021  0.99468714  0.62980075  1
  O  O218  1  0.00804703  0.37421201  0.25484507  1
  O  O219  1  -0.00868949  0.36791447  0.76255003  1
  O  O220  1  0.01187456  0.86915552  0.24888340  1
  O  O221  1  0.00625601  0.87024554  0.75365230  1
  O  O222  1  0.50419200  0.37098709  0.25806473  1
  O  O223  1  0.50917652  0.38304054  0.75917922  1
  O  O224  1  0.50605727  0.87005772  0.25523500  1
  O  O225  1  0.49884045  0.86877149  0.75999352  1
  O  O226  1  0.49287083  0.13132464  0.24483549  1
  O  O227  1  0.49084330  0.11940438  0.73944532  1
  O  O228  1  0.49289662  0.62818609  0.24664427  1
  O  O229  1  0.49439696  0.62832097  0.74543268  1
  O  O230  1  0.99296912  0.12510466  0.24131628  1
  O  O231  1  0.99442089  0.13110810  0.74334822  1
  O  O232  1  0.99487618  0.63044902  0.24337810  1
  O  O233  1  0.99824364  0.63170615  0.74453534  1
  O  O234  1  0.37453465  0.26079449  0.00621095  1
  O  O235  1  0.36612855  0.24730465  0.50761197  1
  O  O236  1  0.36982187  0.75996595  0.00158143  1
  O  O237  1  0.37145040  0.75668715  0.50570809  1
  O  O238  1  0.86706588  0.25772842  -0.00128000  1
  O  O239  1  0.86979184  0.25629041  0.50417109  1
  O  O240  1  0.87260798  0.75316304  0.00903969  1
  O  O241  1  0.87213438  0.75613515  0.50695712  1
  O  O242  1  0.13121062  0.24439009  0.49340704  1
  O  O243  1  0.12793464  0.24629507  0.98530873  1
  O  O244  1  0.13009017  0.75147720  0.49150503  1
  O  O245  1  0.13027676  0.74601305  0.99399946  1
  O  O246  1  0.63277891  0.24797560  0.49350736  1
  O  O247  1  0.63467344  0.24501565  0.99834758  1
  O  O248  1  0.62348709  0.74115944  0.49300574  1
  O  O249  1  0.62677306  0.74696217  0.98739809  1
  O  O250  1  0.49496487  0.24495291  0.13167793  1
  O  O251  1  0.49120107  0.23842969  0.61632392  1
  O  O252  1  0.50007396  0.74335142  0.13309970  1
  O  O253  1  0.49460391  0.74519533  0.63090683  1
  O  O254  1  1.00136141  0.23687205  0.12460676  1
  O  O255  1  0.99379194  0.24615372  0.62912532  1
  O  O256  1  0.99500627  0.74418471  0.13113033  1
  O  O257  1  0.99523897  0.74363425  0.63081240  1
  O  O258  1  0.01027140  0.25739037  0.37327653  1
  O  O259  1  0.00687083  0.25563324  0.86927241  1
  O  O260  1  0.01000702  0.75528869  0.36875941  1
  O  O261  1  0.00552517  0.75586525  0.86953840  1
  O  O262  1  0.50618172  0.25699440  0.37104933  1
  O  O263  1  0.50263028  0.26572122  0.87952783  1
  O  O264  1  0.50846086  0.75733757  0.37054111  1
  O  O265  1  0.50649909  0.75615821  0.87111887  1
  O  O266  1  0.24027883  0.13742543  0.50605253  1
  O  O267  1  0.25262750  0.12742022  0.98621957  1
  O  O268  1  0.24781645  0.63324399  0.49824980  1
  O  O269  1  0.24615832  0.63007551  0.99599269  1
  O  O270  1  0.75089900  0.13026224  0.49044005  1
  O  O271  1  0.74657845  0.13164538  0.99517888  1
  O  O272  1  0.73341774  0.62330562  0.50555922  1
  O  O273  1  0.74763401  0.62549376  0.98752516  1
  O  O274  1  0.26239727  0.37581633  0.00012482  1
  O  O275  1  0.25166117  0.36298130  0.50424409  1
  O  O276  1  0.26023585  0.87049341  -0.00225670  1
  O  O277  1  0.25632048  0.87030833  0.50668247  1
  O  O278  1  0.75863660  0.36712627  -0.00209961  1
  O  O279  1  0.75352567  0.37052804  0.50480267  1
  O  O280  1  0.75309854  0.87286419  0.00871696  1
  O  O281  1  0.75965533  0.87069333  0.50562445  1
  O  O282  1  0.13056090  0.48952927  0.25023069  1
  O  O283  1  0.13458101  0.50545578  0.74107196  1
  O  O284  1  0.12708223  0.99304341  0.24240341  1
  O  O285  1  0.13176847  0.99368752  0.74689848  1
  O  O286  1  0.63195217  0.49606707  0.24736114  1
  O  O287  1  0.62942700  0.49078100  0.74403887  1
  O  O288  1  0.63047986  0.99418446  0.24471144  1
  O  O289  1  0.63223630  0.99747473  0.74298508  1
  O  O290  1  0.37569545  0.00780244  0.25750427  1
  O  O291  1  0.36894738  0.01256524  0.75188231  1
  O  O292  1  0.36598477  0.50851170  0.24751124  1
  O  O293  1  0.36495577  0.50744997  0.74943068  1
  O  O294  1  0.86871014  0.01288665  0.24379622  1
  O  O295  1  0.87073088  0.00586644  0.75310271  1
  O  O296  1  0.86763371  0.50358579  0.25493952  1
  O  O297  1  0.86625577  0.50072997  0.75707947  1
  O  O298  1  0.11893696  0.36636159  0.36674319  1
  O  O299  1  0.11415198  0.36671320  0.88047466  1
  O  O300  1  0.12658934  0.86566736  0.36597525  1
  O  O301  1  0.12061887  0.87015257  0.86882950  1
  O  O302  1  0.61565697  0.36889761  0.36930358  1
  O  O303  1  0.61798782  0.37458730  0.86646038  1
  O  O304  1  0.61960944  0.86797177  0.37050506  1
  O  O305  1  0.61674220  0.86639954  0.87450120  1
  O  O306  1  0.38176035  0.12962719  0.13264905  1
  O  O307  1  0.38176088  0.13185278  0.63115256  1
  O  O308  1  0.38154832  0.62725656  0.13752873  1
  O  O309  1  0.38001286  0.63232524  0.63082431  1
  O  O310  1  0.88476469  0.12549345  0.13171644  1
  O  O311  1  0.87945938  0.13106064  0.62843623  1
  O  O312  1  0.88113635  0.63034683  0.13178471  1
  O  O313  1  0.88078823  0.62982411  0.62731946  1
  O  O314  1  0.25822886  0.25455015  0.12137693  1
  O  O315  1  0.25816733  0.25171765  0.61777687  1
  O  O316  1  0.25200428  0.75479916  0.11665144  1
  O  O317  1  0.25551872  0.75541319  0.62115021  1
  O  O318  1  0.75241876  0.25215068  0.11151636  1
  O  O319  1  0.75557447  0.25460500  0.61845042  1
  O  O320  1  0.75570298  0.75579850  0.12593211  1
  O  O321  1  0.75534964  0.75464906  0.62454604  1
  O  O322  1  0.23896036  0.25543353  0.38499599  1
  O  O323  1  0.24300097  0.24326579  0.87263767  1
  O  O324  1  0.24124629  0.74981573  0.38212210  1
  O  O325  1  0.24401795  0.74451170  0.88046776  1
  O  O326  1  0.74547902  0.24197293  0.37862661  1
  O  O327  1  0.74960399  0.24330835  0.88461675  1
  O  O328  1  0.73342723  0.75310400  0.37573484  1
  O  O329  1  0.74184044  0.74235088  0.87295007  1
  O  O330  1  0.00098764  0.11915070  0.00851461  1
  O  O331  1  0.00969637  0.12844107  0.50488986  1
  O  O332  1  0.00617973  0.62488732  0.00644478  1
  O  O333  1  0.00124317  0.61757697  0.50746687  1
  O  O334  1  0.50655413  0.12526029  0.00639237  1
  O  O335  1  0.50158519  0.11854679  0.51038611  1
  O  O336  1  0.49917160  0.61809087  0.00728049  1
  O  O337  1  0.50630971  0.61778853  0.50592855  1
  O  O338  1  0.49878579  0.38306249  0.49289002  1
  O  O339  1  0.49270301  0.38021625  0.99400356  1
  O  O340  1  0.49369508  0.88072379  0.49604737  1
  O  O341  1  0.49287333  0.87421730  0.99127412  1
  O  O342  1  0.99257394  0.38046763  0.49455429  1
  O  O343  1  0.99100350  0.37383701  0.98847161  1
  O  O344  1  0.98378390  0.87336884  0.50157136  1
  O  O345  1  0.99985635  0.88228582  0.99200228  1
  O  O346  1  0.50576764  0.48948710  0.38559692  1
  O  O347  1  0.49758754  0.48968975  0.88246665  1
  O  O348  1  0.49326097  0.99493762  0.38029694  1
  O  O349  1  0.49989120  0.98815243  0.87595667  1
  O  O350  1  0.99426362  0.49421420  0.38068880  1
  O  O351  1  0.99499139  0.49105511  0.87487680  1
  O  O352  1  1.00302458  0.99366861  0.38097997  1
  O  O353  1  0.99662220  0.99635013  0.87792152  1
  O  O354  1  0.00910016  0.00825272  0.12054905  1
  O  O355  1  0.00253377  0.00905163  0.61676935  1
  O  O356  1  0.00234677  0.51052999  0.12220720  1
  O  O357  1  0.00491711  0.50313887  0.62177542  1
  O  O358  1  0.50850501  0.00719411  0.12413605  1
  O  O359  1  0.50368277  0.00833514  0.62053833  1
  O  O360  1  0.50595472  0.50540769  0.12203403  1
  O  O361  1  0.50510915  0.50458797  0.61769137  1
  O  O362  1  0.24126510  0.38100159  0.25049854  1
  O  O363  1  0.25639552  0.38900784  0.74982380  1
  O  O364  1  0.23896804  0.87701796  0.24753360  1
  O  O365  1  0.24625825  0.88007640  0.74631284  1
  O  O366  1  0.74450420  0.38350196  0.24772654  1
  O  O367  1  0.74223399  0.37974971  0.74501253  1
  O  O368  1  0.74429441  0.88045505  0.24534131  1
  O  O369  1  0.74893993  0.88179719  0.74284529  1
  O  O370  1  0.26554871  0.12527891  0.24631803  1
  O  O371  1  0.25811175  0.12162070  0.75709815  1
  O  O372  1  0.25782152  0.61748391  0.25327156  1
  O  O373  1  0.25440344  0.61773303  0.75564480  1
  O  O374  1  0.75704733  0.12115754  0.25564675  1
  O  O375  1  0.75592515  0.11968495  0.75440322  1
  O  O376  1  0.75659326  0.61208264  0.24531383  1
  O  O377  1  0.74871611  0.61796769  0.76109925  1
  O  O378  1  0.38430163  0.11586229  0.36540069  1
  O  O379  1  0.36940285  0.12862483  0.86628829  1
  O  O380  1  0.37592495  0.63000918  0.36280770  1
  O  O381  1  0.36827252  0.62371633  0.86922110  1
  O  O382  1  0.86466127  0.13149289  0.36515520  1
  O  O383  1  0.87077579  0.11932171  0.86808773  1
  O  O384  1  0.88247486  0.61672117  0.36674200  1
  O  O385  1  0.86570980  0.61987836  0.87387749  1
  O  O386  1  0.12361337  0.37283832  0.13659576  1
  O  O387  1  0.12292301  0.38751710  0.62240693  1
  O  O388  1  0.12468252  0.88456995  0.13267624  1
  O  O389  1  0.13203337  0.87534387  0.63088616  1
  O  O390  1  0.62446310  0.38178725  0.13278749  1
  O  O391  1  0.62817591  0.37895874  0.63117052  1
  O  O392  1  0.63001475  0.87925394  0.13136485  1
  O  O393  1  0.63024049  0.88027387  0.62644684  1
  O  O394  1  0.12558079  0.25753295  0.25814556  1
  O  O395  1  0.11906220  0.24520758  0.76083418  1
  O  O396  1  0.12217959  0.75698159  0.25636802  1
  O  O397  1  0.12053926  0.75539380  0.75564541  1
  O  O398  1  0.61989813  0.25542277  0.25423200  1
  O  O399  1  0.63084770  0.26425893  0.75024359  1
  O  O400  1  0.61934381  0.75384185  0.25803648  1
  O  O401  1  0.61769466  0.75051582  0.76080909  1
  O  O402  1  0.38046273  0.24318974  0.24655581  1
  O  O403  1  0.36920580  0.23862148  0.73879359  1
  O  O404  1  0.38111647  0.74282612  0.24969935  1
  O  O405  1  0.37930489  0.74462124  0.74511419  1
  O  O406  1  0.87689920  0.23815467  0.24552603  1
  O  O407  1  0.87924463  0.24414070  0.74364467  1
  O  O408  1  0.88070079  0.74461158  0.24589756  1
  O  O409  1  0.88247080  0.74846546  0.74287651  1
  O  O410  1  0.38749663  0.49957489  0.50835438  1
  O  O411  1  0.38040641  0.49034821  1.00170375  1
  O  O412  1  0.37995102  0.99671110  0.49345683  1
  O  O413  1  0.37850203  0.98992952  0.99615681  1
  O  O414  1  0.87886263  0.49429241  0.49553148  1
  O  O415  1  0.87502152  0.48958491  0.99370691  1
  O  O416  1  0.87222111  0.98288896  0.50352188  1
  O  O417  1  0.88226726  0.99867438  0.99186326  1
  O  O418  1  0.12013732  0.00259700  0.00892543  1
  O  O419  1  0.12962298  0.01433781  0.49979472  1
  O  O420  1  0.12302938  0.50845453  0.00324186  1
  O  O421  1  0.11800218  0.50064766  0.50853586  1
  O  O422  1  0.62445490  0.00736607  0.00686190  1
  O  O423  1  0.61873313  0.00148461  0.50673444  1
  O  O424  1  0.61816272  0.50025829  0.00753423  1
  O  O425  1  0.61542651  0.50630685  0.50488862  1
  O  O426  1  0.37743605  0.36918514  0.11642123  1
  O  O427  1  0.37688187  0.36157595  0.62367998  1
  O  O428  1  0.37547828  0.87516320  0.11406610  1
  O  O429  1  0.37079485  0.87053962  0.62067323  1
  O  O430  1  0.87649639  0.37282472  0.11188907  1
  O  O431  1  0.86838758  0.36983924  0.61910102  1
  O  O432  1  0.86946697  0.86880779  0.12655002  1
  O  O433  1  0.86926622  0.86768854  0.61661140  1
  O  O434  1  0.11928706  0.13757733  0.38255053  1
  O  O435  1  0.13459206  0.13319866  0.87447142  1
  O  O436  1  0.12578543  0.63865918  0.37540801  1
  O  O437  1  0.13012211  0.63146320  0.88112726  1
  O  O438  1  0.63497837  0.13189117  0.37418896  1
  O  O439  1  0.63145935  0.12652169  0.88002295  1
  O  O440  1  0.61509472  0.63444402  0.38570278  1
  O  O441  1  0.63142582  0.63184890  0.87574174  1
