# generated using pymatgen
data_V93Zn93O256
_symmetry_space_group_name_H-M   'P 1'
_cell_length_a   17.04939535
_cell_length_b   17.04919948
_cell_length_c   17.05027077
_cell_angle_alpha   89.97137119
_cell_angle_beta   90.03096549
_cell_angle_gamma   90.05106118
_symmetry_Int_Tables_number   1
_chemical_formula_structural   V93Zn93O256
_chemical_formula_sum   'V93 Zn93 O256'
_cell_volume   4956.14454599
_cell_formula_units_Z   1
loop_
 _symmetry_equiv_pos_site_id
 _symmetry_equiv_pos_as_xyz
  1  'x, y, z'
loop_
 _atom_site_type_symbol
 _atom_site_label
 _atom_site_symmetry_multiplicity
 _atom_site_fract_x
 _atom_site_fract_y
 _atom_site_fract_z
 _atom_site_occupancy
  V  V0  1  0.75177105  0.62441268  0.87523014  1
  V  V1  1  0.49892000  0.62945459  0.12526965  1
  V  V2  1  0.12439945  0.00172654  0.62463696  1
  V  V3  1  0.87376675  0.87401761  0.50031593  1
  V  V4  1  0.75071797  0.49871240  0.75011320  1
  V  V5  1  0.87297641  -0.00120509  0.37480900  1
  V  V6  1  -0.00309695  0.49958834  0.49934542  1
  V  V7  1  0.12611999  0.12464556  -0.00029727  1
  V  V8  1  0.49454469  0.62441910  0.63251943  1
  V  V9  1  0.87633880  0.24968153  0.12786083  1
  V  V10  1  0.49718517  -0.00310051  0.00059789  1
  V  V11  1  0.00098533  0.74980110  0.75057419  1
  V  V12  1  0.00800088  0.25055541  0.25376134  1
  V  V13  1  0.62161167  0.24910421  0.37084870  1
  V  V14  1  0.74977840  -0.00062317  0.75035689  1
  V  V15  1  0.62563012  0.74920783  0.87408402  1
  V  V16  1  0.62366183  0.74768261  0.37446821  1
  V  V17  1  0.37540056  0.50541998  0.87026268  1
  V  V18  1  0.24982458  0.87583463  0.62429201  1
  V  V19  1  0.12653488  0.75119087  0.87635763  1
  V  V20  1  0.37443954  0.37477169  -0.00092316  1
  V  V21  1  0.62501956  0.25001318  0.87454332  1
  V  V22  1  0.24127297  0.12464984  0.36798384  1
  V  V23  1  0.24090184  0.24924742  0.49570293  1
  V  V24  1  0.00211762  0.12486693  0.12554772  1
  V  V25  1  0.26516949  0.87921107  0.12882271  1
  V  V26  1  0.87300451  0.24887508  0.62415982  1
  V  V27  1  0.62300311  0.12432202  0.49930159  1
  V  V28  1  0.12718847  0.50156161  0.12534539  1
  V  V29  1  0.24985447  0.00155390  0.75031689  1
  V  V30  1  0.62547131  -0.00079099  0.12531204  1
  V  V31  1  0.24904886  0.37520025  0.62414746  1
  V  V32  1  0.62249288  0.37039257  0.24918671  1
  V  V33  1  0.12462136  0.62462431  0.49959083  1
  V  V34  1  0.62351078  0.62475124  0.49922485  1
  V  V35  1  0.62495094  0.87417184  0.24965271  1
  V  V36  1  0.75061061  0.49935182  0.25144672  1
  V  V37  1  0.37339168  0.74730558  0.63180214  1
  V  V38  1  0.87412251  0.62331182  0.25060434  1
  V  V39  1  0.49822110  0.87520963  0.87678352  1
  V  V40  1  0.74953500  0.12470669  0.87505592  1
  V  V41  1  0.87665588  0.37689534  0.00041089  1
  V  V42  1  0.25087696  0.62631168  0.37419645  1
  V  V43  1  0.00164980  -0.00206660  0.00210367  1
  V  V44  1  0.37420481  0.24911729  0.62439489  1
  V  V45  1  0.37700939  0.63057031  0.24561922  1
  V  V46  1  0.00463868  0.37223667  0.37470732  1
  V  V47  1  0.62392473  0.49914579  0.62416095  1
  V  V48  1  0.50085511  0.37400333  0.87362245  1
  V  V49  1  0.87452455  0.74882781  0.62618951  1
  V  V50  1  0.00059286  0.37549561  0.87542358  1
  V  V51  1  0.12447201  0.37638070  0.75118754  1
  V  V52  1  0.12528549  0.87559027  0.75121002  1
  V  V53  1  0.49853540  0.49900448  0.49978867  1
  V  V54  1  -0.00130105  0.00059366  0.50081022  1
  V  V55  1  0.12475300  0.75165046  0.37451369  1
  V  V56  1  0.24963730  0.50156548  0.24929380  1
  V  V57  1  0.00043516  0.87475745  0.37432265  1
  V  V58  1  0.74991214  -0.00093581  0.24949586  1
  V  V59  1  0.74874050  0.37407975  0.62352073  1
  V  V60  1  0.87460224  0.75270666  0.12342021  1
  V  V61  1  0.37990181  0.25224015  0.13353085  1
  V  V62  1  0.74867827  0.87399946  0.62503311  1
  V  V63  1  0.00155255  0.75069653  0.25125762  1
  V  V64  1  0.37115507  0.00155730  0.36875523  1
  V  V65  1  0.49732440  0.12531262  0.62474545  1
  V  V66  1  0.62673353  0.62357157  0.00064491  1
  V  V67  1  0.87501679  0.12507498  0.74969883  1
  V  V68  1  0.74878940  0.12402389  0.37439218  1
  V  V69  1  0.00246862  0.62598791  0.12544805  1
  V  V70  1  0.12724831  0.25067152  0.87540113  1
  V  V71  1  0.50031457  0.12962100  0.13173779  1
  V  V72  1  0.62550464  0.12438359  -0.00044613  1
  V  V73  1  0.37424377  0.49985558  0.37471892  1
  V  V74  1  0.37488408  -0.00153608  0.87681114  1
  V  V75  1  0.75005636  0.37397799  0.12581332  1
  V  V76  1  0.25327955  0.50792910  0.75041883  1
  V  V77  1  0.49884433  0.87501133  0.37580103  1
  V  V78  1  0.49776851  -0.00075948  0.49953657  1
  V  V79  1  0.74837550  0.24968680  0.49944532  1
  V  V80  1  -0.00098218  0.12514434  0.62505130  1
  V  V81  1  0.62339956  0.87387003  0.75001936  1
  V  V82  1  0.12862801  0.62809717  -0.00010255  1
  V  V83  1  0.87580523  -0.00010065  0.87653070  1
  V  V84  1  0.37312162  0.37460654  0.49881096  1
  V  V85  1  0.25059769  0.12553541  0.87559142  1
  V  V86  1  0.24954004  0.75121801  0.50045766  1
  V  V87  1  0.25115699  0.37654775  0.12526892  1
  V  V88  1  0.26460186  0.75663628  0.00578993  1
  V  V89  1  0.62480700  0.49879458  0.12469528  1
  V  V90  1  0.49788706  0.36829891  0.36867771  1
  V  V91  1  0.62307646  -0.00081909  0.62464611  1
  V  V92  1  0.12421217  0.50076931  0.62522544  1
  Zn  Zn93  1  0.74903702  0.74765642  0.49988824  1
  Zn  Zn94  1  0.87325952  0.50024672  0.37561178  1
  Zn  Zn95  1  0.50068142  0.50091141  -0.00106385  1
  Zn  Zn96  1  0.49787856  0.24843165  0.74855813  1
  Zn  Zn97  1  0.12733169  0.37425294  0.25171730  1
  Zn  Zn98  1  0.87732065  0.62426389  0.75147125  1
  Zn  Zn99  1  0.74945969  0.87443881  0.12262571  1
  Zn  Zn100  1  0.87541555  0.12391638  0.25076710  1
  Zn  Zn101  1  0.13594284  0.00106036  0.13393080  1
  Zn  Zn102  1  0.75191199  0.24845528  0.00035649  1
  Zn  Zn103  1  0.75050246  0.62269936  0.37679471  1
  Zn  Zn104  1  0.37320586  0.12542310  0.24992974  1
  Zn  Zn105  1  0.12075847  0.12907977  0.49732861  1
  Zn  Zn106  1  0.00008834  0.25009774  0.74841614  1
  Zn  Zn107  1  0.62420062  0.37273070  0.74837709  1
  Zn  Zn108  1  0.13174681  0.88238105  0.24951832  1
  Zn  Zn109  1  0.87323483  0.37475663  0.49783848  1
  Zn  Zn110  1  0.25805437  0.63147789  0.87264240  1
  Zn  Zn111  1  0.37343625  0.87550357  0.49962972  1
  Zn  Zn112  1  -0.00036867  0.87505644  0.87784678  1
  Zn  Zn113  1  0.25081922  0.24863745  0.00157099  1
  Zn  Zn114  1  0.87694150  0.50034665  0.87460398  1
  Zn  Zn115  1  -0.00109713  0.62360929  0.62526449  1
  Zn  Zn116  1  0.87346244  0.87477037  -0.00109206  1
  Zn  Zn117  1  0.75120699  0.75234215  0.00011847  1
  Zn  Zn118  1  0.37520956  0.12752749  0.75019847  1
  Zn  Zn119  1  0.00282050  0.50180190  -0.00016389  1
  Zn  Zn120  1  0.49463110  0.74621323  0.75331363  1
  Zn  Zn121  1  0.49736630  0.75277745  0.24505416  1
  Zn  Zn122  1  0.18890949  0.18857474  0.18400541  1
  Zn  Zn123  1  0.18671288  0.18820269  0.68788974  1
  Zn  Zn124  1  0.19042957  0.69353791  0.18691298  1
  Zn  Zn125  1  0.18584664  0.68735841  0.68588954  1
  Zn  Zn126  1  0.68789459  0.18700730  0.18864277  1
  Zn  Zn127  1  0.68581786  0.18646859  0.68799362  1
  Zn  Zn128  1  0.68800418  0.68642234  0.18868273  1
  Zn  Zn129  1  0.68468203  0.68637470  0.68871575  1
  Zn  Zn130  1  0.30900515  0.31103374  0.31288584  1
  Zn  Zn131  1  0.31117105  0.31381953  0.81001274  1
  Zn  Zn132  1  0.31373578  0.81381841  0.31182243  1
  Zn  Zn133  1  0.31135176  0.81484798  0.81461684  1
  Zn  Zn134  1  0.81489773  0.31443695  0.31472326  1
  Zn  Zn135  1  0.81256593  0.31157009  0.81134529  1
  Zn  Zn136  1  0.81101778  0.81144982  0.31047090  1
  Zn  Zn137  1  0.81349467  0.81380056  0.81341434  1
  Zn  Zn138  1  0.18510216  0.43810229  0.43660846  1
  Zn  Zn139  1  0.18995174  0.43948775  0.93767662  1
  Zn  Zn140  1  0.18598040  0.94035923  0.43731173  1
  Zn  Zn141  1  0.18764801  0.93586907  0.94187253  1
  Zn  Zn142  1  0.68566534  0.43675378  0.43636565  1
  Zn  Zn143  1  0.68924183  0.43718296  0.93966194  1
  Zn  Zn144  1  0.68640153  0.93520891  0.43795301  1
  Zn  Zn145  1  0.68805545  0.93579581  0.93925316  1
  Zn  Zn146  1  0.31521154  0.06355460  0.06206478  1
  Zn  Zn147  1  0.31134352  0.06395583  0.55761450  1
  Zn  Zn148  1  0.31377773  0.56374055  0.06061888  1
  Zn  Zn149  1  0.31231986  0.56361430  0.56226388  1
  Zn  Zn150  1  0.81357126  0.06259982  0.06233932  1
  Zn  Zn151  1  0.81120004  0.06215094  0.56201716  1
  Zn  Zn152  1  0.81322623  0.56226586  0.06416577  1
  Zn  Zn153  1  0.81091450  0.56445143  0.56330833  1
  Zn  Zn154  1  0.43787048  0.44284378  0.18728273  1
  Zn  Zn155  1  0.43624218  0.43554022  0.68807349  1
  Zn  Zn156  1  0.43936977  0.93808271  0.18912023  1
  Zn  Zn157  1  0.43492591  0.93651023  0.68892700  1
  Zn  Zn158  1  0.94032607  0.43864671  0.18833325  1
  Zn  Zn159  1  0.93514464  0.43545987  0.68629379  1
  Zn  Zn160  1  0.94067256  0.93750635  0.18884937  1
  Zn  Zn161  1  0.93743419  0.93676216  0.68854119  1
  Zn  Zn162  1  0.06042082  0.06143169  0.31003478  1
  Zn  Zn163  1  0.06202317  0.06327992  0.81344367  1
  Zn  Zn164  1  0.06205685  0.56253212  0.31317819  1
  Zn  Zn165  1  0.06489851  0.56380549  0.81428876  1
  Zn  Zn166  1  0.56187609  0.06021460  0.31271145  1
  Zn  Zn167  1  0.56140673  0.06323681  0.81006953  1
  Zn  Zn168  1  0.56187376  0.55877907  0.31121511  1
  Zn  Zn169  1  0.56483391  0.55999266  0.81236378  1
  Zn  Zn170  1  0.43160456  0.18641893  0.43835027  1
  Zn  Zn171  1  0.43786401  0.18645098  0.94106104  1
  Zn  Zn172  1  0.43671616  0.68790956  0.44055384  1
  Zn  Zn173  1  0.44290193  0.68707795  0.94013818  1
  Zn  Zn174  1  0.93541416  0.18757571  0.43686233  1
  Zn  Zn175  1  0.93949980  0.18767088  0.93796658  1
  Zn  Zn176  1  0.93697943  0.68650875  0.43722315  1
  Zn  Zn177  1  0.93911329  0.68739840  0.93822969  1
  Zn  Zn178  1  0.06445174  0.31221741  0.06278408  1
  Zn  Zn179  1  0.05998136  0.31430908  0.56378993  1
  Zn  Zn180  1  0.06961358  0.81611404  0.06693760  1
  Zn  Zn181  1  0.06221331  0.81390345  0.56236178  1
  Zn  Zn182  1  0.56217613  0.31222999  0.05980325  1
  Zn  Zn183  1  0.56137471  0.31207483  0.55930998  1
  Zn  Zn184  1  0.56414207  0.81118471  0.06014360  1
  Zn  Zn185  1  0.55915593  0.81063715  0.56146071  1
  O  O186  1  0.12044165  0.12339877  0.11717786  1
  O  O187  1  0.11726881  0.11892808  0.62448389  1
  O  O188  1  0.12290103  0.62316886  0.11754518  1
  O  O189  1  0.12264681  0.61835242  0.61725973  1
  O  O190  1  0.61831411  0.12080654  0.11970245  1
  O  O191  1  0.61891149  0.11869909  0.61890744  1
  O  O192  1  0.61963710  0.61817609  0.12101291  1
  O  O193  1  0.61577943  0.61952995  0.61898677  1
  O  O194  1  0.38004214  0.37918113  0.37832056  1
  O  O195  1  0.38203340  0.38035077  0.88115887  1
  O  O196  1  0.37937599  0.88317351  0.37695809  1
  O  O197  1  0.38634645  0.88662372  0.86977669  1
  O  O198  1  0.88739599  0.37968975  0.37804658  1
  O  O199  1  0.88275942  0.37319259  0.88360828  1
  O  O200  1  0.87901833  0.87839270  0.38099393  1
  O  O201  1  0.87872024  0.88376043  0.87690169  1
  O  O202  1  0.25849623  0.01524214  0.38385916  1
  O  O203  1  0.25799337  0.00303727  0.87249001  1
  O  O204  1  0.25437173  0.50648789  0.37015750  1
  O  O205  1  0.25879724  0.50057841  0.86637284  1
  O  O206  1  0.75311102  0.00386346  0.37019028  1
  O  O207  1  0.75410201  0.00565397  0.86947957  1
  O  O208  1  0.75158344  0.50025060  0.36687541  1
  O  O209  1  0.74993521  0.50683389  0.86665975  1
  O  O210  1  0.24721141  0.49617587  0.13017220  1
  O  O211  1  0.24560007  0.49525266  0.63084881  1
  O  O212  1  0.25325445  0.98427860  0.11412548  1
  O  O213  1  0.24503115  0.99606315  0.62951545  1
  O  O214  1  0.74472946  0.49306117  0.13080256  1
  O  O215  1  0.74423631  0.49536991  0.63181671  1
  O  O216  1  0.74291810  1.00059601  0.13104304  1
  O  O217  1  0.74329319  0.99422915  0.63049123  1
  O  O218  1  0.00189230  0.36811074  0.25672783  1
  O  O219  1  0.00474473  0.37507183  0.75961495  1
  O  O220  1  -0.00128229  0.86599672  0.25906469  1
  O  O221  1  0.00664559  0.86501302  0.75043589  1
  O  O222  1  0.50457652  0.38237736  0.26191000  1
  O  O223  1  0.50202593  0.37201190  0.76212925  1
  O  O224  1  0.50658020  0.87257465  0.25715176  1
  O  O225  1  0.50576771  0.87573768  0.76113161  1
  O  O226  1  0.49932889  0.11916345  0.23427167  1
  O  O227  1  0.49714206  0.12749409  0.74078598  1
  O  O228  1  0.49304367  0.62289246  0.24228739  1
  O  O229  1  0.50512629  0.62478354  0.73621537  1
  O  O230  1  0.99602017  0.13539476  0.24525088  1
  O  O231  1  0.99255051  0.12607826  0.74367992  1
  O  O232  1  0.99465316  0.63062420  0.24509322  1
  O  O233  1  1.00001772  0.63690829  0.74845658  1
  O  O234  1  0.37493148  0.26206814  0.00701364  1
  O  O235  1  0.36373594  0.25636869  0.50540615  1
  O  O236  1  0.36239996  0.74581194  -0.00488891  1
  O  O237  1  0.36728324  0.75188592  0.51045277  1
  O  O238  1  0.87738560  0.25954081  0.01022024  1
  O  O239  1  0.86526641  0.24946543  0.50672001  1
  O  O240  1  0.87586635  0.75033551  0.01116841  1
  O  O241  1  0.87452275  0.75478531  0.51050208  1
  O  O242  1  0.13693974  0.25114241  0.50434053  1
  O  O243  1  0.12720096  0.24316326  0.99364998  1
  O  O244  1  0.12927404  0.74445792  0.49542871  1
  O  O245  1  0.13169386  0.74250345  0.99558100  1
  O  O246  1  0.62925350  0.24320549  0.49234538  1
  O  O247  1  0.62684004  0.24406396  0.98935628  1
  O  O248  1  0.62431155  0.74398135  0.49135815  1
  O  O249  1  0.62793903  0.74158122  0.99155614  1
  O  O250  1  0.49199399  0.23987208  0.11579315  1
  O  O251  1  0.49271432  0.24436554  0.62286712  1
  O  O252  1  0.50691486  0.73414936  0.12556088  1
  O  O253  1  0.49071251  0.74193878  0.62637953  1
  O  O254  1  0.99335852  0.24685166  0.13177374  1
  O  O255  1  0.99202217  0.24411053  0.62597290  1
  O  O256  1  0.99435120  0.74479048  0.13060619  1
  O  O257  1  0.99201805  0.75040938  0.63324454  1
  O  O258  1  -0.00808988  0.25835750  0.36466736  1
  O  O259  1  0.00654161  0.26061094  0.87347716  1
  O  O260  1  0.00522246  0.75516103  0.37184272  1
  O  O261  1  0.00586812  0.75158164  0.86572470  1
  O  O262  1  0.50305558  0.26174502  0.38251154  1
  O  O263  1  0.50746119  0.25731120  0.87622928  1
  O  O264  1  0.50933774  0.75498228  0.37549779  1
  O  O265  1  0.50419207  0.75902246  0.87400772  1
  O  O266  1  0.24633494  0.13454889  0.49137444  1
  O  O267  1  0.24451445  0.12577206  0.99294165  1
  O  O268  1  0.24441301  0.63010349  0.49369552  1
  O  O269  1  0.24330509  0.63679154  1.00066723  1
  O  O270  1  0.74191740  0.12857885  0.49448617  1
  O  O271  1  0.74352017  0.12581447  0.99280216  1
  O  O272  1  0.73951271  0.62693438  0.49816867  1
  O  O273  1  0.74608933  0.62362838  0.98929516  1
  O  O274  1  0.26049966  0.37494382  0.00541814  1
  O  O275  1  0.25335633  0.36955546  0.50295230  1
  O  O276  1  0.25034443  0.86206152  0.00649839  1
  O  O277  1  0.24853588  0.86870855  0.50709546  1
  O  O278  1  0.76068871  0.37228790  0.00592283  1
  O  O279  1  0.74952128  0.36808205  0.50547655  1
  O  O280  1  0.75408460  0.87094193  0.00461422  1
  O  O281  1  0.75561866  0.87248434  0.50766849  1
  O  O282  1  0.13297012  0.50223112  0.24268287  1
  O  O283  1  0.13244454  0.49555326  0.74566974  1
  O  O284  1  0.11913828  0.99536777  0.24598003  1
  O  O285  1  0.12995706  0.99521551  0.74512630  1
  O  O286  1  0.63086296  0.49127574  0.24404783  1
  O  O287  1  0.63579738  0.49719045  0.74379678  1
  O  O288  1  0.62992304  0.99393588  0.24495434  1
  O  O289  1  0.63034098  0.99465290  0.74448275  1
  O  O290  1  0.37945936  0.00305984  0.26485590  1
  O  O291  1  0.36862847  0.00258539  0.76043803  1
  O  O292  1  0.36884436  0.50900808  0.25608309  1
  O  O293  1  0.36440637  0.49229257  0.75865613  1
  O  O294  1  0.86868170  0.00033462  0.25704279  1
  O  O295  1  0.86909213  0.00501048  0.75524360  1
  O  O296  1  0.86865752  0.50648152  0.24803621  1
  O  O297  1  0.86276801  0.50202367  0.75034620  1
  O  O298  1  0.11014670  0.37988797  0.37177943  1
  O  O299  1  0.11860191  0.37197995  0.87260832  1
  O  O300  1  0.11849624  0.86838233  0.37520637  1
  O  O301  1  0.12397358  0.86909154  0.86847601  1
  O  O302  1  0.61512285  0.36930692  0.37018210  1
  O  O303  1  0.61708359  0.36731750  0.87736387  1
  O  O304  1  0.61908579  0.86731605  0.37036838  1
  O  O305  1  0.61727331  0.87061164  0.86972895  1
  O  O306  1  0.38234084  0.13456246  0.12543083  1
  O  O307  1  0.37990302  0.13104245  0.62403228  1
  O  O308  1  0.38595106  0.61599176  0.13449783  1
  O  O309  1  0.38378831  0.63339544  0.61964183  1
  O  O310  1  0.88123527  0.13637587  0.12483544  1
  O  O311  1  0.87858034  0.12867915  0.63030152  1
  O  O312  1  0.88180197  0.63226496  0.12960146  1
  O  O313  1  0.87640985  0.63733719  0.62838067  1
  O  O314  1  0.26166668  0.25748167  0.12239368  1
  O  O315  1  0.25394637  0.25597058  0.61705858  1
  O  O316  1  0.25083694  0.75804065  0.11147719  1
  O  O317  1  0.25509991  0.75436852  0.62086457  1
  O  O318  1  0.76034420  0.25472891  0.12401271  1
  O  O319  1  0.75196163  0.25356052  0.61933126  1
  O  O320  1  0.76216670  0.74886882  0.12428775  1
  O  O321  1  0.75885201  0.75522919  0.62725407  1
  O  O322  1  0.25626761  0.23722120  0.38436775  1
  O  O323  1  0.24506706  0.24476926  0.87688938  1
  O  O324  1  0.24532813  0.74528934  0.38079442  1
  O  O325  1  0.24615226  0.75029733  0.88552162  1
  O  O326  1  0.74400300  0.24438597  0.37998976  1
  O  O327  1  0.74129668  0.24425615  0.87657951  1
  O  O328  1  0.73543131  0.74842054  0.37636181  1
  O  O329  1  0.74538140  0.73852696  0.87287182  1
  O  O330  1  0.00607223  0.11874691  0.00497412  1
  O  O331  1  0.00003380  0.11920609  0.50594300  1
  O  O332  1  0.01268444  0.62495374  0.00511867  1
  O  O333  1  0.00601160  0.61535603  0.50044453  1
  O  O334  1  0.50566671  0.11554323  0.00782639  1
  O  O335  1  0.50463880  0.11938960  0.50456780  1
  O  O336  1  0.50765654  0.62123696  0.00843018  1
  O  O337  1  0.50390738  0.61784063  0.50924541  1
  O  O338  1  0.49304357  0.38043884  0.49069670  1
  O  O339  1  0.49203010  0.37736431  0.98987082  1
  O  O340  1  0.49828174  0.88202342  0.49333545  1
  O  O341  1  0.50779920  0.88574965  0.98862269  1
  O  O342  1  0.99896550  0.38348883  0.49316409  1
  O  O343  1  0.99368887  0.37635462  0.99250111  1
  O  O344  1  0.99302908  0.88036960  0.49493587  1
  O  O345  1  1.00014193  0.88683158  1.00028879  1
  O  O346  1  0.49394791  0.49051213  0.38074226  1
  O  O347  1  0.49387327  0.49038563  0.87420891  1
  O  O348  1  0.49297352  0.99529107  0.38066214  1
  O  O349  1  0.49553655  0.99494638  0.88129729  1
  O  O350  1  0.99867211  0.49361234  0.38452948  1
  O  O351  1  0.99895498  0.48868107  0.87700202  1
  O  O352  1  0.99190981  0.99501456  0.38191878  1
  O  O353  1  0.99463329  1.00099188  0.88518733  1
  O  O354  1  -0.00339747  0.00789094  0.11452601  1
  O  O355  1  0.00339210  0.00491971  0.62039160  1
  O  O356  1  0.00865234  0.50787852  0.12324003  1
  O  O357  1  0.00502713  0.49940421  0.61649586  1
  O  O358  1  0.50405317  0.00685834  0.11667212  1
  O  O359  1  0.50398062  0.00380780  0.61999647  1
  O  O360  1  0.50776170  0.50898732  0.12262144  1
  O  O361  1  0.50248949  0.50515062  0.62039578  1
  O  O362  1  0.24871627  0.38277996  0.24454531  1
  O  O363  1  0.24344065  0.38518796  0.74400628  1
  O  O364  1  0.25055183  0.86470625  0.23320493  1
  O  O365  1  0.24401324  0.88191400  0.74461736  1
  O  O366  1  0.74461286  0.37940446  0.24419851  1
  O  O367  1  0.74803770  0.38355867  0.74473781  1
  O  O368  1  0.74239622  0.88167198  0.24733570  1
  O  O369  1  0.74361927  0.88058343  0.74502569  1
  O  O370  1  0.25116777  0.13322410  0.26511996  1
  O  O371  1  0.25038501  0.11808591  0.75756284  1
  O  O372  1  0.25826747  0.62196156  0.25375414  1
  O  O373  1  0.24452942  0.61170323  0.75226638  1
  O  O374  1  0.75134787  0.11738985  0.25702449  1
  O  O375  1  0.75452529  0.11814232  0.75484488  1
  O  O376  1  0.75608904  0.61617742  0.25089572  1
  O  O377  1  0.74899745  0.61568292  0.75862332  1
  O  O378  1  0.36676924  0.11853915  0.37228011  1
  O  O379  1  0.37097625  0.11550421  0.87474463  1
  O  O380  1  0.37092856  0.61881571  0.36885644  1
  O  O381  1  0.37770057  0.60888426  0.88183145  1
  O  O382  1  0.86622139  0.11691355  0.37450343  1
  O  O383  1  0.86941132  0.12116952  0.87012448  1
  O  O384  1  0.87232665  0.62328602  0.36597758  1
  O  O385  1  0.86532525  0.62213480  0.87360885  1
  O  O386  1  0.13329815  0.38305782  0.12418085  1
  O  O387  1  0.12956885  0.38179828  0.63077867  1
  O  O388  1  0.13987322  0.87904211  0.12758183  1
  O  O389  1  0.13014374  0.88098862  0.63126575  1
  O  O390  1  0.62955543  0.37760282  0.12848160  1
  O  O391  1  0.62960145  0.38073075  0.62554784  1
  O  O392  1  0.62317204  0.88163065  0.13149379  1
  O  O393  1  0.62813497  0.87950958  0.62955611  1
  O  O394  1  0.11147129  0.25307494  0.24275418  1
  O  O395  1  0.12369288  0.25904218  0.75659167  1
  O  O396  1  0.11836781  0.74998420  0.25828756  1
  O  O397  1  0.11897922  0.75473558  0.75428802  1
  O  O398  1  0.62973794  0.25758483  0.25797903  1
  O  O399  1  0.62292969  0.25104971  0.76318135  1
  O  O400  1  0.62239989  0.75435947  0.25897231  1
  O  O401  1  0.62110025  0.75642755  0.75647847  1
  O  O402  1  0.37480568  0.25173372  0.23631343  1
  O  O403  1  0.37563460  0.24920381  0.74008442  1
  O  O404  1  0.37870871  0.73369768  0.25690829  1
  O  O405  1  0.37362899  0.75396555  0.73653907  1
  O  O406  1  0.88272510  0.25115507  0.23900866  1
  O  O407  1  0.87491443  0.24233556  0.74275971  1
  O  O408  1  0.88038002  0.74344350  0.24262776  1
  O  O409  1  0.88393219  0.75132658  0.74218331  1
  O  O410  1  0.37798981  0.49404744  0.49392383  1
  O  O411  1  0.37550902  0.48876725  0.99096363  1
  O  O412  1  0.38086543  0.99874374  0.48956100  1
  O  O413  1  0.38835495  1.00522918  0.98945890  1
  O  O414  1  0.88650695  0.50015279  0.50165242  1
  O  O415  1  0.87833933  0.48723029  1.00026007  1
  O  O416  1  0.87852449  0.99341514  0.49547381  1
  O  O417  1  0.88529321  1.00147480  0.99457848  1
  O  O418  1  0.11504074  0.00715664  -0.00042551  1
  O  O419  1  0.11579487  0.00145197  0.50790198  1
  O  O420  1  0.12897240  0.51258088  0.00555562  1
  O  O421  1  0.11659681  0.50451892  0.50527698  1
  O  O422  1  0.61602689  0.00538414  0.00417433  1
  O  O423  1  0.61885537  0.00485693  0.50535947  1
  O  O424  1  0.62479622  0.50547197  0.00664962  1
  O  O425  1  0.61759902  0.50408223  0.50502421  1
  O  O426  1  0.37415122  0.37162526  0.11756752  1
  O  O427  1  0.36843184  0.37065856  0.61778428  1
  O  O428  1  0.36572954  0.87692985  0.12739440  1
  O  O429  1  0.36813725  0.86683161  0.62266587  1
  O  O430  1  0.87233403  0.36814078  0.11872721  1
  O  O431  1  0.86657988  0.36687429  0.62240009  1
  O  O432  1  0.87571441  0.86219675  0.12556883  1
  O  O433  1  0.86954868  0.86715110  0.62119885  1
  O  O434  1  0.13835153  0.11986622  0.37780368  1
  O  O435  1  0.13067067  0.13090347  0.87966087  1
  O  O436  1  0.13133190  0.63085915  0.38029782  1
  O  O437  1  0.12910063  0.63113274  0.88539330  1
  O  O438  1  0.62824103  0.12889955  0.37981737  1
  O  O439  1  0.62851572  0.13147561  0.87923955  1
  O  O440  1  0.62184007  0.63220540  0.38020737  1
  O  O441  1  0.63239509  0.62823200  0.87948183  1
