# generated using pymatgen
data_V93Zn93O256
_symmetry_space_group_name_H-M   'P 1'
_cell_length_a   17.04741993
_cell_length_b   17.05045432
_cell_length_c   17.04784069
_cell_angle_alpha   89.99646464
_cell_angle_beta   90.03617377
_cell_angle_gamma   90.03646027
_symmetry_Int_Tables_number   1
_chemical_formula_structural   V93Zn93O256
_chemical_formula_sum   'V93 Zn93 O256'
_cell_volume   4955.23000627
_cell_formula_units_Z   1
loop_
 _symmetry_equiv_pos_site_id
 _symmetry_equiv_pos_as_xyz
  1  'x, y, z'
loop_
 _atom_site_type_symbol
 _atom_site_label
 _atom_site_symmetry_multiplicity
 _atom_site_fract_x
 _atom_site_fract_y
 _atom_site_fract_z
 _atom_site_occupancy
  V  V0  1  0.37437193  0.50024812  0.87542283  1
  V  V1  1  0.37502318  0.74827637  0.12856628  1
  V  V2  1  0.75013004  0.75070031  0.49887401  1
  V  V3  1  0.51012013  0.37220300  0.37292426  1
  V  V4  1  0.63038796  0.87919361  0.75078898  1
  V  V5  1  0.49933005  0.37515324  0.87202833  1
  V  V6  1  0.12597596  0.12483849  0.00099977  1
  V  V7  1  -0.00069287  0.49838655  0.00112029  1
  V  V8  1  0.74912388  0.37593519  0.62473299  1
  V  V9  1  0.25036723  0.75109103  0.00177645  1
  V  V10  1  0.37673434  0.12303572  0.75247498  1
  V  V11  1  0.25108913  0.87490681  0.12541713  1
  V  V12  1  0.37360243  0.38091030  0.49223738  1
  V  V13  1  -0.00267404  0.24930445  0.24935230  1
  V  V14  1  0.12610298  0.74749302  0.37618195  1
  V  V15  1  0.62414117  0.37672880  0.74944096  1
  V  V16  1  0.00015512  0.62407112  0.12578954  1
  V  V17  1  -0.00237429  0.37394938  0.37358992  1
  V  V18  1  0.12577836  0.75010742  0.87551611  1
  V  V19  1  0.50375846  0.12645631  0.62005707  1
  V  V20  1  0.75263403  -0.00193874  0.24900393  1
  V  V21  1  0.62321392  0.49837993  0.12653307  1
  V  V22  1  0.49939242  0.87508707  0.37520976  1
  V  V23  1  0.87309887  0.49911270  0.37263361  1
  V  V24  1  0.73958305  0.24226981  0.49759225  1
  V  V25  1  0.00088980  0.87336982  0.37562669  1
  V  V26  1  0.00041628  0.74808693  0.24987338  1
  V  V27  1  0.87344496  0.75015114  0.12280558  1
  V  V28  1  0.12515585  0.62446926  0.00080611  1
  V  V29  1  0.50406560  0.00250085  0.49935963  1
  V  V30  1  0.49631343  0.74868220  0.25001237  1
  V  V31  1  0.00001631  -0.00007599  -0.00081609  1
  V  V32  1  0.26249689  0.62217986  0.37204129  1
  V  V33  1  -0.00058167  0.37381299  0.87461169  1
  V  V34  1  0.12638747  0.00061795  0.62621775  1
  V  V35  1  0.87349379  0.37387462  0.49844541  1
  V  V36  1  0.37557727  0.25092986  0.62401227  1
  V  V37  1  0.25072665  0.37465885  0.12627085  1
  V  V38  1  0.74906607  0.62383082  0.37374557  1
  V  V39  1  0.49663883  0.88126969  0.87502580  1
  V  V40  1  0.74380439  0.49490808  0.24968419  1
  V  V41  1  0.25008230  0.74987672  0.49883353  1
  V  V42  1  0.37565621  0.62728356  0.75079218  1
  V  V43  1  0.87692099  0.24953423  0.62581798  1
  V  V44  1  0.37576510  0.87636141  0.50101483  1
  V  V45  1  0.74850250  0.24715553  -0.00410350  1
  V  V46  1  0.87418316  0.62347398  0.75052603  1
  V  V47  1  0.12476078  0.49918310  0.12697566  1
  V  V48  1  0.87423783  0.24574499  0.12539722  1
  V  V49  1  0.12687985  0.12538951  0.49992359  1
  V  V50  1  0.12494772  0.37461778  0.74962123  1
  V  V51  1  0.25289540  0.00226728  0.25216550  1
  V  V52  1  0.49583142  0.50284263  0.49595363  1
  V  V53  1  -0.00000233  0.87555194  0.87601821  1
  V  V54  1  0.75007793  0.12092935  0.86623624  1
  V  V55  1  0.25063152  0.37712397  0.62525511  1
  V  V56  1  0.62873150  0.00271506  0.62669107  1
  V  V57  1  0.49504361  0.62550343  0.13038150  1
  V  V58  1  0.37349911  0.37433887  -0.00034737  1
  V  V59  1  0.24858576  0.25131128  0.49982822  1
  V  V60  1  0.25320629  0.00086035  0.75352998  1
  V  V61  1  0.87223371  -0.00078974  0.86833655  1
  V  V62  1  0.12443770  0.37484105  0.25008770  1
  V  V63  1  0.12455667  0.00044962  0.12479125  1
  V  V64  1  0.12715237  0.87548573  0.75100872  1
  V  V65  1  0.49599795  0.00339312  0.00010335  1
  V  V66  1  0.62441339  -0.00062161  0.12286056  1
  V  V67  1  0.25101221  0.62578595  0.87653858  1
  V  V68  1  0.62453441  0.75044057  0.37438453  1
  V  V69  1  0.87596698  0.75028937  0.62535226  1
  V  V70  1  0.00142045  -0.00052143  0.50029601  1
  V  V71  1  0.37576661  0.75119401  0.62658096  1
  V  V72  1  0.62485628  0.87389666  0.24890935  1
  V  V73  1  0.25015900  0.50038977  0.75019527  1
  V  V74  1  0.00077045  0.50123716  0.50034331  1
  V  V75  1  0.62595611  0.75037796  0.87510270  1
  V  V76  1  0.00098494  0.12602920  0.62637908  1
  V  V77  1  0.74459235  0.37342693  0.12538031  1
  V  V78  1  0.25387274  0.12388022  0.87722586  1
  V  V79  1  0.87459646  -0.00144183  0.37434152  1
  V  V80  1  0.26024831  0.50345064  0.25459239  1
  V  V81  1  0.62558835  0.50188471  0.62384774  1
  V  V82  1  0.74999320  0.87828028  0.62601449  1
  V  V83  1  0.12611661  0.87495372  0.25073911  1
  V  V84  1  0.12338243  0.24914691  0.37527724  1
  V  V85  1  0.38355593  0.13272870  0.25046697  1
  V  V86  1  0.87437071  0.37490770  -0.00110227  1
  V  V87  1  0.87563355  0.87431248  0.50052466  1
  V  V88  1  0.37526806  0.87837465  -0.00121484  1
  V  V89  1  0.00137485  0.74896580  0.74977376  1
  V  V90  1  0.62475536  0.62616692  0.00014602  1
  V  V91  1  0.25163625  0.24951777  0.00412710  1
  V  V92  1  0.62440676  0.62648099  0.50101045  1
  Zn  Zn93  1  0.12511764  0.24957580  0.87691227  1
  Zn  Zn94  1  0.25168816  0.12644003  0.37550261  1
  Zn  Zn95  1  0.75031608  0.87293407  0.12106406  1
  Zn  Zn96  1  -0.00041485  0.12304057  0.12558284  1
  Zn  Zn97  1  0.50095932  0.62646821  0.62715756  1
  Zn  Zn98  1  0.49847830  0.50103085  0.00150355  1
  Zn  Zn99  1  0.87177453  0.50064499  0.87487714  1
  Zn  Zn100  1  0.49948867  0.25009531  0.74823264  1
  Zn  Zn101  1  0.12682105  0.62366463  0.50047656  1
  Zn  Zn102  1  0.25109533  0.87660879  0.62492476  1
  Zn  Zn103  1  0.62331970  0.12358176  -0.00409718  1
  Zn  Zn104  1  0.75043730  0.50176463  0.75152460  1
  Zn  Zn105  1  0.75059778  0.75154388  0.00045245  1
  Zn  Zn106  1  0.00262457  0.62521528  0.62369037  1
  Zn  Zn107  1  0.87480721  0.12136008  0.74777823  1
  Zn  Zn108  1  0.50654576  0.13613999  0.12786477  1
  Zn  Zn109  1  0.75037363  0.62278631  0.87558564  1
  Zn  Zn110  1  0.12493972  0.50260885  0.62369384  1
  Zn  Zn111  1  0.00062785  0.24833739  0.75139751  1
  Zn  Zn112  1  0.37581994  0.00197207  0.37643038  1
  Zn  Zn113  1  0.62473217  0.24687704  0.87043815  1
  Zn  Zn114  1  0.87197539  0.87507188  -0.00157857  1
  Zn  Zn115  1  0.38836038  0.25658052  0.13054563  1
  Zn  Zn116  1  0.56975334  0.31274261  0.21079018  1
  Zn  Zn117  1  0.61385737  0.23054144  0.36564286  1
  Zn  Zn118  1  0.87623942  0.12284112  0.25384924  1
  Zn  Zn119  1  0.50013330  0.75124223  0.75008466  1
  Zn  Zn120  1  0.87398899  0.62354501  0.24842615  1
  Zn  Zn121  1  0.74449670  0.11876085  0.38002823  1
  Zn  Zn122  1  0.18907311  0.18763411  0.18763665  1
  Zn  Zn123  1  0.18778310  0.18931283  0.68749985  1
  Zn  Zn124  1  0.18839367  0.68547227  0.19025485  1
  Zn  Zn125  1  0.18770744  0.68589293  0.68498345  1
  Zn  Zn126  1  0.69017231  0.18082204  0.18867597  1
  Zn  Zn127  1  0.68721583  0.19053618  0.68649520  1
  Zn  Zn128  1  0.68642633  0.68467385  0.18822222  1
  Zn  Zn129  1  0.68867045  0.69047835  0.68762657  1
  Zn  Zn130  1  0.31125322  0.31438364  0.31427431  1
  Zn  Zn131  1  0.31190273  0.30936631  0.81290930  1
  Zn  Zn132  1  0.31399812  0.81152544  0.31414329  1
  Zn  Zn133  1  0.31372571  0.81363683  0.81408426  1
  Zn  Zn134  1  0.80481484  0.31056874  0.31085781  1
  Zn  Zn135  1  0.81153004  0.31285246  0.81102840  1
  Zn  Zn136  1  0.81337491  0.81229579  0.31015546  1
  Zn  Zn137  1  0.81235814  0.81162539  0.81249305  1
  Zn  Zn138  1  0.18613773  0.43864411  0.43436157  1
  Zn  Zn139  1  0.18719617  0.43724670  0.93784026  1
  Zn  Zn140  1  0.18888734  0.93641691  0.43733784  1
  Zn  Zn141  1  0.18787526  0.93945203  0.93721115  1
  Zn  Zn142  1  0.68740594  0.43740682  0.44074443  1
  Zn  Zn143  1  0.68780209  0.44084812  0.93670368  1
  Zn  Zn144  1  0.68640030  0.93797163  0.43831386  1
  Zn  Zn145  1  0.68941930  0.93696571  0.93913073  1
  Zn  Zn146  1  0.31612864  0.06569138  0.06829045  1
  Zn  Zn147  1  0.31456040  0.06352143  0.56474085  1
  Zn  Zn148  1  0.31220065  0.56008706  0.06383879  1
  Zn  Zn149  1  0.31110047  0.56539034  0.56227367  1
  Zn  Zn150  1  0.81137848  0.06100010  0.05732767  1
  Zn  Zn151  1  0.81449110  0.06249183  0.56314303  1
  Zn  Zn152  1  0.81158277  0.56286037  0.06254878  1
  Zn  Zn153  1  0.81339307  0.56303675  0.56299117  1
  Zn  Zn154  1  0.43630162  0.44073576  0.18785867  1
  Zn  Zn155  1  0.43690934  0.44078731  0.68419728  1
  Zn  Zn156  1  0.43774438  0.93842265  0.18668400  1
  Zn  Zn157  1  0.43967347  0.93850775  0.68819830  1
  Zn  Zn158  1  0.93308127  0.43579384  0.18711282  1
  Zn  Zn159  1  0.93703274  0.43771544  0.68637428  1
  Zn  Zn160  1  0.93866131  0.93440010  0.18591325  1
  Zn  Zn161  1  0.94006102  0.93609819  0.68814841  1
  Zn  Zn162  1  0.06174909  0.06379627  0.31217413  1
  Zn  Zn163  1  0.06301765  0.06381746  0.81363514  1
  Zn  Zn164  1  0.06673248  0.56328184  0.31393950  1
  Zn  Zn165  1  0.06124023  0.56131001  0.81307435  1
  Zn  Zn166  1  0.56665594  0.06053175  0.31427902  1
  Zn  Zn167  1  0.56366196  0.06250451  0.81114773  1
  Zn  Zn168  1  0.56014464  0.56077733  0.31312423  1
  Zn  Zn169  1  0.56025347  0.56271212  0.81165617  1
  Zn  Zn170  1  0.43498054  0.18976787  0.43632976  1
  Zn  Zn171  1  0.43702439  0.18931586  0.93801065  1
  Zn  Zn172  1  0.43760963  0.68965359  0.43911912  1
  Zn  Zn173  1  0.43907821  0.69095284  0.94003587  1
  Zn  Zn174  1  0.93399716  0.18486850  0.43802949  1
  Zn  Zn175  1  0.93676181  0.18471631  0.93721421  1
  Zn  Zn176  1  0.93613720  0.68533168  0.43563403  1
  Zn  Zn177  1  0.93832870  0.68696949  0.93715046  1
  Zn  Zn178  1  0.06341825  0.31073741  0.06265564  1
  Zn  Zn179  1  0.06224694  0.31459192  0.56200832  1
  Zn  Zn180  1  0.06129468  0.81345788  0.06265758  1
  Zn  Zn181  1  0.06476459  0.81236171  0.56415994  1
  Zn  Zn182  1  0.56278566  0.31322299  0.04943256  1
  Zn  Zn183  1  0.56041800  0.31506052  0.56091083  1
  Zn  Zn184  1  0.56153016  0.81321899  0.06197863  1
  Zn  Zn185  1  0.56201657  0.81472657  0.56287938  1
  O  O186  1  0.12529103  0.11759994  0.11882047  1
  O  O187  1  0.12100766  0.12084588  0.61955471  1
  O  O188  1  0.12005368  0.61977399  0.11954110  1
  O  O189  1  0.12092046  0.62048717  0.61986107  1
  O  O190  1  0.62441401  0.11107254  0.12230978  1
  O  O191  1  0.61331071  0.11622943  0.63516180  1
  O  O192  1  0.61563932  0.62138330  0.11734575  1
  O  O193  1  0.62397838  0.62159874  0.61850022  1
  O  O194  1  0.38292119  0.37094900  0.38857298  1
  O  O195  1  0.38076419  0.37953671  0.87736649  1
  O  O196  1  0.38257131  0.87722648  0.38240142  1
  O  O197  1  0.38850475  0.86958104  0.88188072  1
  O  O198  1  0.87861662  0.37929487  0.37872726  1
  O  O199  1  0.88403300  0.37525817  0.87931946  1
  O  O200  1  0.88175118  0.87784741  0.38115235  1
  O  O201  1  0.88122434  0.88160166  0.87467309  1
  O  O202  1  0.25189566  0.00140501  0.36343115  1
  O  O203  1  0.24642896  0.01155953  0.86501663  1
  O  O204  1  0.24295559  0.50958842  0.36623789  1
  O  O205  1  0.25501461  0.50618413  0.87060976  1
  O  O206  1  0.75649846  -0.00587471  0.36604588  1
  O  O207  1  0.75993996  0.00983833  0.88114983  1
  O  O208  1  0.75203601  0.50261871  0.36821135  1
  O  O209  1  0.75376221  0.50468627  0.87024305  1
  O  O210  1  0.24359642  0.49526868  0.13300598  1
  O  O211  1  0.24962322  0.49412339  0.63248409  1
  O  O212  1  0.24576910  0.99461984  0.13385555  1
  O  O213  1  0.24470482  1.00143438  0.63689233  1
  O  O214  1  0.74375706  0.49471365  0.13091689  1
  O  O215  1  0.74318838  0.49305403  0.62459537  1
  O  O216  1  0.74275864  0.99731371  0.13038594  1
  O  O217  1  0.73702881  0.99453542  0.61567096  1
  O  O218  1  0.00389373  0.36916541  0.25403250  1
  O  O219  1  0.00792175  0.37535249  0.75744215  1
  O  O220  1  0.00711886  0.86890541  0.25629478  1
  O  O221  1  0.00790393  0.86898182  0.75620722  1
  O  O222  1  0.49680576  0.38268547  0.26812059  1
  O  O223  1  0.50550958  0.37597447  0.75564771  1
  O  O224  1  0.50566596  0.87054183  0.25551635  1
  O  O225  1  0.50871685  0.87608278  0.75939891  1
  O  O226  1  0.48589675  0.11803602  0.25119718  1
  O  O227  1  0.49108852  0.12505086  0.74246788  1
  O  O228  1  0.50604368  0.63143418  0.23801204  1
  O  O229  1  0.49131448  0.62947927  0.74781855  1
  O  O230  1  0.99597340  0.13270725  0.24617318  1
  O  O231  1  0.99978943  0.12970028  0.74240062  1
  O  O232  1  1.00007107  0.63025094  0.24366794  1
  O  O233  1  0.99204985  0.63080683  0.74920576  1
  O  O234  1  0.36937020  0.25687506  0.00430961  1
  O  O235  1  0.36817507  0.25930319  0.50548749  1
  O  O236  1  0.36873180  0.75753177  0.00693668  1
  O  O237  1  0.37065604  0.75640420  0.50855661  1
  O  O238  1  0.86718254  0.25408577  0.00594100  1
  O  O239  1  0.86940672  0.25466278  0.51062794  1
  O  O240  1  0.87440824  0.74871432  0.01050740  1
  O  O241  1  0.87011340  0.75531433  0.50442906  1
  O  O242  1  0.12920851  0.24582769  0.49563574  1
  O  O243  1  0.13321576  0.24300514  1.00014501  1
  O  O244  1  0.13258700  0.75155271  0.49375971  1
  O  O245  1  0.13063469  0.74473789  0.99567587  1
  O  O246  1  0.63884818  0.25445627  0.50119464  1
  O  O247  1  0.63809601  0.24744099  0.99389011  1
  O  O248  1  0.63028236  0.74722386  0.49471260  1
  O  O249  1  0.62380164  0.74284180  0.99245409  1
  O  O250  1  0.50668637  0.25421078  0.13032093  1
  O  O251  1  0.49525764  0.24144523  0.62369594  1
  O  O252  1  0.49551588  0.74368193  0.12953429  1
  O  O253  1  0.48754510  0.75034041  0.62546271  1
  O  O254  1  0.98873522  0.25075811  0.12959642  1
  O  O255  1  0.99133480  0.24566434  0.62358468  1
  O  O256  1  0.99432716  0.74414155  0.12973738  1
  O  O257  1  0.99343273  0.75062482  0.63187134  1
  O  O258  1  0.00251926  0.25470632  0.37009654  1
  O  O259  1  0.00112748  0.26202539  0.87424165  1
  O  O260  1  0.00455323  0.75460878  0.37030706  1
  O  O261  1  0.00732643  0.75516273  0.87006716  1
  O  O262  1  0.50262116  0.26678063  0.38419423  1
  O  O263  1  0.50148467  0.26305872  0.87170624  1
  O  O264  1  0.50565491  0.75507410  0.37047148  1
  O  O265  1  0.51069089  0.76223603  0.87649009  1
  O  O266  1  0.24505890  0.13193895  0.50021187  1
  O  O267  1  0.24859758  0.12733951  0.99421180  1
  O  O268  1  0.24853332  0.63119738  0.49083120  1
  O  O269  1  0.24465570  0.63066126  0.99628473  1
  O  O270  1  0.75319082  0.14007267  0.50452003  1
  O  O271  1  0.74918659  0.13372177  0.98932421  1
  O  O272  1  0.74463198  0.63111748  0.49420781  1
  O  O273  1  0.73550528  0.62785039  0.99983981  1
  O  O274  1  0.25422007  0.37032169  0.00554205  1
  O  O275  1  0.25598477  0.37297350  0.50399534  1
  O  O276  1  0.25440476  0.87127859  0.00515721  1
  O  O277  1  0.25796000  0.86951893  0.50174116  1
  O  O278  1  0.75356134  0.36608974  0.00381254  1
  O  O279  1  0.75518912  0.36651123  0.50571367  1
  O  O280  1  0.75359552  0.86923130  0.00351965  1
  O  O281  1  0.75587910  0.86934728  0.50486262  1
  O  O282  1  0.12946776  0.49215725  0.24430514  1
  O  O283  1  0.13072211  0.48955555  0.75049319  1
  O  O284  1  0.13328721  0.99537250  0.24588766  1
  O  O285  1  0.13385587  0.99618419  0.74617194  1
  O  O286  1  0.63547297  0.50566304  0.24311473  1
  O  O287  1  0.62400766  0.49140153  0.74304175  1
  O  O288  1  0.63232237  0.99308470  0.24129187  1
  O  O289  1  0.61927419  0.98935275  0.73881750  1
  O  O290  1  0.36652409  0.00849856  0.24951178  1
  O  O291  1  0.36590267  0.01208264  0.74321767  1
  O  O292  1  0.35896544  0.49707503  0.24859621  1
  O  O293  1  0.36938374  0.50634555  0.75533793  1
  O  O294  1  0.86801354  -0.00467547  0.25469933  1
  O  O295  1  0.88087994  0.00017012  0.76362740  1
  O  O296  1  0.86414645  0.50140834  0.25438541  1
  O  O297  1  0.87489498  0.51160739  0.74963247  1
  O  O298  1  0.11734823  0.36795110  0.36957738  1
  O  O299  1  0.11716777  0.37440867  0.86772057  1
  O  O300  1  0.12021907  0.86886620  0.36992339  1
  O  O301  1  0.12130346  0.86968263  0.87030509  1
  O  O302  1  0.61072055  0.37451300  0.38253310  1
  O  O303  1  0.61614926  0.37709124  0.86586549  1
  O  O304  1  0.61905142  0.86926848  0.36967510  1
  O  O305  1  0.61928920  0.87038647  0.86831838  1
  O  O306  1  0.38028223  0.13080872  0.13909103  1
  O  O307  1  0.38383091  0.13066679  0.63295011  1
  O  O308  1  0.38753619  0.63157133  0.11557397  1
  O  O309  1  0.37489256  0.63593149  0.63129840  1
  O  O310  1  0.87432144  0.13706663  0.12356755  1
  O  O311  1  0.88191453  0.13236593  0.62647861  1
  O  O312  1  0.88235304  0.63262669  0.12535447  1
  O  O313  1  0.87711251  0.63247214  0.63285172  1
  O  O314  1  0.25158962  0.25877322  0.12052127  1
  O  O315  1  0.25508332  0.25723280  0.61917464  1
  O  O316  1  0.25386097  0.75496054  0.12093678  1
  O  O317  1  0.26078775  0.75230916  0.61984580  1
  O  O318  1  0.75627189  0.25205514  0.11445657  1
  O  O319  1  0.75681993  0.25498677  0.61593005  1
  O  O320  1  0.76131645  0.74886487  0.12697882  1
  O  O321  1  0.75567373  0.75793455  0.61786175  1
  O  O322  1  0.24105389  0.25033962  0.38252700  1
  O  O323  1  0.24932296  0.23973037  0.88325687  1
  O  O324  1  0.24546580  0.74327097  0.37859486  1
  O  O325  1  0.24547796  0.74564624  0.88221454  1
  O  O326  1  0.75491040  0.24897286  0.39364480  1
  O  O327  1  0.75209330  0.24286400  0.88262588  1
  O  O328  1  0.74450394  0.74546541  0.37902156  1
  O  O329  1  0.73559686  0.74776442  0.87557218  1
  O  O330  1  0.00778460  0.11844289  0.00111409  1
  O  O331  1  0.00660696  0.11858312  0.50566989  1
  O  O332  1  0.00672744  0.61836041  0.00494034  1
  O  O333  1  -0.00091733  0.61230487  0.49899526  1
  O  O334  1  0.50128953  0.11636331  0.00164829  1
  O  O335  1  0.49210041  0.11652514  0.51139089  1
  O  O336  1  0.50966409  0.62519989  0.00902450  1
  O  O337  1  0.50516525  0.61796133  0.50035857  1
  O  O338  1  0.49250389  0.38394601  0.49376300  1
  O  O339  1  0.49311197  0.37883678  0.98728523  1
  O  O340  1  0.49532988  0.88287602  0.49543320  1
  O  O341  1  0.49589832  0.88297092  0.99368496  1
  O  O342  1  0.99357074  0.38149491  0.49290946  1
  O  O343  1  0.99580671  0.37829950  0.99303041  1
  O  O344  1  0.99560554  0.87999135  0.49540378  1
  O  O345  1  1.00016042  0.88155333  0.99205441  1
  O  O346  1  0.50427335  0.49090472  0.38847086  1
  O  O347  1  0.49314443  0.49011213  0.87553497  1
  O  O348  1  0.49971994  0.99355068  0.38541072  1
  O  O349  1  0.50825666  0.99026425  0.88640564  1
  O  O350  1  0.99397680  0.49384776  0.38022505  1
  O  O351  1  0.99909668  0.48866044  0.88217558  1
  O  O352  1  0.99614846  0.99290218  0.38046183  1
  O  O353  1  0.99422353  0.99503908  0.87969589  1
  O  O354  1  0.00670322  -0.00014644  0.11853459  1
  O  O355  1  0.00641359  0.00486114  0.61969827  1
  O  O356  1  0.00479949  0.50305768  0.12084452  1
  O  O357  1  -0.00061617  0.49903813  0.61093761  1
  O  O358  1  0.50994753  0.00000070  0.11710707  1
  O  O359  1  0.50728571  0.00695744  0.61853558  1
  O  O360  1  0.50427922  0.50920229  0.12477439  1
  O  O361  1  0.50639435  0.50218933  0.61303036  1
  O  O362  1  0.24343117  0.38201526  0.24708563  1
  O  O363  1  0.24379253  0.38009120  0.74677524  1
  O  O364  1  0.24635789  0.88314481  0.24565113  1
  O  O365  1  0.24672592  0.88645970  0.75290912  1
  O  O366  1  0.75460668  0.38814418  0.24230799  1
  O  O367  1  0.73980973  0.37640260  0.74372666  1
  O  O368  1  0.74400498  0.88326845  0.24712508  1
  O  O369  1  0.73776544  0.87008091  0.74327433  1
  O  O370  1  0.25902944  0.11590522  0.25001856  1
  O  O371  1  0.25616690  0.12025591  0.75641224  1
  O  O372  1  0.24342622  0.61490549  0.25912836  1
  O  O373  1  0.25499900  0.62070729  0.75776779  1
  O  O374  1  0.75541703  0.10604509  0.25064512  1
  O  O375  1  0.75315306  0.13321353  0.76212162  1
  O  O376  1  0.75058521  0.61374190  0.25600534  1
  O  O377  1  0.76194216  0.62611702  0.75023770  1
  O  O378  1  0.37241837  0.12282578  0.36395797  1
  O  O379  1  0.36616428  0.13080422  0.86418046  1
  O  O380  1  0.36182631  0.63069440  0.37748309  1
  O  O381  1  0.37026290  0.62193739  0.87242713  1
  O  O382  1  0.86880672  0.11368811  0.37484997  1
  O  O383  1  0.86859624  0.11716594  0.87191808  1
  O  O384  1  0.86617721  0.61753357  0.37295948  1
  O  O385  1  0.87443479  0.62503126  0.86384650  1
  O  O386  1  0.13036199  0.38002536  0.13027867  1
  O  O387  1  0.13084113  0.37706227  0.63411207  1
  O  O388  1  0.13151543  0.87987369  0.13110824  1
  O  O389  1  0.12873858  0.88192697  0.63336905  1
  O  O390  1  0.62741135  0.38127174  0.12273394  1
  O  O391  1  0.62762405  0.38102452  0.63179615  1
  O  O392  1  0.62488936  0.88331712  0.13059788  1
  O  O393  1  0.62861582  0.88160151  0.63269560  1
  O  O394  1  0.11875022  0.25540386  0.25469556  1
  O  O395  1  0.12528619  0.26364519  0.75251307  1
  O  O396  1  0.12036815  0.75630988  0.25491274  1
  O  O397  1  0.12260308  0.75495974  0.75631368  1
  O  O398  1  0.65041626  0.25624962  0.26021355  1
  O  O399  1  0.62115819  0.26481230  0.74924371  1
  O  O400  1  0.61840222  0.75459481  0.25532597  1
  O  O401  1  0.62156628  0.75976278  0.75729158  1
  O  O402  1  0.37010312  0.23613054  0.25181041  1
  O  O403  1  0.37505055  0.24005186  0.74244515  1
  O  O404  1  0.38355473  0.75733527  0.24086296  1
  O  O405  1  0.37492682  0.74679358  0.74232707  1
  O  O406  1  0.87670309  0.24950821  0.23980751  1
  O  O407  1  0.87567495  0.25153129  0.73444435  1
  O  O408  1  0.88223970  0.74757647  0.24123089  1
  O  O409  1  0.88113160  0.74389431  0.74522198  1
  O  O410  1  0.38376128  0.49141022  0.50753544  1
  O  O411  1  0.37508989  0.49265027  0.99255812  1
  O  O412  1  0.38633496  0.99515279  0.50217473  1
  O  O413  1  0.38764235  0.99436469  1.00946658  1
  O  O414  1  0.88018235  0.49367069  0.49327296  1
  O  O415  1  0.88148762  0.49267610  1.00068038  1
  O  O416  1  0.88158749  0.99288461  0.49597386  1
  O  O417  1  0.88250602  0.99894092  0.98882723  1
  O  O418  1  0.12096666  0.00489324  0.00548098  1
  O  O419  1  0.12122771  0.00435749  0.50575340  1
  O  O420  1  0.12037287  0.50469863  0.00683472  1
  O  O421  1  0.11162872  0.49782231  0.49958407  1
  O  O422  1  0.61606513  -0.00113820  0.00846080  1
  O  O423  1  0.61230714  -0.00812728  0.51195782  1
  O  O424  1  0.62220084  0.50945972  0.00682684  1
  O  O425  1  0.61760063  0.50699486  0.50518608  1
  O  O426  1  0.36905934  0.37508562  0.11885209  1
  O  O427  1  0.37041101  0.37024341  0.61656580  1
  O  O428  1  0.36947286  0.86940357  0.11911450  1
  O  O429  1  0.37432821  0.86753651  0.62135990  1
  O  O430  1  0.86721578  0.36425270  0.11832477  1
  O  O431  1  0.87006994  0.36757527  0.61924285  1
  O  O432  1  0.87595635  0.86155844  0.12202166  1
  O  O433  1  0.87028615  0.87114149  0.62040470  1
  O  O434  1  0.12623019  0.13145459  0.38220266  1
  O  O435  1  0.13625087  0.12726016  0.88117770  1
  O  O436  1  0.13248282  0.63334569  0.37863598  1
  O  O437  1  0.13068366  0.62997012  0.88102978  1
  O  O438  1  0.63125099  0.12054927  0.38028558  1
  O  O439  1  0.63453273  0.12671199  0.87465584  1
  O  O440  1  0.62910889  0.63138079  0.38109114  1
  O  O441  1  0.62059824  0.63409710  0.88284201  1
