# generated using pymatgen
data_V93Zn93O256
_symmetry_space_group_name_H-M   'P 1'
_cell_length_a   17.05679609
_cell_length_b   17.05792836
_cell_length_c   17.05594944
_cell_angle_alpha   89.99018291
_cell_angle_beta   89.97656917
_cell_angle_gamma   89.97881186
_symmetry_Int_Tables_number   1
_chemical_formula_structural   V93Zn93O256
_chemical_formula_sum   'V93 Zn93 O256'
_cell_volume   4962.48915967
_cell_formula_units_Z   1
loop_
 _symmetry_equiv_pos_site_id
 _symmetry_equiv_pos_as_xyz
  1  'x, y, z'
loop_
 _atom_site_type_symbol
 _atom_site_label
 _atom_site_symmetry_multiplicity
 _atom_site_fract_x
 _atom_site_fract_y
 _atom_site_fract_z
 _atom_site_occupancy
  V  V0  1  0.61958042  0.25643179  0.37616582  1
  V  V1  1  0.74925084  0.00019988  0.75003322  1
  V  V2  1  0.12355176  0.12339855  -0.00010349  1
  V  V3  1  0.25111676  0.74914559  -0.00059950  1
  V  V4  1  0.49574326  0.25959873  0.24587955  1
  V  V5  1  0.62115079  0.25826254  0.87555434  1
  V  V6  1  0.12544655  0.74919814  0.87445236  1
  V  V7  1  0.62440221  0.00234235  0.62065259  1
  V  V8  1  0.50493877  0.12677598  0.61984596  1
  V  V9  1  -0.00004881  0.87538444  0.37490055  1
  V  V10  1  0.62423515  0.00121928  0.12568145  1
  V  V11  1  0.49942619  0.74702828  0.74693333  1
  V  V12  1  0.25054053  0.49883263  0.75111901  1
  V  V13  1  0.24659726  0.50076890  0.24443931  1
  V  V14  1  0.87440052  0.12603774  0.25127480  1
  V  V15  1  -0.00020297  0.74969132  0.24964169  1
  V  V16  1  0.75154803  0.62395522  0.87604034  1
  V  V17  1  0.87356091  0.62357200  0.25109201  1
  V  V18  1  0.12569928  0.74964010  0.37553939  1
  V  V19  1  0.87455689  0.24886998  0.12686211  1
  V  V20  1  0.87648877  0.62401338  0.75015851  1
  V  V21  1  0.49940819  0.87736213  0.37342216  1
  V  V22  1  0.38728483  0.49975312  0.37681938  1
  V  V23  1  0.25468462  0.25171925  0.00719455  1
  V  V24  1  0.12595553  0.37924426  0.24320282  1
  V  V25  1  0.00054287  0.49973169  0.50150856  1
  V  V26  1  0.37556659  0.75105885  0.12362987  1
  V  V27  1  0.50077480  0.62583924  0.12308601  1
  V  V28  1  0.74327569  0.24607140  0.50208413  1
  V  V29  1  0.00050463  0.37370040  0.87594812  1
  V  V30  1  0.12513553  0.62389350  0.49989824  1
  V  V31  1  0.37431299  0.87444173  -0.00099598  1
  V  V32  1  0.37551643  0.74984107  0.62400128  1
  V  V33  1  0.12584010  0.49970960  0.62556501  1
  V  V34  1  0.87543687  0.49921692  0.87559907  1
  V  V35  1  0.74138794  0.12483709  0.37959422  1
  V  V36  1  0.12589685  0.37482974  0.75010867  1
  V  V37  1  0.00556976  0.49895108  0.00714603  1
  V  V38  1  0.12396790  -0.00086804  0.12495053  1
  V  V39  1  0.37522482  0.00206206  0.37347933  1
  V  V40  1  0.87569131  0.87361167  -0.00041834  1
  V  V41  1  0.00025272  0.00032722  0.49957933  1
  V  V42  1  0.62508034  0.87503163  0.74871888  1
  V  V43  1  0.87526611  0.87422033  0.50002953  1
  V  V44  1  0.25157992  0.62274734  0.87483776  1
  V  V45  1  0.87608981  0.37443686  0.00118945  1
  V  V46  1  0.12600772  0.62022596  0.00652282  1
  V  V47  1  0.37504030  -0.00056320  0.87348606  1
  V  V48  1  0.12525348  0.87580214  0.24959235  1
  V  V49  1  0.62428184  0.12432536  -0.00013475  1
  V  V50  1  0.38877657  0.37964085  0.49520767  1
  V  V51  1  0.49946144  0.00073392  -0.00037252  1
  V  V52  1  0.37513719  0.12590275  0.74820365  1
  V  V53  1  0.24964336  0.00146975  0.24992258  1
  V  V54  1  0.00057259  0.87394313  0.87446176  1
  V  V55  1  0.12538451  0.24831536  0.87423996  1
  V  V56  1  -0.00001491  0.37491591  0.37533258  1
  V  V57  1  0.75092033  0.12387387  0.87428487  1
  V  V58  1  0.74746373  0.74684450  0.49875199  1
  V  V59  1  0.62508835  0.75124976  0.37500014  1
  V  V60  1  0.12567856  0.12614011  0.49921649  1
  V  V61  1  0.87474808  0.74842372  0.62559934  1
  V  V62  1  0.12464438  0.25063345  0.37497630  1
  V  V63  1  0.87426857  0.24932978  0.62648854  1
  V  V64  1  0.87520036  0.37379398  0.50117268  1
  V  V65  1  0.74835813  0.00057762  0.24997746  1
  V  V66  1  0.37397565  0.87745548  0.49954999  1
  V  V67  1  0.24965712  0.62497588  0.37537908  1
  V  V68  1  0.62543521  0.74952487  0.87409108  1
  V  V69  1  0.74777779  0.37681077  0.13038329  1
  V  V70  1  0.49985031  0.75212882  0.24935534  1
  V  V71  1  0.75115732  0.75020693  0.00034538  1
  V  V72  1  0.37544707  0.12866292  0.24367774  1
  V  V73  1  0.74973173  0.24948752  0.00131300  1
  V  V74  1  0.62007508  0.49971260  0.61965744  1
  V  V75  1  0.87334541  0.00030329  0.37488093  1
  V  V76  1  -0.00025295  -0.00158864  -0.00005520  1
  V  V77  1  0.00002009  0.12440316  0.62568019  1
  V  V78  1  -0.00035362  0.25000848  0.25037395  1
  V  V79  1  0.37463774  0.62540269  0.25046699  1
  V  V80  1  0.50091062  0.49427586  -0.00387743  1
  V  V81  1  0.37994389  0.49162006  0.87581159  1
  V  V82  1  0.12519134  0.87439315  0.74937445  1
  V  V83  1  0.87581382  0.74889387  0.12466685  1
  V  V84  1  0.25036346  -0.00006970  0.74858923  1
  V  V85  1  0.24959656  0.87619654  0.62448378  1
  V  V86  1  0.62496142  0.62554009  0.00011057  1
  V  V87  1  0.87356390  0.50020227  0.37632982  1
  V  V88  1  0.74926525  0.87532450  0.62493158  1
  V  V89  1  0.50269018  0.00459742  0.49889918  1
  V  V90  1  0.50026940  0.87508316  0.87394935  1
  V  V91  1  0.49997264  0.25665586  0.75426055  1
  V  V92  1  0.25024049  0.25520622  0.49944198  1
  Zn  Zn93  1  0.61738651  0.38234549  0.25580846  1
  Zn  Zn94  1  0.24947144  0.75052277  0.50000051  1
  Zn  Zn95  1  0.75037060  0.87499691  0.12582277  1
  Zn  Zn96  1  0.62467697  0.37955975  0.75269602  1
  Zn  Zn97  1  0.62477586  0.50121964  0.12734033  1
  Zn  Zn98  1  0.62565209  0.87635351  0.24825569  1
  Zn  Zn99  1  0.38532599  0.36612482  0.00541172  1
  Zn  Zn100  1  0.74657262  0.49933552  0.25330873  1
  Zn  Zn101  1  -0.00152759  0.12407340  0.12550362  1
  Zn  Zn102  1  0.61608917  0.61557019  0.49493935  1
  Zn  Zn103  1  0.00054810  0.62541119  0.62561085  1
  Zn  Zn104  1  -0.00038528  0.24866733  0.75062371  1
  Zn  Zn105  1  0.87519557  -0.00146424  0.87437704  1
  Zn  Zn106  1  0.87613565  0.12296712  0.75104815  1
  Zn  Zn107  1  0.00400372  0.62070157  0.12846826  1
  Zn  Zn108  1  0.25123312  0.12651606  0.37505824  1
  Zn  Zn109  1  0.74833498  0.62236274  0.37549758  1
  Zn  Zn110  1  0.49547407  0.61689932  0.61595006  1
  Zn  Zn111  1  0.00107148  0.75017567  0.74828039  1
  Zn  Zn112  1  0.25187420  0.37609537  0.62433983  1
  Zn  Zn113  1  0.37684860  0.25419691  0.62388606  1
  Zn  Zn114  1  0.12513388  -0.00098132  0.62411418  1
  Zn  Zn115  1  0.24955104  0.12464715  0.87414307  1
  Zn  Zn116  1  0.74860277  0.37603307  0.62899100  1
  Zn  Zn117  1  0.49437353  0.13052911  0.12159029  1
  Zn  Zn118  1  0.74879247  0.49506235  0.75024317  1
  Zn  Zn119  1  0.37525717  0.62161362  0.74846601  1
  Zn  Zn120  1  0.24999547  0.87533294  0.12416207  1
  Zn  Zn121  1  0.25578062  0.37449183  0.12678493  1
  Zn  Zn122  1  0.18537249  0.18527242  0.18798289  1
  Zn  Zn123  1  0.18876724  0.18890995  0.68474853  1
  Zn  Zn124  1  0.18945453  0.68894089  0.18738714  1
  Zn  Zn125  1  0.18875546  0.68582068  0.68767534  1
  Zn  Zn126  1  0.68394277  0.18864149  0.19092306  1
  Zn  Zn127  1  0.68522219  0.18825427  0.69071846  1
  Zn  Zn128  1  0.68823537  0.68802954  0.18693845  1
  Zn  Zn129  1  0.68817174  0.68211602  0.68668501  1
  Zn  Zn130  1  0.31350698  0.31574406  0.31509621  1
  Zn  Zn131  1  0.31202510  0.31292513  0.81598705  1
  Zn  Zn132  1  0.31147985  0.81382589  0.31194361  1
  Zn  Zn133  1  0.31172558  0.81191576  0.81172547  1
  Zn  Zn134  1  0.81100689  0.31149437  0.31514433  1
  Zn  Zn135  1  0.81107021  0.31221237  0.81183498  1
  Zn  Zn136  1  0.81160997  0.81360608  0.31067538  1
  Zn  Zn137  1  0.81369688  0.81138433  0.81280280  1
  Zn  Zn138  1  0.19019829  0.43891507  0.43296125  1
  Zn  Zn139  1  0.18904479  0.43609508  0.93618590  1
  Zn  Zn140  1  0.18826280  0.93912350  0.43705216  1
  Zn  Zn141  1  0.18819200  0.93717122  0.93579270  1
  Zn  Zn142  1  0.69026446  0.43398445  0.44069232  1
  Zn  Zn143  1  0.68942498  0.43921536  0.94155179  1
  Zn  Zn144  1  0.68575876  0.93600538  0.43853327  1
  Zn  Zn145  1  0.68793060  0.93627154  0.93836359  1
  Zn  Zn146  1  0.30886896  0.06353862  0.06219785  1
  Zn  Zn147  1  0.31359738  0.06459895  0.56230605  1
  Zn  Zn148  1  0.31611234  0.56146884  0.06159692  1
  Zn  Zn149  1  0.31188868  0.56160413  0.56165089  1
  Zn  Zn150  1  0.81287464  0.06114420  0.06262494  1
  Zn  Zn151  1  0.81248656  0.06259078  0.56220872  1
  Zn  Zn152  1  0.81476971  0.56159226  0.06356222  1
  Zn  Zn153  1  0.80830925  0.56050659  0.56550713  1
  Zn  Zn154  1  0.43145061  0.43983032  0.18150956  1
  Zn  Zn155  1  0.43532217  0.43641082  0.68442071  1
  Zn  Zn156  1  0.43715620  0.93907946  0.18627583  1
  Zn  Zn157  1  0.43823882  0.93783117  0.68576822  1
  Zn  Zn158  1  0.93564413  0.43631361  0.18871250  1
  Zn  Zn159  1  0.93953693  0.43665787  0.68880318  1
  Zn  Zn160  1  0.93654688  0.93721420  0.18641212  1
  Zn  Zn161  1  0.93621216  0.93760645  0.68906847  1
  Zn  Zn162  1  0.06247539  0.06372775  0.31297585  1
  Zn  Zn163  1  0.06277798  0.06016413  0.81194889  1
  Zn  Zn164  1  0.06145852  0.56162300  0.31426499  1
  Zn  Zn165  1  0.06261269  0.56132882  0.81595122  1
  Zn  Zn166  1  0.55949335  0.06813147  0.30991925  1
  Zn  Zn167  1  0.56313979  0.06521370  0.81026123  1
  Zn  Zn168  1  0.56512015  0.56647849  0.30902472  1
  Zn  Zn169  1  0.56392073  0.56109319  0.81017990  1
  Zn  Zn170  1  0.43607300  0.19029372  0.43300063  1
  Zn  Zn171  1  0.43784402  0.18496865  0.93461333  1
  Zn  Zn172  1  0.43753977  0.68696366  0.43750263  1
  Zn  Zn173  1  0.43724606  0.68348387  0.93511653  1
  Zn  Zn174  1  0.93516444  0.18727398  0.43799917  1
  Zn  Zn175  1  0.93758291  0.18628601  0.93988919  1
  Zn  Zn176  1  0.93833801  0.68643045  0.43746004  1
  Zn  Zn177  1  0.94059687  0.68653283  0.93748874  1
  Zn  Zn178  1  0.06416238  0.31017944  0.06346663  1
  Zn  Zn179  1  0.06302321  0.31341492  0.56350439  1
  Zn  Zn180  1  0.06276238  0.81053174  0.06280472  1
  Zn  Zn181  1  0.06227792  0.81027427  0.56331854  1
  Zn  Zn182  1  0.56526524  0.31274392  0.06577869  1
  Zn  Zn183  1  0.56386480  0.31353920  0.56669421  1
  Zn  Zn184  1  0.56296047  0.81421524  0.06186946  1
  Zn  Zn185  1  0.56073329  0.81456268  0.55981543  1
  O  O186  1  0.12111751  0.11705177  0.11858084  1
  O  O187  1  0.11446018  0.12519413  0.61871816  1
  O  O188  1  0.12434762  0.63027607  0.11042923  1
  O  O189  1  0.12386650  0.61817087  0.61869037  1
  O  O190  1  0.62557458  0.11513116  0.11844674  1
  O  O191  1  0.61225552  0.11870070  0.63219251  1
  O  O192  1  0.61895571  0.62640010  0.11748238  1
  O  O193  1  0.62506471  0.61072802  0.62388279  1
  O  O194  1  0.37152323  0.38518132  0.38718642  1
  O  O195  1  0.37040943  0.38797772  0.88341167  1
  O  O196  1  0.38024905  0.88157031  0.37916365  1
  O  O197  1  0.38096556  0.87980870  0.87907959  1
  O  O198  1  0.88055303  0.37905198  0.38113773  1
  O  O199  1  0.88056748  0.37745671  0.88235660  1
  O  O200  1  0.88034562  0.88040014  0.38004460  1
  O  O201  1  0.88186016  0.87464458  0.88167411  1
  O  O202  1  0.25693541  0.00262173  0.36805852  1
  O  O203  1  0.25724486  0.00191493  0.86698676  1
  O  O204  1  0.25800734  0.50727916  0.36518513  1
  O  O205  1  0.25857657  0.50373964  0.87126356  1
  O  O206  1  0.75272183  0.00724404  0.37260521  1
  O  O207  1  0.74783518  0.00938819  0.87014447  1
  O  O208  1  0.75842883  0.50215377  0.37523291  1
  O  O209  1  0.75859205  0.50683075  0.87736350  1
  O  O210  1  0.25396827  0.50404035  0.14184646  1
  O  O211  1  0.24356790  0.49892971  0.63305116  1
  O  O212  1  0.24173613  0.99773558  0.13135127  1
  O  O213  1  0.24961358  0.99411337  0.63060643  1
  O  O214  1  0.75084688  0.48833574  0.12558263  1
  O  O215  1  0.73898354  0.49679902  0.62931242  1
  O  O216  1  0.74029083  1.00011801  0.13043314  1
  O  O217  1  0.74479791  0.99526565  0.62870847  1
  O  O218  1  0.00679505  0.37092872  0.25528959  1
  O  O219  1  0.00710968  0.37167566  0.75859923  1
  O  O220  1  0.00454755  0.87011371  0.25648486  1
  O  O221  1  0.00675113  0.87405838  0.75597488  1
  O  O222  1  0.49643547  0.36238590  0.24692874  1
  O  O223  1  0.49828492  0.35853822  0.74558598  1
  O  O224  1  0.50078500  0.86979272  0.25578325  1
  O  O225  1  0.50524295  0.86760563  0.75463866  1
  O  O226  1  0.49044636  0.13438061  0.24616332  1
  O  O227  1  0.49187050  0.13136505  0.74210037  1
  O  O228  1  0.49358461  0.63331125  0.24320912  1
  O  O229  1  0.49927858  0.63993655  0.74624652  1
  O  O230  1  0.99229400  0.13208951  0.25036550  1
  O  O231  1  0.99864917  0.12562251  0.73821608  1
  O  O232  1  0.99127964  0.62980249  0.24985338  1
  O  O233  1  0.98775821  0.62586199  0.75131100  1
  O  O234  1  0.35792284  0.24825829  -0.01165889  1
  O  O235  1  0.36734060  0.26287481  0.49548412  1
  O  O236  1  0.37125841  0.75414440  0.00317574  1
  O  O237  1  0.37345646  0.75882391  0.50957011  1
  O  O238  1  0.86950317  0.25495693  0.00612638  1
  O  O239  1  0.86731673  0.25334851  0.50799489  1
  O  O240  1  0.87107760  0.75292629  0.00479788  1
  O  O241  1  0.86662619  0.75458095  0.50353748  1
  O  O242  1  0.13150680  0.24674971  0.49522798  1
  O  O243  1  0.13097076  0.24377575  0.99197160  1
  O  O244  1  0.12643728  0.74325996  0.49298181  1
  O  O245  1  0.13097264  0.74159707  0.99387518  1
  O  O246  1  0.63642360  0.25452007  0.49458853  1
  O  O247  1  0.62909368  0.24392251  0.99392924  1
  O  O248  1  0.63488049  0.75675738  0.49070614  1
  O  O249  1  0.62975657  0.74588780  0.99334218  1
  O  O250  1  0.50697369  0.24701627  0.14125680  1
  O  O251  1  0.49910492  0.24123495  0.63396097  1
  O  O252  1  0.49507241  0.74636817  0.12902787  1
  O  O253  1  0.49046867  0.75774162  0.63431115  1
  O  O254  1  0.99239292  0.24869858  0.13215399  1
  O  O255  1  0.99140020  0.24042394  0.62309925  1
  O  O256  1  0.99376996  0.74697700  0.13245445  1
  O  O257  1  0.99052999  0.74623059  0.62699297  1
  O  O258  1  0.00355975  0.25584288  0.37056139  1
  O  O259  1  0.00994033  0.25400024  0.87630333  1
  O  O260  1  0.00532458  0.75621615  0.36975485  1
  O  O261  1  0.00802325  0.75622428  0.87359669  1
  O  O262  1  0.51184084  0.24294849  0.36431242  1
  O  O263  1  0.51090632  0.24132455  0.86639356  1
  O  O264  1  0.50699543  0.75724941  0.36890959  1
  O  O265  1  0.50453210  0.75474127  0.86596500  1
  O  O266  1  0.24581571  0.13637931  0.49910428  1
  O  O267  1  0.24320094  0.13457866  0.99571455  1
  O  O268  1  0.24317591  0.62633836  0.49267930  1
  O  O269  1  0.24382489  0.62802859  0.99507036  1
  O  O270  1  0.75607120  0.13411763  0.48983722  1
  O  O271  1  0.74488704  0.12931753  0.99258280  1
  O  O272  1  0.74740969  0.63915094  0.49870281  1
  O  O273  1  0.74599906  0.63049945  0.99538618  1
  O  O274  1  0.24330009  0.35819176  0.00158962  1
  O  O275  1  0.25211035  0.36532178  0.49979102  1
  O  O276  1  0.25696877  0.86747510  -0.00048728  1
  O  O277  1  0.25632432  0.87462513  0.50589186  1
  O  O278  1  0.75644204  0.36881930  0.00900015  1
  O  O279  1  0.75853799  0.36089543  0.50427591  1
  O  O280  1  0.75696260  0.86726543  0.00016525  1
  O  O281  1  0.75608715  0.86726472  0.50508109  1
  O  O282  1  0.13354514  0.49046959  0.25862953  1
  O  O283  1  0.13009059  0.49447652  0.74730102  1
  O  O284  1  0.12885716  0.99556794  0.24590251  1
  O  O285  1  0.13244894  0.99304304  0.74725589  1
  O  O286  1  0.62881292  0.49780821  0.24621194  1
  O  O287  1  0.62850338  0.49794140  0.74214467  1
  O  O288  1  0.62873505  1.00244833  0.24086020  1
  O  O289  1  0.62928895  0.99392448  0.74295610  1
  O  O290  1  0.37030138  0.00767089  0.25425127  1
  O  O291  1  0.37182554  0.00692973  0.75356689  1
  O  O292  1  0.36728019  0.50655300  0.25802054  1
  O  O293  1  0.37082419  0.49951724  0.75816957  1
  O  O294  1  0.86908921  0.00531433  0.25607139  1
  O  O295  1  0.86512000  0.00260498  0.75331000  1
  O  O296  1  0.87587468  0.50902770  0.25685832  1
  O  O297  1  0.87558799  0.50797464  0.75713954  1
  O  O298  1  0.11862831  0.36955412  0.36650277  1
  O  O299  1  0.11997526  0.36618820  0.87041478  1
  O  O300  1  0.11908750  0.87042398  0.36971935  1
  O  O301  1  0.12074689  0.86870115  0.86928612  1
  O  O302  1  0.63293523  0.36086329  0.37238333  1
  O  O303  1  0.63114376  0.36031725  0.87795436  1
  O  O304  1  0.61837595  0.86663347  0.37255160  1
  O  O305  1  0.61984318  0.86916586  0.86908307  1
  O  O306  1  0.37465859  0.12068403  0.13880490  1
  O  O307  1  0.38436286  0.12651369  0.63537468  1
  O  O308  1  0.38089813  0.63211989  0.13047182  1
  O  O309  1  0.37520628  0.63693906  0.62702208  1
  O  O310  1  0.87399744  0.13148337  0.13285068  1
  O  O311  1  0.88395918  0.13274109  0.62317545  1
  O  O312  1  0.87809465  0.62985349  0.13495408  1
  O  O313  1  0.87436495  0.62915875  0.63495869  1
  O  O314  1  0.24491220  0.24655284  0.10896188  1
  O  O315  1  0.25416481  0.25245749  0.61293134  1
  O  O316  1  0.25819620  0.75163054  0.11762478  1
  O  O317  1  0.26098019  0.75660822  0.62562517  1
  O  O318  1  0.75396528  0.25607079  0.12099645  1
  O  O319  1  0.75796002  0.24412093  0.61744427  1
  O  O320  1  0.75693300  0.75162130  0.11776940  1
  O  O321  1  0.75313221  0.75546759  0.61702808  1
  O  O322  1  0.24338017  0.24959564  0.38387640  1
  O  O323  1  0.23732003  0.24827756  0.88232648  1
  O  O324  1  0.24355001  0.74353673  0.37526675  1
  O  O325  1  0.24598220  0.74353625  0.88023756  1
  O  O326  1  0.74387354  0.24230493  0.38284397  1
  O  O327  1  0.74242898  0.24128983  0.88098390  1
  O  O328  1  0.74220054  0.75244455  0.38274343  1
  O  O329  1  0.74447646  0.74433611  0.88042210  1
  O  O330  1  0.00559505  0.11702799  0.00184411  1
  O  O331  1  0.00399511  0.12059497  0.50694809  1
  O  O332  1  0.00914713  0.61553175  0.00011537  1
  O  O333  1  0.00678894  0.61710159  0.50037309  1
  O  O334  1  0.50526566  0.11888419  0.00146807  1
  O  O335  1  0.49017026  0.12195114  0.51294716  1
  O  O336  1  0.50628886  0.61968387  0.00418566  1
  O  O337  1  0.50711588  0.63857761  0.50674640  1
  O  O338  1  0.48632209  0.36876137  0.50001329  1
  O  O339  1  0.50428403  0.39013320  1.00507338  1
  O  O340  1  0.49274335  0.88311862  0.49321524  1
  O  O341  1  0.49438737  0.88039663  0.99251652  1
  O  O342  1  0.99517776  0.37955444  0.49437533  1
  O  O343  1  0.99732018  0.38029467  0.99625680  1
  O  O344  1  0.99470926  0.87994869  0.49455583  1
  O  O345  1  0.99594317  0.87862147  0.99391435  1
  O  O346  1  0.48571081  0.50781425  0.36896902  1
  O  O347  1  0.49137495  0.50833713  0.88388865  1
  O  O348  1  0.49576356  0.99740060  0.37881062  1
  O  O349  1  0.49587576  0.99502503  0.87885965  1
  O  O350  1  0.99370729  0.49344872  0.38193623  1
  O  O351  1  0.99504572  0.49278346  0.88534100  1
  O  O352  1  0.99326662  0.99509474  0.37992892  1
  O  O353  1  0.99870044  0.99255397  0.88183152  1
  O  O354  1  0.00605597  0.00054663  0.11820835  1
  O  O355  1  -0.00133413  0.00933024  0.61823239  1
  O  O356  1  -0.00443693  0.49916218  0.11085719  1
  O  O357  1  0.00718931  0.50122789  0.61857531  1
  O  O358  1  0.50889746  0.00247028  0.11806748  1
  O  O359  1  0.50417529  0.00767642  0.61991828  1
  O  O360  1  0.50059033  0.50972787  0.11487697  1
  O  O361  1  0.51469493  0.50040846  0.63213974  1
  O  O362  1  0.24233083  0.38325332  0.25199320  1
  O  O363  1  0.24387732  0.38077888  0.74932452  1
  O  O364  1  0.24298703  0.88260242  0.24832727  1
  O  O365  1  0.24541078  0.88057207  0.74458452  1
  O  O366  1  0.75176828  0.37475831  0.23947690  1
  O  O367  1  0.74573404  0.37559816  0.74670177  1
  O  O368  1  0.74708609  0.88472713  0.24757261  1
  O  O369  1  0.74425768  0.87913827  0.74465277  1
  O  O370  1  0.25746733  0.12099368  0.25251377  1
  O  O371  1  0.26042673  0.12037091  0.74811238  1
  O  O372  1  0.25417639  0.61969410  0.25555113  1
  O  O373  1  0.25085000  0.61655822  0.75768869  1
  O  O374  1  0.75476672  0.12128691  0.26035524  1
  O  O375  1  0.74896962  0.11936851  0.75975890  1
  O  O376  1  0.76315469  0.62490211  0.25197608  1
  O  O377  1  0.76240320  0.62479948  0.75812298  1
  O  O378  1  0.37401545  0.11874315  0.36388546  1
  O  O379  1  0.37469002  0.11784527  0.86211388  1
  O  O380  1  0.36904838  0.62027223  0.36980101  1
  O  O381  1  0.36814499  0.61546566  0.87154041  1
  O  O382  1  0.86529392  0.11975536  0.37077494  1
  O  O383  1  0.86160714  0.12513364  0.87497218  1
  O  O384  1  0.87448826  0.62001034  0.36630495  1
  O  O385  1  0.87149943  0.62025263  0.86916704  1
  O  O386  1  0.12928020  0.36908393  0.14031955  1
  O  O387  1  0.12591428  0.38139095  0.63266987  1
  O  O388  1  0.12585465  0.88040013  0.13213784  1
  O  O389  1  0.13132155  0.87539467  0.63054493  1
  O  O390  1  0.63816753  0.37654478  0.12818092  1
  O  O391  1  0.62629594  0.38651898  0.62834213  1
  O  O392  1  0.62662184  0.88853960  0.12503222  1
  O  O393  1  0.63030869  0.88060439  0.63005363  1
  O  O394  1  0.11989425  0.25710639  0.25586798  1
  O  O395  1  0.12491544  0.25406604  0.75911637  1
  O  O396  1  0.11981760  0.75508247  0.25544117  1
  O  O397  1  0.12502585  0.75561606  0.75648811  1
  O  O398  1  0.61300238  0.25233403  0.25809904  1
  O  O399  1  0.61629327  0.25053831  0.75958027  1
  O  O400  1  0.61998623  0.75215332  0.25855201  1
  O  O401  1  0.61844996  0.75490979  0.75319640  1
  O  O402  1  0.38805820  0.24372397  0.26024402  1
  O  O403  1  0.38117580  0.24171486  0.75205220  1
  O  O404  1  0.37973447  0.74531780  0.24470277  1
  O  O405  1  0.38336647  0.75154005  0.74130462  1
  O  O406  1  0.88010489  0.24540987  0.24708078  1
  O  O407  1  0.87697437  0.24574936  0.73826670  1
  O  O408  1  0.88008361  0.74257805  0.24666435  1
  O  O409  1  0.87538640  0.74064722  0.74442289  1
  O  O410  1  0.36996767  0.48748857  0.49259625  1
  O  O411  1  0.38545238  0.50285506  0.99090629  1
  O  O412  1  0.38132137  0.99669074  0.49368864  1
  O  O413  1  0.37923610  0.99577454  0.99371324  1
  O  O414  1  0.87974957  0.49419677  0.49687921  1
  O  O415  1  0.88457677  0.49430752  0.99469959  1
  O  O416  1  0.87949428  0.99378188  0.49431866  1
  O  O417  1  0.88111219  0.99239105  0.99858660  1
  O  O418  1  0.12045750  0.00360143  0.00424610  1
  O  O419  1  0.11793023  0.00710248  0.50103015  1
  O  O420  1  0.11717266  0.50833135  -0.00739049  1
  O  O421  1  0.12066062  0.50391435  0.50403517  1
  O  O422  1  0.61987847  0.00444051  0.00618826  1
  O  O423  1  0.61591157  -0.00555424  0.50794352  1
  O  O424  1  0.61722716  0.50824696  0.00016475  1
  O  O425  1  0.63031902  0.49824206  0.51425175  1
  O  O426  1  0.36762169  0.37751051  0.11615935  1
  O  O427  1  0.37161747  0.37486837  0.60861997  1
  O  O428  1  0.37469589  0.86899412  0.11663658  1
  O  O429  1  0.36996163  0.86909020  0.62009638  1
  O  O430  1  0.86800249  0.36822997  0.12050162  1
  O  O431  1  0.87764055  0.36282913  0.61993883  1
  O  O432  1  0.87394570  0.86704323  0.11794898  1
  O  O433  1  0.86870659  0.86944502  0.61960521  1
  O  O434  1  0.12557601  0.13285214  0.38194172  1
  O  O435  1  0.12504496  0.13325051  0.87938646  1
  O  O436  1  0.12956388  0.63026506  0.37981079  1
  O  O437  1  0.13136799  0.62929039  0.88415924  1
  O  O438  1  0.63669688  0.13405915  0.37050752  1
  O  O439  1  0.63373376  0.13168977  0.87997547  1
  O  O440  1  0.62770825  0.63940015  0.37592860  1
  O  O441  1  0.63122167  0.63144893  0.87967332  1
