# generated using pymatgen
data_V93Zn93O256
_symmetry_space_group_name_H-M   'P 1'
_cell_length_a   17.04970174
_cell_length_b   17.05201844
_cell_length_c   17.05666458
_cell_angle_alpha   89.96263069
_cell_angle_beta   89.96814121
_cell_angle_gamma   89.97112849
_symmetry_Int_Tables_number   1
_chemical_formula_structural   V93Zn93O256
_chemical_formula_sum   'V93 Zn93 O256'
_cell_volume   4958.91283059
_cell_formula_units_Z   1
loop_
 _symmetry_equiv_pos_site_id
 _symmetry_equiv_pos_as_xyz
  1  'x, y, z'
loop_
 _atom_site_type_symbol
 _atom_site_label
 _atom_site_symmetry_multiplicity
 _atom_site_fract_x
 _atom_site_fract_y
 _atom_site_fract_z
 _atom_site_occupancy
  V  V0  1  0.37233532  0.62707155  0.25164862  1
  V  V1  1  0.75114950  0.12443645  0.87433170  1
  V  V2  1  0.12471752  0.62459196  0.00244644  1
  V  V3  1  0.00465845  0.12581089  0.11739448  1
  V  V4  1  0.49929399  0.49951800  0.49979496  1
  V  V5  1  0.25108602  0.12278015  0.87846525  1
  V  V6  1  0.25657537  -0.00082448  0.75525929  1
  V  V7  1  0.37946051  0.62823927  0.75220811  1
  V  V8  1  0.00048242  0.50104692  -0.00046758  1
  V  V9  1  0.37383679  0.50093870  0.37692775  1
  V  V10  1  0.12555527  0.75067644  0.87670292  1
  V  V11  1  0.12537657  0.25120914  0.37620946  1
  V  V12  1  0.62308577  0.62509982  -0.00103175  1
  V  V13  1  0.62321507  0.49949516  0.12367412  1
  V  V14  1  0.49915015  0.12433821  0.12483707  1
  V  V15  1  0.12681424  0.00071719  0.62695962  1
  V  V16  1  0.87369436  0.63177857  0.24126411  1
  V  V17  1  0.24053599  0.62704802  0.38043701  1
  V  V18  1  0.37400558  0.37543057  0.00000216  1
  V  V19  1  0.49790639  0.88003683  0.87469005  1
  V  V20  1  0.87707213  0.25023495  0.62361925  1
  V  V21  1  0.74925470  0.62435206  0.87256337  1
  V  V22  1  0.75254655  0.75076327  0.00343372  1
  V  V23  1  0.50022649  0.24905958  0.75050470  1
  V  V24  1  0.12551189  0.00427607  0.11875650  1
  V  V25  1  0.37563772  0.87407317  0.50195572  1
  V  V26  1  0.00170095  0.24923460  0.74976479  1
  V  V27  1  0.87408453  0.50020327  0.87349285  1
  V  V28  1  0.74873219  0.37393601  0.12462519  1
  V  V29  1  0.49987575  -0.00105052  0.50020648  1
  V  V30  1  0.12564155  0.37546415  0.75066146  1
  V  V31  1  0.87640195  0.37710196  0.49805459  1
  V  V32  1  0.62869356  -0.00272282  0.62552705  1
  V  V33  1  0.62376687  0.87448397  0.25048034  1
  V  V34  1  -0.00103430  0.75889478  0.24734494  1
  V  V35  1  0.37607920  0.49954308  0.87497392  1
  V  V36  1  -0.00018886  0.87594444  0.87606906  1
  V  V37  1  0.87795446  0.87065126  0.49329891  1
  V  V38  1  0.00112568  0.12462774  0.62444425  1
  V  V39  1  0.75069682  0.49905295  0.74936947  1
  V  V40  1  0.12574777  0.24697190  0.87694195  1
  V  V41  1  0.62397057  -0.00225199  0.12198088  1
  V  V42  1  0.74797664  0.62535227  0.37443271  1
  V  V43  1  0.61871447  0.74970582  0.87004913  1
  V  V44  1  0.24968451  0.00047495  0.25118730  1
  V  V45  1  0.74998600  0.00055009  0.25104614  1
  V  V46  1  0.24298719  0.74635348  0.50148879  1
  V  V47  1  -0.00202770  0.74665281  0.74924551  1
  V  V48  1  0.25137642  0.24977856  0.50234533  1
  V  V49  1  -0.00071762  0.37626239  0.37424056  1
  V  V50  1  0.87496905  0.24998382  0.12458129  1
  V  V51  1  0.62590032  0.37429698  0.74911149  1
  V  V52  1  0.49950159  0.37378305  0.87579606  1
  V  V53  1  0.49945703  0.37521450  0.37501226  1
  V  V54  1  0.24513804  0.24576032  0.00121468  1
  V  V55  1  0.37543502  0.88082454  -0.00278862  1
  V  V56  1  0.49968677  0.25006041  0.25093469  1
  V  V57  1  0.37722268  0.74964392  0.62835116  1
  V  V58  1  0.50104760  0.12481780  0.62581940  1
  V  V59  1  0.87472654  0.87198988  0.00380347  1
  V  V60  1  0.74932744  0.24868752  -0.00103638  1
  V  V61  1  0.12503771  0.37683545  0.25020020  1
  V  V62  1  0.25079417  0.12471373  0.37531308  1
  V  V63  1  0.37493396  0.25051775  0.62565714  1
  V  V64  1  0.62198133  0.87109503  0.74893919  1
  V  V65  1  0.87598941  0.00003707  0.87444622  1
  V  V66  1  -0.00030044  0.25033239  0.24961039  1
  V  V67  1  0.24908131  0.37770847  0.12652589  1
  V  V68  1  0.37651942  0.12227461  0.75421467  1
  V  V69  1  0.49769881  0.62601873  0.12524698  1
  V  V70  1  0.24982165  0.49968971  0.75060700  1
  V  V71  1  0.12664673  0.87548627  0.75147174  1
  V  V72  1  0.62416363  0.74968548  0.37515814  1
  V  V73  1  0.62341337  0.37422466  0.24979575  1
  V  V74  1  0.87419866  0.50016634  0.37307219  1
  V  V75  1  0.00021581  0.37413936  0.87509930  1
  V  V76  1  0.75099575  0.37585313  0.62437361  1
  V  V77  1  0.12116421  0.50763084  0.61941828  1
  V  V78  1  0.62489773  0.62497472  0.49896079  1
  V  V79  1  0.62546349  0.24801970  0.87480665  1
  V  V80  1  0.87429995  0.12447073  0.24936353  1
  V  V81  1  0.00170883  -0.00351954  0.49155535  1
  V  V82  1  0.24904746  0.75099337  0.00144711  1
  V  V83  1  0.37489978  0.12459231  0.25192953  1
  V  V84  1  0.49938220  0.87425355  0.37581343  1
  V  V85  1  0.87474277  0.37539284  -0.00033317  1
  V  V86  1  0.12545793  0.12515603  0.50064559  1
  V  V87  1  0.74919430  0.50036912  0.24873765  1
  V  V88  1  0.87623033  0.12325347  0.74951341  1
  V  V89  1  0.50088836  0.62558949  0.62686471  1
  V  V90  1  0.75050526  0.24885273  0.49884852  1
  V  V91  1  0.62708564  0.12480216  0.49914882  1
  V  V92  1  0.24738164  0.87460364  0.12858693  1
  Zn  Zn93  1  0.37393669  -0.00110547  0.37710558  1
  Zn  Zn94  1  0.37521486  0.37453394  0.50202560  1
  Zn  Zn95  1  0.11529992  0.88028583  0.26112230  1
  Zn  Zn96  1  0.62589776  0.24853057  0.37494924  1
  Zn  Zn97  1  0.88089207  -0.00164810  0.37082559  1
  Zn  Zn98  1  0.87617915  0.62417788  0.74522376  1
  Zn  Zn99  1  0.49888801  0.49932603  -0.00051582  1
  Zn  Zn100  1  0.62335936  0.12327455  -0.00214219  1
  Zn  Zn101  1  -0.00854978  0.62967688  0.12040693  1
  Zn  Zn102  1  0.25029191  0.37515367  0.62361489  1
  Zn  Zn103  1  0.00467764  0.50916755  0.49224816  1
  Zn  Zn104  1  0.25180213  0.87493620  0.62679617  1
  Zn  Zn105  1  0.00035922  0.63440687  0.60819440  1
  Zn  Zn106  1  0.37403165  0.25027616  0.12549534  1
  Zn  Zn107  1  0.75412370  0.87126998  0.62703977  1
  Zn  Zn108  1  0.87248216  0.74881455  0.62658418  1
  Zn  Zn109  1  0.12096731  0.50206332  0.12776041  1
  Zn  Zn110  1  0.11202093  0.75554868  0.38411153  1
  Zn  Zn111  1  0.37464018  0.75154794  0.12575069  1
  Zn  Zn112  1  0.49858472  0.75158189  0.25058989  1
  Zn  Zn113  1  0.00268059  0.00193326  -0.00230324  1
  Zn  Zn114  1  0.24568044  0.50288096  0.25283572  1
  Zn  Zn115  1  0.62636107  0.50003026  0.62424363  1
  Zn  Zn116  1  0.74972160  0.75083270  0.50197465  1
  Zn  Zn117  1  0.75116525  0.12611844  0.37493591  1
  Zn  Zn118  1  0.49510235  0.00389984  -0.00472716  1
  Zn  Zn119  1  0.75276777  0.86949296  0.12769147  1
  Zn  Zn120  1  0.25263410  0.62634025  0.87724733  1
  Zn  Zn121  1  0.75201787  -0.00240412  0.75029158  1
  Zn  Zn122  1  0.18661962  0.18857702  0.18820881  1
  Zn  Zn123  1  0.18927020  0.18624874  0.68965466  1
  Zn  Zn124  1  0.18325119  0.69053203  0.19020438  1
  Zn  Zn125  1  0.18912970  0.68718706  0.68915318  1
  Zn  Zn126  1  0.68568527  0.18630308  0.18704593  1
  Zn  Zn127  1  0.68974248  0.18702472  0.68683377  1
  Zn  Zn128  1  0.68498020  0.68726224  0.18776987  1
  Zn  Zn129  1  0.69002785  0.68790157  0.68566567  1
  Zn  Zn130  1  0.31399619  0.31200431  0.31307663  1
  Zn  Zn131  1  0.31296590  0.31116443  0.81288617  1
  Zn  Zn132  1  0.31021552  0.81207512  0.31608861  1
  Zn  Zn133  1  0.31328331  0.81252297  0.81516293  1
  Zn  Zn134  1  0.81120921  0.31166820  0.31258282  1
  Zn  Zn135  1  0.81329235  0.31154159  0.81132414  1
  Zn  Zn136  1  0.81306098  0.81221079  0.31430057  1
  Zn  Zn137  1  0.81024329  0.81323669  0.81487934  1
  Zn  Zn138  1  0.19059668  0.43640780  0.43801572  1
  Zn  Zn139  1  0.18802739  0.43701703  0.93761300  1
  Zn  Zn140  1  0.18900878  0.93381659  0.43874327  1
  Zn  Zn141  1  0.18847995  0.93733052  0.93803668  1
  Zn  Zn142  1  0.68656183  0.43779026  0.43736514  1
  Zn  Zn143  1  0.68622004  0.43685035  0.93694308  1
  Zn  Zn144  1  0.69009177  0.93533070  0.43725395  1
  Zn  Zn145  1  0.68851197  0.93706834  0.93622193  1
  Zn  Zn146  1  0.31265877  0.06175674  0.06383135  1
  Zn  Zn147  1  0.31337671  0.06314103  0.56578624  1
  Zn  Zn148  1  0.31128925  0.56158476  0.06263276  1
  Zn  Zn149  1  0.31151759  0.56236723  0.56311259  1
  Zn  Zn150  1  0.81362765  0.06081809  0.06138468  1
  Zn  Zn151  1  0.81481336  0.05998202  0.56071917  1
  Zn  Zn152  1  0.80909458  0.56151736  0.05934346  1
  Zn  Zn153  1  0.81621091  0.56514420  0.56256975  1
  Zn  Zn154  1  0.43444961  0.43983004  0.18888566  1
  Zn  Zn155  1  0.43757977  0.43710426  0.68720770  1
  Zn  Zn156  1  0.43522558  0.93761530  0.18814404  1
  Zn  Zn157  1  0.44050114  0.93643405  0.68904680  1
  Zn  Zn158  1  0.93744651  0.44090492  0.18643994  1
  Zn  Zn159  1  0.93854054  0.43768026  0.68711364  1
  Zn  Zn160  1  0.93620709  0.94019543  0.18268806  1
  Zn  Zn161  1  0.93862015  0.93458837  0.68350188  1
  Zn  Zn162  1  0.06578080  0.06487917  0.30823410  1
  Zn  Zn163  1  0.06630082  0.06237044  0.81395284  1
  Zn  Zn164  1  0.05887462  0.56650531  0.30925032  1
  Zn  Zn165  1  0.06399632  0.56370631  0.81419493  1
  Zn  Zn166  1  0.56288729  0.06171781  0.31406497  1
  Zn  Zn167  1  0.56484652  0.06027741  0.81134221  1
  Zn  Zn168  1  0.56078693  0.56173003  0.31185937  1
  Zn  Zn169  1  0.56294821  0.55994306  0.81163450  1
  Zn  Zn170  1  0.43833111  0.18730835  0.43814578  1
  Zn  Zn171  1  0.43339573  0.18857746  0.93907051  1
  Zn  Zn172  1  0.43528229  0.68826282  0.43918079  1
  Zn  Zn173  1  0.43666759  0.69188822  0.93964699  1
  Zn  Zn174  1  0.93691153  0.18550073  0.43562959  1
  Zn  Zn175  1  0.93609667  0.18810178  0.93672668  1
  Zn  Zn176  1  0.93868085  0.68488925  0.43004073  1
  Zn  Zn177  1  0.93667457  0.68762524  0.93399795  1
  Zn  Zn178  1  0.06357164  0.31373154  0.06270213  1
  Zn  Zn179  1  0.06384326  0.31819940  0.56260192  1
  Zn  Zn180  1  0.05953103  0.81154643  0.06752219  1
  Zn  Zn181  1  0.06206039  0.81737688  0.56616612  1
  Zn  Zn182  1  0.56193923  0.31051113  0.06171843  1
  Zn  Zn183  1  0.56343370  0.31243896  0.56181350  1
  Zn  Zn184  1  0.56252679  0.81179722  0.06007503  1
  Zn  Zn185  1  0.56170501  0.81001246  0.56209510  1
  O  O186  1  0.11561223  0.11751592  0.13064856  1
  O  O187  1  0.12018907  0.12090601  0.62041714  1
  O  O188  1  0.12616055  0.62367729  0.11062698  1
  O  O189  1  0.12420589  0.61022901  0.63192651  1
  O  O190  1  0.61476288  0.11616405  0.12444925  1
  O  O191  1  0.62070961  0.11610240  0.62139284  1
  O  O192  1  0.61612033  0.61923103  0.12030695  1
  O  O193  1  0.61419797  0.62487498  0.62073439  1
  O  O194  1  0.38143961  0.38300327  0.37565121  1
  O  O195  1  0.38031713  0.37938260  0.87937442  1
  O  O196  1  0.38109484  0.87622607  0.38372461  1
  O  O197  1  0.38712387  0.86680992  0.88364195  1
  O  O198  1  0.87995332  0.37992662  0.37765270  1
  O  O199  1  0.88043267  0.37885790  0.88049613  1
  O  O200  1  0.87217565  0.88061342  0.38871159  1
  O  O201  1  0.88001942  0.88148208  0.88192766  1
  O  O202  1  0.25071547  0.00849619  0.36944461  1
  O  O203  1  0.24452171  0.00889778  0.86559302  1
  O  O204  1  0.25546087  0.51013158  0.37638472  1
  O  O205  1  0.25630886  0.50125701  0.86546334  1
  O  O206  1  0.74866275  0.00181354  0.35913474  1
  O  O207  1  0.75661800  0.00712866  0.87296725  1
  O  O208  1  0.75351404  0.50458248  0.36676771  1
  O  O209  1  0.75424895  0.50371047  0.86973626  1
  O  O210  1  0.24657477  0.48728287  0.12630349  1
  O  O211  1  0.24149943  0.49989488  0.63545335  1
  O  O212  1  0.24317197  0.99514407  0.13003880  1
  O  O213  1  0.24477592  1.00107420  0.63766754  1
  O  O214  1  0.74279253  0.49301483  0.12856659  1
  O  O215  1  0.74999464  0.49290365  0.63108332  1
  O  O216  1  0.74007967  1.00031531  0.13387053  1
  O  O217  1  0.73735163  0.99795005  0.62580745  1
  O  O218  1  0.00413921  0.36915817  0.25379148  1
  O  O219  1  0.00485236  0.36824431  0.75646603  1
  O  O220  1  -0.00539606  0.86344739  0.24338569  1
  O  O221  1  0.00695088  0.86802773  0.75637601  1
  O  O222  1  0.50373156  0.37082564  0.25373160  1
  O  O223  1  0.50536033  0.36877967  0.75574474  1
  O  O224  1  0.50505466  0.87411756  0.25665656  1
  O  O225  1  0.51224252  0.87826116  0.75930127  1
  O  O226  1  0.49585868  0.12882719  0.24302671  1
  O  O227  1  0.49656510  0.12926140  0.74606037  1
  O  O228  1  0.49071645  0.62524636  0.24182400  1
  O  O229  1  0.48887504  0.61768447  0.74083632  1
  O  O230  1  0.99459073  0.13131113  0.24015024  1
  O  O231  1  0.99666342  0.13017959  0.74469500  1
  O  O232  1  0.98802109  0.63111277  0.24432619  1
  O  O233  1  1.00069983  0.63900354  0.75417583  1
  O  O234  1  0.36249640  0.25772939  0.00258962  1
  O  O235  1  0.36947865  0.24878705  0.50816833  1
  O  O236  1  0.36728383  0.76031894  0.00369622  1
  O  O237  1  0.36826606  0.75387890  0.51125293  1
  O  O238  1  0.86932860  0.25654027  0.00500573  1
  O  O239  1  0.87168559  0.25571038  0.50497269  1
  O  O240  1  0.86305295  0.75912371  -0.01099711  1
  O  O241  1  0.87891651  0.76473714  0.49669984  1
  O  O242  1  0.12959231  0.24491793  0.49585244  1
  O  O243  1  0.13773623  0.25628052  0.99361423  1
  O  O244  1  0.13996311  0.75573646  0.50518886  1
  O  O245  1  0.12866243  0.74356136  0.99653346  1
  O  O246  1  0.63255221  0.24241846  0.50112582  1
  O  O247  1  0.63172374  0.24774443  0.99289027  1
  O  O248  1  0.62471263  0.74227241  0.49258270  1
  O  O249  1  0.63168740  0.74516023  0.98969237  1
  O  O250  1  0.49901772  0.23927196  0.13070457  1
  O  O251  1  0.49637676  0.24379053  0.63152308  1
  O  O252  1  0.49940245  0.73692610  0.12680222  1
  O  O253  1  0.48850950  0.73681340  0.61984382  1
  O  O254  1  0.99579508  0.24466314  0.12925058  1
  O  O255  1  0.99666799  0.24546790  0.62971396  1
  O  O256  1  0.99994788  0.74503430  0.13868732  1
  O  O257  1  1.00115299  0.75119439  0.63849564  1
  O  O258  1  0.00550315  0.25549826  0.36925795  1
  O  O259  1  0.00513040  0.25405204  0.87002429  1
  O  O260  1  -0.00040564  0.74430116  0.35451521  1
  O  O261  1  0.00654642  0.75682282  0.86841757  1
  O  O262  1  0.50188371  0.25672446  0.36862931  1
  O  O263  1  0.50494538  0.25369108  0.86971053  1
  O  O264  1  0.50574030  0.75617442  0.37477331  1
  O  O265  1  0.51272312  0.75988399  0.88146689  1
  O  O266  1  0.24435926  0.12934316  0.49592492  1
  O  O267  1  0.25765677  0.13540781  0.99275587  1
  O  O268  1  0.25732281  0.63444893  0.49183657  1
  O  O269  1  0.24286537  0.63143286  0.99903645  1
  O  O270  1  0.74537870  0.13037545  0.50010398  1
  O  O271  1  0.75003567  0.13194686  0.99322664  1
  O  O272  1  0.74285675  0.62451533  0.49166729  1
  O  O273  1  0.74326967  0.63126696  0.99249553  1
  O  O274  1  0.25382682  0.36768437  0.00735860  1
  O  O275  1  0.25378443  0.36490365  0.50269002  1
  O  O276  1  0.25588097  0.87150585  0.00801225  1
  O  O277  1  0.25960377  0.86596164  0.50624663  1
  O  O278  1  0.75498005  0.36928910  0.00500561  1
  O  O279  1  0.75585235  0.36977777  0.50479200  1
  O  O280  1  0.75672949  0.86641501  -0.00186887  1
  O  O281  1  0.76473189  0.87621558  0.50248088  1
  O  O282  1  0.12650345  0.49279214  0.24769591  1
  O  O283  1  0.13325334  0.49603988  0.74614811  1
  O  O284  1  0.13103349  0.99815618  0.23878731  1
  O  O285  1  0.13482947  0.99548785  0.74631594  1
  O  O286  1  0.62974742  0.49464062  0.24326211  1
  O  O287  1  0.63226395  0.49168664  0.74836549  1
  O  O288  1  0.63103892  0.99532439  0.24160365  1
  O  O289  1  0.62639928  0.99147684  0.73974529  1
  O  O290  1  0.36735485  0.00732729  0.25228294  1
  O  O291  1  0.36489705  0.00525776  0.74457396  1
  O  O292  1  0.37111935  0.51170790  0.25708393  1
  O  O293  1  0.36773642  0.50713825  0.75406409  1
  O  O294  1  0.86579926  0.00463868  0.24792938  1
  O  O295  1  0.87570552  0.00529144  0.75509580  1
  O  O296  1  0.86742096  0.50628609  0.25386791  1
  O  O297  1  0.86872087  0.49830497  0.75708946  1
  O  O298  1  0.12007249  0.37008855  0.37025860  1
  O  O299  1  0.11932184  0.36877563  0.87011107  1
  O  O300  1  0.13561600  0.86638600  0.37031941  1
  O  O301  1  0.12002236  0.87029781  0.87133079  1
  O  O302  1  0.61746632  0.37481774  0.36683205  1
  O  O303  1  0.61993645  0.36778139  0.86927879  1
  O  O304  1  0.61927854  0.87012513  0.37036728  1
  O  O305  1  0.61924415  0.86810205  0.86873423  1
  O  O306  1  0.38485207  0.12444151  0.13169170  1
  O  O307  1  0.38269257  0.13050366  0.63299545  1
  O  O308  1  0.38094371  0.62449148  0.13325523  1
  O  O309  1  0.38152482  0.63004846  0.63254489  1
  O  O310  1  0.88291380  0.13052360  0.12990927  1
  O  O311  1  0.88167902  0.13024902  0.62938677  1
  O  O312  1  0.86899941  0.61978377  0.13709876  1
  O  O313  1  0.88244303  0.62949725  0.62911053  1
  O  O314  1  0.24953093  0.25821263  0.11771215  1
  O  O315  1  0.25662681  0.24912343  0.62057518  1
  O  O316  1  0.24829068  0.76092508  0.12031570  1
  O  O317  1  0.26105399  0.74793143  0.61937422  1
  O  O318  1  0.75477580  0.25470068  0.11965013  1
  O  O319  1  0.75793374  0.25579548  0.61971382  1
  O  O320  1  0.74002433  0.75062480  0.10771540  1
  O  O321  1  0.75349174  0.75330095  0.61899444  1
  O  O322  1  0.24455752  0.24457054  0.38107212  1
  O  O323  1  0.24561111  0.24390712  0.88246762  1
  O  O324  1  0.25460154  0.74037628  0.38759248  1
  O  O325  1  0.24291524  0.74963846  0.88320849  1
  O  O326  1  0.74719265  0.24799965  0.38300240  1
  O  O327  1  0.74568955  0.24485827  0.87937877  1
  O  O328  1  0.74198254  0.74290808  0.37742281  1
  O  O329  1  0.73888667  0.74440766  0.88243981  1
  O  O330  1  -0.00540679  0.12522370  0.01379499  1
  O  O331  1  0.00607325  0.11844033  0.50550219  1
  O  O332  1  0.00741178  0.62095465  -0.00101122  1
  O  O333  1  0.00140805  0.62164242  0.49598124  1
  O  O334  1  0.49891112  0.12334926  0.01055866  1
  O  O335  1  0.50634460  0.11925321  0.50693038  1
  O  O336  1  0.50361906  0.62396989  0.00923740  1
  O  O337  1  0.50369376  0.61911821  0.50791851  1
  O  O338  1  0.49934161  0.38133959  0.49361753  1
  O  O339  1  0.49259011  0.37458261  0.99413443  1
  O  O340  1  0.49507493  0.87940805  0.49588044  1
  O  O341  1  0.49179392  0.87663321  0.99419392  1
  O  O342  1  0.99407656  0.37952320  0.49178393  1
  O  O343  1  0.99435142  0.37921196  0.99412788  1
  O  O344  1  0.98990123  0.88517419  0.50483612  1
  O  O345  1  0.99111996  0.87350245  0.99404479  1
  O  O346  1  0.49373952  0.49558007  0.38008648  1
  O  O347  1  0.49398181  0.49168346  0.87606891  1
  O  O348  1  0.49867808  0.99277653  0.38313667  1
  O  O349  1  0.50843602  0.98580780  0.87886909  1
  O  O350  1  0.99267669  0.49280395  0.37143372  1
  O  O351  1  0.99466087  0.49326844  0.87922700  1
  O  O352  1  1.00373515  1.00692327  0.38806954  1
  O  O353  1  0.99625105  0.99485560  0.87712494  1
  O  O354  1  0.00844004  0.00933047  0.12357319  1
  O  O355  1  0.00760277  0.00639858  0.61697446  1
  O  O356  1  0.00136223  0.50374294  0.11432310  1
  O  O357  1  0.01525970  0.50003614  0.62714537  1
  O  O358  1  0.50806361  0.00834261  0.12584350  1
  O  O359  1  0.50991932  0.00475177  0.62086244  1
  O  O360  1  0.50408962  0.51018256  0.12376655  1
  O  O361  1  0.49974137  0.51051025  0.61966983  1
  O  O362  1  0.24477725  0.37438737  0.24163685  1
  O  O363  1  0.24574412  0.38532358  0.75085270  1
  O  O364  1  0.25529142  0.88084176  0.23843223  1
  O  O365  1  0.24688977  0.88404474  0.75158720  1
  O  O366  1  0.74433659  0.37983919  0.24312642  1
  O  O367  1  0.74563093  0.37834734  0.74436481  1
  O  O368  1  0.74462409  0.88297476  0.24710126  1
  O  O369  1  0.73591585  0.87746001  0.74991508  1
  O  O370  1  0.25448663  0.12115687  0.25518597  1
  O  O371  1  0.25632267  0.11787761  0.75817272  1
  O  O372  1  0.25767744  0.62657066  0.25792674  1
  O  O373  1  0.26038873  0.61539832  0.75284000  1
  O  O374  1  0.75549873  0.11673211  0.24805734  1
  O  O375  1  0.75879949  0.12416165  0.75598796  1
  O  O376  1  0.75333008  0.62011042  0.25378416  1
  O  O377  1  0.74987455  0.61709469  0.75629995  1
  O  O378  1  0.36877763  0.12294561  0.36987955  1
  O  O379  1  0.36175605  0.13082600  0.86842912  1
  O  O380  1  0.36949206  0.62062120  0.36760262  1
  O  O381  1  0.37700300  0.62111390  0.86688126  1
  O  O382  1  0.87317296  0.12061919  0.36477609  1
  O  O383  1  0.87163626  0.12027279  0.86870111  1
  O  O384  1  0.86565836  0.61856809  0.36235107  1
  O  O385  1  0.86698381  0.61695637  0.87241935  1
  O  O386  1  0.13374794  0.37525418  0.13106685  1
  O  O387  1  0.12781577  0.38560713  0.63430019  1
  O  O388  1  0.13534606  0.88369293  0.12812665  1
  O  O389  1  0.12934362  0.88341254  0.63460325  1
  O  O390  1  0.62888853  0.37949966  0.12940456  1
  O  O391  1  0.63225600  0.37571217  0.63178434  1
  O  O392  1  0.62427472  0.88410433  0.13014936  1
  O  O393  1  0.62148277  0.88131971  0.63238283  1
  O  O394  1  0.11899560  0.25582306  0.25681876  1
  O  O395  1  0.12049383  0.25513546  0.75584190  1
  O  O396  1  0.10908229  0.75316599  0.25021816  1
  O  O397  1  0.12070124  0.75546818  0.75644887  1
  O  O398  1  0.61805746  0.25674007  0.25003543  1
  O  O399  1  0.62004408  0.25431801  0.75488409  1
  O  O400  1  0.62310032  0.75684374  0.25663594  1
  O  O401  1  0.62961527  0.75771565  0.76045571  1
  O  O402  1  0.38155491  0.24247404  0.24769975  1
  O  O403  1  0.38144300  0.24337017  0.74593129  1
  O  O404  1  0.37609138  0.73809081  0.24849998  1
  O  O405  1  0.36697880  0.73824751  0.74123880  1
  O  O406  1  0.87995880  0.24582080  0.24293383  1
  O  O407  1  0.88249186  0.24453269  0.74365713  1
  O  O408  1  0.88189239  0.74139282  0.25319274  1
  O  O409  1  0.88685497  0.75145292  0.75315747  1
  O  O410  1  0.38148510  0.49912732  0.49476198  1
  O  O411  1  0.37491988  0.49359456  0.99255390  1
  O  O412  1  0.38210587  0.99289503  0.50324402  1
  O  O413  1  0.37415354  0.98506220  1.00300641  1
  O  O414  1  0.87409394  0.49263022  0.49000037  1
  O  O415  1  0.87890985  0.49412191  0.99306487  1
  O  O416  1  0.88545064  0.99246722  0.49815358  1
  O  O417  1  0.87693153  0.99110907  0.99199146  1
  O  O418  1  0.12407762  -0.00396162  0.01447724  1
  O  O419  1  0.12069531  0.00527234  0.50669103  1
  O  O420  1  0.11932927  0.50885037  -0.00220884  1
  O  O421  1  0.12758954  0.49438655  0.51736095  1
  O  O422  1  0.62432024  0.00090507  0.01188750  1
  O  O423  1  0.62064219  0.00276475  0.50855689  1
  O  O424  1  0.62298918  0.50665416  0.00552195  1
  O  O425  1  0.61764965  0.50713886  0.50197220  1
  O  O426  1  0.36499222  0.37424615  0.12076798  1
  O  O427  1  0.37278105  0.36612985  0.62455889  1
  O  O428  1  0.36562089  0.87366782  0.11752485  1
  O  O429  1  0.37782075  0.86333572  0.62320571  1
  O  O430  1  0.86896167  0.36971002  0.11947042  1
  O  O431  1  0.87157823  0.36951756  0.61887678  1
  O  O432  1  0.87081914  0.88157604  0.10745502  1
  O  O433  1  0.87372308  0.87288700  0.61225276  1
  O  O434  1  0.13057993  0.13244187  0.38035693  1
  O  O435  1  0.14036583  0.13261580  0.86952909  1
  O  O436  1  0.13842045  0.63016749  0.36838947  1
  O  O437  1  0.12777135  0.63120803  0.88697273  1
  O  O438  1  0.62756590  0.12645898  0.38405551  1
  O  O439  1  0.63153339  0.13061481  0.87537205  1
  O  O440  1  0.62827193  0.62911634  0.37868405  1
  O  O441  1  0.62708964  0.63170490  0.87809479  1
