# generated using pymatgen
data_V93Zn93O256
_symmetry_space_group_name_H-M   'P 1'
_cell_length_a   17.04887791
_cell_length_b   17.04841664
_cell_length_c   17.05002783
_cell_angle_alpha   89.97391136
_cell_angle_beta   89.93710301
_cell_angle_gamma   89.98289746
_symmetry_Int_Tables_number   1
_chemical_formula_structural   V93Zn93O256
_chemical_formula_sum   'V93 Zn93 O256'
_cell_volume   4955.69554347
_cell_formula_units_Z   1
loop_
 _symmetry_equiv_pos_site_id
 _symmetry_equiv_pos_as_xyz
  1  'x, y, z'
loop_
 _atom_site_type_symbol
 _atom_site_label
 _atom_site_symmetry_multiplicity
 _atom_site_fract_x
 _atom_site_fract_y
 _atom_site_fract_z
 _atom_site_occupancy
  V  V0  1  0.62423905  -0.00081032  0.12577786  1
  V  V1  1  0.37149734  0.75381824  0.12684470  1
  V  V2  1  0.75140428  0.12476239  0.37084705  1
  V  V3  1  0.75099131  0.00004869  0.25004114  1
  V  V4  1  0.62691715  0.25007302  0.87508974  1
  V  V5  1  0.24968941  0.12504526  0.87689689  1
  V  V6  1  0.49991518  0.87557625  0.87628766  1
  V  V7  1  0.49939342  0.50067995  0.49940222  1
  V  V8  1  0.12543007  0.75030927  0.87684307  1
  V  V9  1  0.87425826  0.87521967  0.49736335  1
  V  V10  1  0.12568296  0.62559669  0.00031850  1
  V  V11  1  0.75221984  0.49929806  0.74792564  1
  V  V12  1  0.12615337  0.25057661  0.87501364  1
  V  V13  1  0.37420305  0.24993408  0.12615507  1
  V  V14  1  0.37615322  0.12654978  0.75128523  1
  V  V15  1  0.62572926  0.50044524  0.62507821  1
  V  V16  1  0.62572702  0.62600134  0.49962007  1
  V  V17  1  0.62467282  0.24959717  0.37667810  1
  V  V18  1  0.00113162  0.74861740  0.74998556  1
  V  V19  1  0.25064285  0.25082284  0.50000793  1
  V  V20  1  0.00047693  0.49856321  -0.00175788  1
  V  V21  1  0.62428880  0.62277301  0.00118945  1
  V  V22  1  0.87599255  0.74805197  0.62454399  1
  V  V23  1  -0.01204866  0.24606482  0.24602690  1
  V  V24  1  0.12535784  0.37474500  0.24857650  1
  V  V25  1  0.24954742  -0.00300838  0.24813204  1
  V  V26  1  0.50033422  0.12609159  0.62597805  1
  V  V27  1  0.37317996  0.75065872  0.62580065  1
  V  V28  1  0.87394363  0.87410694  0.00053805  1
  V  V29  1  0.75466379  0.36824819  0.12431615  1
  V  V30  1  0.49373573  0.74492611  0.25196904  1
  V  V31  1  0.37511748  -0.00028603  0.87735031  1
  V  V32  1  0.25088305  0.37597437  0.62417515  1
  V  V33  1  0.12558793  0.00030979  0.12622139  1
  V  V34  1  0.49833965  -0.00028588  0.50010982  1
  V  V35  1  0.37331471  0.12430681  0.25093260  1
  V  V36  1  0.25125466  0.50155738  0.75183772  1
  V  V37  1  -0.01396077  0.12712151  0.12938628  1
  V  V38  1  0.62626012  0.37693416  0.24804322  1
  V  V39  1  0.00019912  0.74938530  0.24995208  1
  V  V40  1  0.24964348  0.24962914  0.00066278  1
  V  V41  1  0.50195278  0.25040007  0.75027279  1
  V  V42  1  0.62475981  0.12528356  0.49991381  1
  V  V43  1  0.49930572  0.37613156  0.37585227  1
  V  V44  1  0.24997999  0.75649958  0.00486324  1
  V  V45  1  0.24946002  0.37566679  0.12632175  1
  V  V46  1  0.87428224  0.37504823  0.49939343  1
  V  V47  1  0.62471443  0.75034631  0.87447943  1
  V  V48  1  0.62542619  0.12570043  -0.00016150  1
  V  V49  1  0.24805675  0.12522461  0.37604356  1
  V  V50  1  0.88310090  0.12466184  0.74428053  1
  V  V51  1  0.25004316  0.00000892  0.75113809  1
  V  V52  1  0.62227876  0.87369931  0.25039714  1
  V  V53  1  0.00091234  0.37424901  0.87324758  1
  V  V54  1  0.49870758  0.87443547  0.37602359  1
  V  V55  1  0.24367627  0.74424841  0.50163076  1
  V  V56  1  -0.00097997  0.62389698  0.12441631  1
  V  V57  1  0.87324886  0.62328689  0.24866994  1
  V  V58  1  0.37768598  0.37751281  -0.00091346  1
  V  V59  1  0.88265259  0.24606506  0.62316364  1
  V  V60  1  0.49922266  -0.00138651  0.00115061  1
  V  V61  1  0.37362684  0.87632742  0.50026543  1
  V  V62  1  -0.00041956  0.87442730  0.87585861  1
  V  V63  1  0.74954599  0.87373425  0.12507355  1
  V  V64  1  0.87547428  -0.00019799  0.87411903  1
  V  V65  1  0.24554940  0.87953088  0.62565884  1
  V  V66  1  0.74905503  0.87465998  0.62455115  1
  V  V67  1  0.75051117  0.00043452  0.74919267  1
  V  V68  1  0.50018613  0.12393745  0.12660797  1
  V  V69  1  0.12320556  0.74480853  0.37805049  1
  V  V70  1  -0.00022511  0.00111902  0.00197133  1
  V  V71  1  0.49526877  0.62351479  0.12737421  1
  V  V72  1  0.75055913  0.12535266  0.87438233  1
  V  V73  1  0.12572779  0.37664521  0.75036815  1
  V  V74  1  0.37502759  0.50493044  0.36884326  1
  V  V75  1  0.00662579  0.50606095  0.50112540  1
  V  V76  1  0.25263367  0.62624865  0.36885594  1
  V  V77  1  0.00253602  0.00647832  0.50451457  1
  V  V78  1  0.87420726  0.74946024  0.12461470  1
  V  V79  1  0.12817218  0.87343903  0.24677029  1
  V  V80  1  0.62423449  0.87519182  0.75059138  1
  V  V81  1  -0.00011128  0.37394169  0.37300011  1
  V  V82  1  0.74881994  0.62420421  0.37303930  1
  V  V83  1  0.62595535  0.37488439  0.75036329  1
  V  V84  1  0.12527378  0.49962143  0.12594855  1
  V  V85  1  0.87638890  0.36748531  0.00179451  1
  V  V86  1  0.62489750  0.00031432  0.62504635  1
  V  V87  1  0.87528933  0.00308767  0.36936447  1
  V  V88  1  0.49970208  0.62602382  0.62484520  1
  V  V89  1  0.12540382  0.24997814  0.37318697  1
  V  V90  1  0.49945769  0.24910358  0.25139085  1
  V  V91  1  0.37602609  0.62541668  0.75214676  1
  V  V92  1  0.75203617  0.62420101  0.87447957  1
  Zn  Zn93  1  0.75098047  0.37254319  0.62335125  1
  Zn  Zn94  1  0.50199603  0.37697046  0.87577719  1
  Zn  Zn95  1  0.75314870  0.49876740  0.24665842  1
  Zn  Zn96  1  0.37583021  0.37677921  0.50014400  1
  Zn  Zn97  1  0.13024991  0.51043949  0.62026414  1
  Zn  Zn98  1  0.87544604  0.49976398  0.37320609  1
  Zn  Zn99  1  0.25308416  0.50388616  0.24816974  1
  Zn  Zn100  1  0.25273582  0.62669767  0.87758796  1
  Zn  Zn101  1  0.11547549  0.01041353  0.63468963  1
  Zn  Zn102  1  0.62549734  0.49878066  0.12343479  1
  Zn  Zn103  1  0.00020625  0.87591541  0.37345094  1
  Zn  Zn104  1  0.49982800  0.49965241  -0.00065666  1
  Zn  Zn105  1  0.12310002  0.12679471  0.00226887  1
  Zn  Zn106  1  0.37085426  0.87699368  0.00378424  1
  Zn  Zn107  1  0.00569729  0.24639682  0.74466691  1
  Zn  Zn108  1  0.37661363  0.25123404  0.62518931  1
  Zn  Zn109  1  0.01045491  0.63218828  0.61693490  1
  Zn  Zn110  1  0.62353280  0.74990009  0.37646660  1
  Zn  Zn111  1  0.11876305  0.13184787  0.50715847  1
  Zn  Zn112  1  0.49943157  0.75118211  0.75036552  1
  Zn  Zn113  1  0.12506982  0.87646138  0.75141923  1
  Zn  Zn114  1  0.75058691  0.74833885  0.00069461  1
  Zn  Zn115  1  0.87753534  0.62235804  0.74717575  1
  Zn  Zn116  1  0.37336506  0.00009005  0.37553628  1
  Zn  Zn117  1  0.37900607  0.50129210  0.87679424  1
  Zn  Zn118  1  0.75095060  0.24957503  0.50092029  1
  Zn  Zn119  1  0.74853848  0.74923126  0.49874089  1
  Zn  Zn120  1  0.87769296  0.49863743  0.87236990  1
  Zn  Zn121  1  0.75545138  0.24591732  0.00330998  1
  Zn  Zn122  1  0.18278636  0.18624118  0.18802910  1
  Zn  Zn123  1  0.18666451  0.18647209  0.68657314  1
  Zn  Zn124  1  0.18750604  0.68655265  0.18749324  1
  Zn  Zn125  1  0.18517874  0.68694399  0.68773438  1
  Zn  Zn126  1  0.68879833  0.18822863  0.18844808  1
  Zn  Zn127  1  0.69296743  0.18916720  0.68624959  1
  Zn  Zn128  1  0.68430886  0.68869259  0.18842254  1
  Zn  Zn129  1  0.68768892  0.68799779  0.68782389  1
  Zn  Zn130  1  0.31322284  0.31543761  0.31326419  1
  Zn  Zn131  1  0.31370450  0.31196763  0.81351694  1
  Zn  Zn132  1  0.31263961  0.81276318  0.31355855  1
  Zn  Zn133  1  0.31211004  0.81285378  0.81522563  1
  Zn  Zn134  1  0.81067666  0.31254020  0.31430036  1
  Zn  Zn135  1  0.81515313  0.31081061  0.81257928  1
  Zn  Zn136  1  0.81030891  0.81129472  0.31147602  1
  Zn  Zn137  1  0.81215175  0.81156101  0.81204134  1
  Zn  Zn138  1  0.18796200  0.43742847  0.43434972  1
  Zn  Zn139  1  0.18946717  0.43789302  0.93728069  1
  Zn  Zn140  1  0.18617469  0.93391485  0.43398053  1
  Zn  Zn141  1  0.18592949  0.93682970  0.93847237  1
  Zn  Zn142  1  0.68813378  0.43973332  0.43633176  1
  Zn  Zn143  1  0.69001778  0.43647847  0.93721618  1
  Zn  Zn144  1  0.68605864  0.93734109  0.43660268  1
  Zn  Zn145  1  0.68768473  0.93781508  0.93811052  1
  Zn  Zn146  1  0.31136838  0.06283355  0.06383902  1
  Zn  Zn147  1  0.31198950  0.06498581  0.56396009  1
  Zn  Zn148  1  0.31177080  0.56544975  0.06389932  1
  Zn  Zn149  1  0.31368619  0.56330719  0.56061504  1
  Zn  Zn150  1  0.81085084  0.06011491  0.06122245  1
  Zn  Zn151  1  0.81276425  0.06326269  0.56016783  1
  Zn  Zn152  1  0.81218617  0.55466130  0.06209765  1
  Zn  Zn153  1  0.81518012  0.56241412  0.55954895  1
  Zn  Zn154  1  0.43866090  0.43828869  0.18701026  1
  Zn  Zn155  1  0.43836621  0.43717959  0.68724845  1
  Zn  Zn156  1  0.43620444  0.93451260  0.18831841  1
  Zn  Zn157  1  0.43604371  0.93812598  0.68857856  1
  Zn  Zn158  1  0.93730827  0.43576486  0.18657627  1
  Zn  Zn159  1  0.93832519  0.43516136  0.68395976  1
  Zn  Zn160  1  0.93958215  0.93617527  0.18744655  1
  Zn  Zn161  1  0.93626115  0.93451863  0.68741088  1
  Zn  Zn162  1  0.06083122  0.06600388  0.31444522  1
  Zn  Zn163  1  0.06489687  0.06224318  0.81499532  1
  Zn  Zn164  1  0.06219305  0.56175130  0.31369941  1
  Zn  Zn165  1  0.06527579  0.56380739  0.81229282  1
  Zn  Zn166  1  0.56274119  0.06094512  0.31409019  1
  Zn  Zn167  1  0.56240297  0.06265415  0.81327620  1
  Zn  Zn168  1  0.56266971  0.56262300  0.31266060  1
  Zn  Zn169  1  0.56147963  0.56006305  0.81432192  1
  Zn  Zn170  1  0.43495671  0.18722256  0.43770002  1
  Zn  Zn171  1  0.43917695  0.18902348  0.93750617  1
  Zn  Zn172  1  0.43402538  0.68777515  0.43926616  1
  Zn  Zn173  1  0.43777586  0.69006618  0.93961730  1
  Zn  Zn174  1  0.93687926  0.18824886  0.43388996  1
  Zn  Zn175  1  0.94124586  0.18608162  0.93569209  1
  Zn  Zn176  1  0.93495591  0.68732513  0.43391606  1
  Zn  Zn177  1  0.93702593  0.68676239  0.93785765  1
  Zn  Zn178  1  0.06112913  0.31010283  0.06354280  1
  Zn  Zn179  1  0.06406981  0.31777690  0.56242553  1
  Zn  Zn180  1  0.06190796  0.81343376  0.06332050  1
  Zn  Zn181  1  0.06122153  0.81928862  0.56152774  1
  Zn  Zn182  1  0.56388497  0.31013599  0.06328987  1
  Zn  Zn183  1  0.56396300  0.31373964  0.56328684  1
  Zn  Zn184  1  0.56126367  0.80965906  0.06268368  1
  Zn  Zn185  1  0.56174009  0.81100714  0.56251349  1
  O  O186  1  0.11666238  0.11205093  0.12496466  1
  O  O187  1  0.13063619  0.12010909  0.61819176  1
  O  O188  1  0.11829742  0.61992808  0.12043301  1
  O  O189  1  0.12220596  0.62294585  0.62383153  1
  O  O190  1  0.61986066  0.11921870  0.12135499  1
  O  O191  1  0.62120036  0.11944747  0.62038434  1
  O  O192  1  0.61694963  0.62551286  0.11607238  1
  O  O193  1  0.61996735  0.62019602  0.62028079  1
  O  O194  1  0.38145112  0.38452111  0.37754960  1
  O  O195  1  0.37628377  0.37427803  0.88853386  1
  O  O196  1  0.38019470  0.87705628  0.38256533  1
  O  O197  1  0.38158149  0.88222362  0.87772049  1
  O  O198  1  0.88082822  0.37518325  0.38370123  1
  O  O199  1  0.88207636  0.37707920  0.88198150  1
  O  O200  1  0.87211605  0.88270482  0.38318450  1
  O  O201  1  0.87945247  0.88005248  0.87974658  1
  O  O202  1  0.24880448  0.00522245  0.36453881  1
  O  O203  1  0.25518638  0.00438675  0.87205070  1
  O  O204  1  0.25659505  0.50958644  0.37586003  1
  O  O205  1  0.25485412  0.50213485  0.86304773  1
  O  O206  1  0.75561398  0.00584786  0.37054406  1
  O  O207  1  0.75593017  0.00460162  0.86885501  1
  O  O208  1  0.75189428  0.51224341  0.37088216  1
  O  O209  1  0.74977099  0.50868719  0.86450375  1
  O  O210  1  0.24365674  0.49555429  0.12779047  1
  O  O211  1  0.25195742  0.49287447  0.63244873  1
  O  O212  1  0.23900393  1.00674036  0.13764997  1
  O  O213  1  0.25278045  0.99050791  0.63145909  1
  O  O214  1  0.74504494  0.48573508  0.12740764  1
  O  O215  1  0.74544172  0.50223096  0.63409641  1
  O  O216  1  0.74386874  0.99399757  0.13047296  1
  O  O217  1  0.74482152  0.99459830  0.62919539  1
  O  O218  1  0.00615173  0.36718797  0.25273769  1
  O  O219  1  0.00823765  0.37557627  0.75520914  1
  O  O220  1  0.00959191  0.86781058  0.25218049  1
  O  O221  1  -0.00023932  0.86483902  0.75621497  1
  O  O222  1  0.50765552  0.36855619  0.25453881  1
  O  O223  1  0.50791204  0.36859765  0.74987858  1
  O  O224  1  0.50334876  0.86678020  0.25596536  1
  O  O225  1  0.50656599  0.87552597  0.75712503  1
  O  O226  1  0.49464459  0.12899577  0.24630855  1
  O  O227  1  0.49629026  0.12978825  0.74510944  1
  O  O228  1  0.50735297  0.63495665  0.24055129  1
  O  O229  1  0.49123851  0.62513208  0.74356992  1
  O  O230  1  1.00412796  0.13399141  0.24219622  1
  O  O231  1  0.98663696  0.12406686  0.75484332  1
  O  O232  1  0.99467277  0.63012535  0.24405809  1
  O  O233  1  0.99744848  0.63921383  0.75062308  1
  O  O234  1  0.37044328  0.25697762  0.00682504  1
  O  O235  1  0.36289365  0.25410629  0.50112168  1
  O  O236  1  0.36622035  0.75162440  0.00751821  1
  O  O237  1  0.36393072  0.75634495  0.50612876  1
  O  O238  1  0.87576480  0.26306587  -0.00602336  1
  O  O239  1  0.87613427  0.25772554  0.50494557  1
  O  O240  1  0.87395798  0.75634782  0.00676244  1
  O  O241  1  0.87591307  0.75967298  0.50656951  1
  O  O242  1  0.13480870  0.25366870  0.49310081  1
  O  O243  1  0.13291635  0.25035162  0.99356160  1
  O  O244  1  0.13288036  0.76111148  0.48896267  1
  O  O245  1  0.13061129  0.74544134  0.99863767  1
  O  O246  1  0.62687421  0.24386601  0.49375138  1
  O  O247  1  0.62652183  0.24194838  0.99349173  1
  O  O248  1  0.62761790  0.74211780  0.49827695  1
  O  O249  1  0.62764542  0.73889831  0.99444800  1
  O  O250  1  0.49463960  0.24293069  0.13202438  1
  O  O251  1  0.49991450  0.24364320  0.63131050  1
  O  O252  1  0.49307238  0.74288345  0.13249635  1
  O  O253  1  0.49133532  0.74426064  0.62704872  1
  O  O254  1  1.00740546  0.23863535  0.13435521  1
  O  O255  1  0.98804367  0.25516551  0.62508936  1
  O  O256  1  0.99450586  0.74361553  0.13012387  1
  O  O257  1  0.99290650  0.75484017  0.63189929  1
  O  O258  1  0.00598971  0.25374679  0.36714676  1
  O  O259  1  0.00888058  0.25651567  0.87145367  1
  O  O260  1  0.00801015  0.75018095  0.36934587  1
  O  O261  1  0.00347844  0.75483416  0.86859248  1
  O  O262  1  0.50447950  0.25512642  0.37050964  1
  O  O263  1  0.50891449  0.25088816  0.86794864  1
  O  O264  1  0.49793373  0.75410924  0.36725289  1
  O  O265  1  0.50691350  0.75703960  0.87333027  1
  O  O266  1  0.25111235  0.13632607  0.49395751  1
  O  O267  1  0.24867401  0.13166559  0.99483200  1
  O  O268  1  0.25257462  0.63924791  0.49265822  1
  O  O269  1  0.24351470  0.63496160  0.99870259  1
  O  O270  1  0.74263214  0.12323513  0.48795922  1
  O  O271  1  0.74393727  0.12482724  0.99364941  1
  O  O272  1  0.74533989  0.62517660  0.49041571  1
  O  O273  1  0.74264147  0.62338704  0.99127252  1
  O  O274  1  0.25826919  0.36973266  0.00663040  1
  O  O275  1  0.24986531  0.36879845  0.50741271  1
  O  O276  1  0.24876510  0.86073331  -0.00009210  1
  O  O277  1  0.25353969  0.86871105  0.50693603  1
  O  O278  1  0.75869229  0.37301287  0.00637159  1
  O  O279  1  0.76208147  0.37476532  0.49859625  1
  O  O280  1  0.75591409  0.87376924  0.00677866  1
  O  O281  1  0.75943082  0.87543683  0.50494581  1
  O  O282  1  0.12514127  0.49311580  0.24350758  1
  O  O283  1  0.13758719  0.49549221  0.74970839  1
  O  O284  1  0.12966137  0.99309873  0.24616495  1
  O  O285  1  0.13309087  0.99583095  0.75110042  1
  O  O286  1  0.62448480  0.48498468  0.25005430  1
  O  O287  1  0.63344124  0.49583094  0.74475306  1
  O  O288  1  0.62941058  0.99361594  0.24449841  1
  O  O289  1  0.63086684  0.99544258  0.74462486  1
  O  O290  1  0.36460649  0.00416980  0.24890432  1
  O  O291  1  0.37029041  0.00664452  0.75775215  1
  O  O292  1  0.37418085  0.49612031  0.26444568  1
  O  O293  1  0.36762732  0.50910584  0.74873311  1
  O  O294  1  0.86817194  -0.00969160  0.26248755  1
  O  O295  1  0.87053196  0.00512984  0.75342746  1
  O  O296  1  0.87465202  0.50769334  0.25209270  1
  O  O297  1  0.86544241  0.50191031  0.74883088  1
  O  O298  1  0.11966086  0.36946068  0.36800609  1
  O  O299  1  0.12195636  0.37017250  0.87007658  1
  O  O300  1  0.12324949  0.86352274  0.36349228  1
  O  O301  1  0.11638686  0.86813753  0.87551191  1
  O  O302  1  0.62056048  0.36999853  0.36765243  1
  O  O303  1  0.62583087  0.36792650  0.86866875  1
  O  O304  1  0.61746141  0.87316532  0.36904736  1
  O  O305  1  0.62100402  0.87098758  0.86997945  1
  O  O306  1  0.38035555  0.13030842  0.13149526  1
  O  O307  1  0.38238193  0.12703624  0.63323332  1
  O  O308  1  0.38768800  0.63543537  0.11957892  1
  O  O309  1  0.37900147  0.63038333  0.63261733  1
  O  O310  1  0.88692094  0.11848996  0.12252788  1
  O  O311  1  0.86967193  0.13190375  0.63360356  1
  O  O312  1  0.87933625  0.62899911  0.12802225  1
  O  O313  1  0.88000854  0.63887700  0.62321799  1
  O  O314  1  0.25457930  0.25442771  0.12116814  1
  O  O315  1  0.25091820  0.26028171  0.61682794  1
  O  O316  1  0.26014891  0.74120093  0.11792518  1
  O  O317  1  0.25223660  0.75933186  0.61855202  1
  O  O318  1  0.74608846  0.26259787  0.12298696  1
  O  O319  1  0.76376241  0.25240305  0.62055801  1
  O  O320  1  0.75613656  0.75614370  0.12455569  1
  O  O321  1  0.76023219  0.75562308  0.62411843  1
  O  O322  1  0.24565359  0.24736460  0.38192238  1
  O  O323  1  0.24564698  0.24479456  0.88076547  1
  O  O324  1  0.24398615  0.74491485  0.38193762  1
  O  O325  1  0.24384225  0.74884464  0.88509115  1
  O  O326  1  0.74406320  0.23962906  0.37582300  1
  O  O327  1  0.74426463  0.24219767  0.87554834  1
  O  O328  1  0.74693033  0.73781317  0.37576801  1
  O  O329  1  0.74469032  0.73987424  0.87519045  1
  O  O330  1  0.00220364  0.11841996  0.00883066  1
  O  O331  1  -0.00250637  0.10948840  0.49489466  1
  O  O332  1  0.00519897  0.61959034  0.00518942  1
  O  O333  1  -0.00706594  0.60870363  0.49605857  1
  O  O334  1  0.50490834  0.11905074  0.00719749  1
  O  O335  1  0.50468031  0.12028349  0.50528993  1
  O  O336  1  0.50890364  0.62611255  0.00872152  1
  O  O337  1  0.50471677  0.62035394  0.50551420  1
  O  O338  1  0.50044988  0.38242544  0.49359223  1
  O  O339  1  0.48890961  0.37482973  1.00281940  1
  O  O340  1  0.49394299  0.87992478  0.49646950  1
  O  O341  1  0.50063165  0.88185536  0.99388176  1
  O  O342  1  0.99200059  0.38198491  0.49341932  1
  O  O343  1  0.99483757  0.37890387  0.99522277  1
  O  O344  1  0.98763089  0.88316487  0.49493876  1
  O  O345  1  0.99335437  0.88067824  0.99602685  1
  O  O346  1  0.49323913  0.49699412  0.37936695  1
  O  O347  1  0.49615260  0.49489454  0.88035364  1
  O  O348  1  0.49754409  0.99337692  0.38205034  1
  O  O349  1  0.49490889  0.99629194  0.88182168  1
  O  O350  1  0.99858431  0.49331864  0.38445329  1
  O  O351  1  1.00142975  0.49335048  0.88050596  1
  O  O352  1  0.98953401  0.99822116  0.38128385  1
  O  O353  1  0.99468458  0.99449960  0.88153011  1
  O  O354  1  0.00624289  0.00689153  0.12281297  1
  O  O355  1  -0.00224979  -0.00786687  0.60825377  1
  O  O356  1  0.00602376  0.50478721  0.11817516  1
  O  O357  1  0.00051300  0.49987651  0.60932102  1
  O  O358  1  0.50472576  0.00454799  0.12182989  1
  O  O359  1  0.50551463  0.00558493  0.62037731  1
  O  O360  1  0.50255658  0.51107807  0.12389104  1
  O  O361  1  0.50560236  0.50611086  0.61958491  1
  O  O362  1  0.24346445  0.37662886  0.24349398  1
  O  O363  1  0.24795757  0.38271181  0.74352202  1
  O  O364  1  0.23961938  0.88428718  0.25545818  1
  O  O365  1  0.25071332  0.88017365  0.74097793  1
  O  O366  1  0.74190955  0.37350667  0.24375371  1
  O  O367  1  0.74621696  0.38569421  0.74978545  1
  O  O368  1  0.74265236  0.87966295  0.24439459  1
  O  O369  1  0.74496645  0.88116281  0.74477849  1
  O  O370  1  0.25324258  0.11748730  0.25578704  1
  O  O371  1  0.25684355  0.12006265  0.75765858  1
  O  O372  1  0.24815666  0.62513573  0.26449999  1
  O  O373  1  0.25991957  0.61764801  0.74992091  1
  O  O374  1  0.74180910  0.11713894  0.26294155  1
  O  O375  1  0.75936729  0.11816039  0.75499155  1
  O  O376  1  0.75318033  0.62384449  0.25623470  1
  O  O377  1  0.75010801  0.61659074  0.75795697  1
  O  O378  1  0.36754639  0.12278003  0.36755582  1
  O  O379  1  0.37023811  0.11946221  0.87156030  1
  O  O380  1  0.36525673  0.61670096  0.38013972  1
  O  O381  1  0.37534759  0.62543810  0.86352432  1
  O  O382  1  0.86304138  0.11368602  0.38116020  1
  O  O383  1  0.87043817  0.11903092  0.86689685  1
  O  O384  1  0.86482770  0.62492577  0.36718396  1
  O  O385  1  0.86315836  0.62310273  0.87332680  1
  O  O386  1  0.13044578  0.38044074  0.12851258  1
  O  O387  1  0.13718219  0.37993068  0.63102945  1
  O  O388  1  0.11783015  0.88649838  0.13668496  1
  O  O389  1  0.13653056  0.88094582  0.62604971  1
  O  O390  1  0.63128266  0.37419174  0.13371822  1
  O  O391  1  0.62936540  0.38277559  0.63098421  1
  O  O392  1  0.62897514  0.87985429  0.12985312  1
  O  O393  1  0.62935939  0.88061116  0.62981350  1
  O  O394  1  0.11927957  0.25657925  0.25587228  1
  O  O395  1  0.12628759  0.25801289  0.75644815  1
  O  O396  1  0.12150305  0.75655419  0.25520461  1
  O  O397  1  0.11637846  0.75361850  0.75717897  1
  O  O398  1  0.61911427  0.25807672  0.25611956  1
  O  O399  1  0.62237881  0.25455815  0.75423649  1
  O  O400  1  0.61143968  0.75658431  0.25091796  1
  O  O401  1  0.62352587  0.75741186  0.75556660  1
  O  O402  1  0.37988720  0.24488809  0.24566047  1
  O  O403  1  0.38275539  0.24361302  0.74993801  1
  O  O404  1  0.38524828  0.75429922  0.24331607  1
  O  O405  1  0.37408434  0.74061649  0.74476282  1
  O  O406  1  0.88936331  0.25508600  0.25439950  1
  O  O407  1  0.87768403  0.24112817  0.74134130  1
  O  O408  1  0.88066549  0.74481970  0.24399505  1
  O  O409  1  0.88306393  0.75123714  0.74024103  1
  O  O410  1  0.38162850  0.49943248  0.48982498  1
  O  O411  1  0.37381049  0.48886193  1.00098636  1
  O  O412  1  0.38057188  0.99457681  0.49942344  1
  O  O413  1  0.38037212  0.99829608  0.99656600  1
  O  O414  1  0.88431827  0.48943539  0.49838944  1
  O  O415  1  0.88302070  0.48908169  0.99586095  1
  O  O416  1  0.88177259  0.99285315  0.49207742  1
  O  O417  1  0.88003813  0.99351355  0.99359063  1
  O  O418  1  0.11909001  -0.00142751  0.01128062  1
  O  O419  1  0.10630325  -0.00518294  0.49371240  1
  O  O420  1  0.12109416  0.50521093  0.00567687  1
  O  O421  1  0.10938174  0.49303392  0.49847404  1
  O  O422  1  0.61942029  0.00587149  0.00628106  1
  O  O423  1  0.61853916  0.00469504  0.50592468  1
  O  O424  1  0.62416204  0.51217275  -0.00000303  1
  O  O425  1  0.61938544  0.50593996  0.50515864  1
  O  O426  1  0.37006885  0.36935932  0.11961921  1
  O  O427  1  0.36325234  0.37381499  0.62335884  1
  O  O428  1  0.38060577  0.85934401  0.12196134  1
  O  O429  1  0.36572872  0.87077858  0.62082824  1
  O  O430  1  0.86687611  0.37938156  0.11409978  1
  O  O431  1  0.87338377  0.36630796  0.61506948  1
  O  O432  1  0.86980212  0.86989743  0.12057909  1
  O  O433  1  0.86929295  0.86754576  0.61654527  1
  O  O434  1  0.13119092  0.13238518  0.38050189  1
  O  O435  1  0.13213768  0.13158632  0.87836765  1
  O  O436  1  0.13254097  0.63849992  0.37133842  1
  O  O437  1  0.12683199  0.63311785  0.88285345  1
  O  O438  1  0.63096590  0.12917101  0.38037440  1
  O  O439  1  0.63104155  0.12873890  0.87998644  1
  O  O440  1  0.63253417  0.62544059  0.38038998  1
  O  O441  1  0.63244131  0.62948985  0.88118044  1
