# generated using pymatgen
data_V93Zn93O256
_symmetry_space_group_name_H-M   'P 1'
_cell_length_a   17.05010081
_cell_length_b   17.05295149
_cell_length_c   17.05187948
_cell_angle_alpha   89.97588596
_cell_angle_beta   89.97082753
_cell_angle_gamma   90.06041767
_symmetry_Int_Tables_number   1
_chemical_formula_structural   V93Zn93O256
_chemical_formula_sum   'V93 Zn93 O256'
_cell_volume   4957.90757155
_cell_formula_units_Z   1
loop_
 _symmetry_equiv_pos_site_id
 _symmetry_equiv_pos_as_xyz
  1  'x, y, z'
loop_
 _atom_site_type_symbol
 _atom_site_label
 _atom_site_symmetry_multiplicity
 _atom_site_fract_x
 _atom_site_fract_y
 _atom_site_fract_z
 _atom_site_occupancy
  V  V0  1  0.75142147  0.25136590  -0.00047860  1
  V  V1  1  0.12377226  0.87025551  0.75778516  1
  V  V2  1  0.49896110  0.62409267  0.62498980  1
  V  V3  1  -0.00226424  0.88167084  0.38256975  1
  V  V4  1  0.25093510  0.25025605  -0.00179673  1
  V  V5  1  0.00139914  0.25058959  0.24876647  1
  V  V6  1  0.87637995  0.25063324  0.12387505  1
  V  V7  1  0.00054851  0.37421992  0.87434531  1
  V  V8  1  0.87546515  0.12496139  0.24914117  1
  V  V9  1  0.12642987  0.24873383  0.87347035  1
  V  V10  1  0.87544280  0.49900208  0.87527597  1
  V  V11  1  0.37442940  0.74869048  0.12458252  1
  V  V12  1  0.75133417  0.37666557  0.12342962  1
  V  V13  1  0.62573549  0.00133193  0.12574111  1
  V  V14  1  0.12661760  0.37283163  0.74862183  1
  V  V15  1  0.25059307  -0.00060554  0.24820751  1
  V  V16  1  0.61788729  0.00521121  0.62543191  1
  V  V17  1  0.62362852  0.87483170  0.75178258  1
  V  V18  1  0.12542129  0.25049348  0.37343416  1
  V  V19  1  0.75427610  0.25497850  0.49884263  1
  V  V20  1  0.12552825  0.50506969  0.11797208  1
  V  V21  1  0.24978845  0.49994062  0.24860769  1
  V  V22  1  0.11851513  -0.00201824  0.61979153  1
  V  V23  1  0.75453193  0.37696399  0.62139422  1
  V  V24  1  0.62429156  0.75256672  0.37549560  1
  V  V25  1  0.62430438  0.74395908  0.87964569  1
  V  V26  1  0.12304637  0.50039495  0.62190322  1
  V  V27  1  0.62526346  0.25005019  0.87387023  1
  V  V28  1  0.12134170  0.12253562  0.49940787  1
  V  V29  1  0.50318461  0.62518761  0.12224357  1
  V  V30  1  0.49954245  -0.00067988  -0.00045517  1
  V  V31  1  0.00100640  0.24723173  0.74881590  1
  V  V32  1  0.75395858  0.62726834  0.37566022  1
  V  V33  1  0.49964590  0.74935301  0.75216082  1
  V  V34  1  0.74956801  0.12577907  0.37436216  1
  V  V35  1  0.75405592  0.50266684  0.25054514  1
  V  V36  1  0.12419212  0.74775286  0.37709543  1
  V  V37  1  0.74985977  0.00158204  0.75127630  1
  V  V38  1  0.37370934  0.62352160  0.75111988  1
  V  V39  1  0.49988899  0.50125916  0.49987769  1
  V  V40  1  0.37438407  0.50047545  0.37423032  1
  V  V41  1  0.62308291  0.62766515  0.49993752  1
  V  V42  1  0.24821139  0.62508268  0.37480359  1
  V  V43  1  0.25335211  0.12339695  0.87271656  1
  V  V44  1  0.50036800  0.24303710  0.74475477  1
  V  V45  1  0.87394688  0.75151304  0.62779530  1
  V  V46  1  0.24957769  0.87341679  0.12481666  1
  V  V47  1  0.62546671  0.12511408  -0.00043009  1
  V  V48  1  0.74830766  0.87528866  0.62381542  1
  V  V49  1  0.62503933  0.37660861  0.24905149  1
  V  V50  1  0.37575599  0.37406721  0.49864941  1
  V  V51  1  0.75006642  0.87521138  0.12668193  1
  V  V52  1  0.74964926  0.50280927  0.75039180  1
  V  V53  1  0.87350276  0.87446857  0.00037741  1
  V  V54  1  0.37476688  -0.00094524  0.37549159  1
  V  V55  1  0.24907991  0.87330253  0.62621701  1
  V  V56  1  0.12533174  0.37454123  0.25005342  1
  V  V57  1  -0.00129019  0.12190309  0.62034990  1
  V  V58  1  0.75141056  0.12519911  0.87433971  1
  V  V59  1  0.49989870  0.37568743  0.87436095  1
  V  V60  1  0.00369185  0.62537454  0.11917070  1
  V  V61  1  0.87521560  0.25024729  0.62327938  1
  V  V62  1  0.50443958  0.50541671  -0.00127299  1
  V  V63  1  0.23712659  0.62636927  0.87776993  1
  V  V64  1  0.62468547  0.87664602  0.25193269  1
  V  V65  1  0.61883274  0.12659248  0.50378894  1
  V  V66  1  0.25074196  0.37505065  0.12264852  1
  V  V67  1  0.37980567  0.24159397  0.62349171  1
  V  V68  1  0.75172732  0.00132463  0.25250796  1
  V  V69  1  0.23705010  0.74447156  -0.00295277  1
  V  V70  1  0.25076509  0.24825624  0.49915472  1
  V  V71  1  0.87527914  0.12424575  0.75002137  1
  V  V72  1  0.12540678  0.00018167  0.12424914  1
  V  V73  1  0.00033707  -0.00053810  -0.00063410  1
  V  V74  1  0.37678642  0.12528850  0.24833216  1
  V  V75  1  0.62626087  0.50509278  0.12114359  1
  V  V76  1  0.25150742  0.49896382  0.75140905  1
  V  V77  1  0.37529469  0.87371874  -0.00221033  1
  V  V78  1  -0.00232976  0.74964017  0.25067688  1
  V  V79  1  0.37354776  0.74944072  0.62576558  1
  V  V80  1  0.62498939  0.37510736  0.74899996  1
  V  V81  1  0.49995014  0.75147433  0.25012292  1
  V  V82  1  0.37544100  0.87466951  0.49995576  1
  V  V83  1  0.00127074  0.75010699  0.75648682  1
  V  V84  1  0.62420177  0.25185021  0.37412972  1
  V  V85  1  0.25128025  0.37319847  0.62514453  1
  V  V86  1  0.74521837  0.74429574  0.00162743  1
  V  V87  1  0.24970989  -0.00142810  0.75053585  1
  V  V88  1  0.37545974  0.62538480  0.24980382  1
  V  V89  1  0.50104946  0.37677382  0.37321200  1
  V  V90  1  0.37650783  0.37464874  -0.00082829  1
  V  V91  1  0.24998288  0.12397698  0.37400523  1
  V  V92  1  0.50000026  0.12705184  0.12480200  1
  Zn  Zn93  1  0.75160955  0.75211917  0.49953853  1
  Zn  Zn94  1  0.12416535  0.87649061  0.25223666  1
  Zn  Zn95  1  0.12526223  0.12511283  -0.00179720  1
  Zn  Zn96  1  0.00255934  0.86917993  0.87953788  1
  Zn  Zn97  1  0.87986289  0.88469732  0.50692845  1
  Zn  Zn98  1  0.87910736  0.62324730  0.25364682  1
  Zn  Zn99  1  0.86775227  0.48166571  0.39356312  1
  Zn  Zn100  1  0.87600941  0.62754812  0.75264782  1
  Zn  Zn101  1  0.49636667  0.00577944  0.50230931  1
  Zn  Zn102  1  0.87836355  0.37568294  0.00096300  1
  Zn  Zn103  1  0.38029550  0.11854827  0.74341917  1
  Zn  Zn104  1  0.24847253  0.74687067  0.50139422  1
  Zn  Zn105  1  -0.00881067  0.37546063  0.38147699  1
  Zn  Zn106  1  0.87729113  0.00027122  0.87480871  1
  Zn  Zn107  1  0.50033836  0.87456650  0.87597520  1
  Zn  Zn108  1  0.12223081  0.62230529  0.50039481  1
  Zn  Zn109  1  0.74800475  0.62216401  0.88129291  1
  Zn  Zn110  1  -0.01077333  0.49718386  0.49963513  1
  Zn  Zn111  1  0.37493426  0.50118698  0.87555191  1
  Zn  Zn112  1  0.87308869  0.74540660  0.12588365  1
  Zn  Zn113  1  0.49944050  0.25208415  0.24711932  1
  Zn  Zn114  1  0.88135892  0.00781667  0.38397308  1
  Zn  Zn115  1  0.37747131  -0.00142980  0.87159214  1
  Zn  Zn116  1  0.00341639  0.50378829  -0.00414795  1
  Zn  Zn117  1  0.37602738  0.25013575  0.12505435  1
  Zn  Zn118  1  0.62477293  0.50116333  0.62480504  1
  Zn  Zn119  1  0.50037651  0.87775945  0.37604191  1
  Zn  Zn120  1  -0.00189686  0.62424358  0.62363731  1
  Zn  Zn121  1  0.00097600  0.12634207  0.12372494  1
  Zn  Zn122  1  0.18909888  0.18685667  0.18547236  1
  Zn  Zn123  1  0.18908277  0.18458639  0.68607218  1
  Zn  Zn124  1  0.18582365  0.68822835  0.18883966  1
  Zn  Zn125  1  0.18727355  0.68574779  0.69039769  1
  Zn  Zn126  1  0.68795707  0.18930172  0.18706911  1
  Zn  Zn127  1  0.68812675  0.18835899  0.68651158  1
  Zn  Zn128  1  0.68592528  0.68803729  0.18835316  1
  Zn  Zn129  1  0.68516630  0.68731324  0.68965065  1
  Zn  Zn130  1  0.31287783  0.31163443  0.31001639  1
  Zn  Zn131  1  0.31630124  0.31126230  0.81117235  1
  Zn  Zn132  1  0.31108292  0.81299689  0.31236495  1
  Zn  Zn133  1  0.30936115  0.80835573  0.81490579  1
  Zn  Zn134  1  0.81229388  0.31112462  0.30843613  1
  Zn  Zn135  1  0.81376622  0.31351562  0.81004903  1
  Zn  Zn136  1  0.81462150  0.81304583  0.31375984  1
  Zn  Zn137  1  0.81091075  0.81402344  0.81520205  1
  Zn  Zn138  1  0.18522639  0.43478284  0.43773360  1
  Zn  Zn139  1  0.18895232  0.43796165  0.93544605  1
  Zn  Zn140  1  0.18757928  0.93490171  0.43772172  1
  Zn  Zn141  1  0.19007300  0.93597139  0.93842804  1
  Zn  Zn142  1  0.68677638  0.44033906  0.43750740  1
  Zn  Zn143  1  0.68683107  0.43621910  0.93722183  1
  Zn  Zn144  1  0.68838647  0.94081679  0.43904844  1
  Zn  Zn145  1  0.68746435  0.93542354  0.93709016  1
  Zn  Zn146  1  0.31355301  0.06305223  0.06069754  1
  Zn  Zn147  1  0.30710447  0.05916934  0.56166539  1
  Zn  Zn148  1  0.31478710  0.56307754  0.05935160  1
  Zn  Zn149  1  0.30956565  0.56231490  0.56136119  1
  Zn  Zn150  1  0.81317774  0.06327922  0.06374892  1
  Zn  Zn151  1  0.80986692  0.06342210  0.56085813  1
  Zn  Zn152  1  0.81901280  0.56321683  0.06509627  1
  Zn  Zn153  1  0.81174915  0.56794739  0.56327652  1
  Zn  Zn154  1  0.43749603  0.43807702  0.18512191  1
  Zn  Zn155  1  0.43682667  0.43500596  0.68630359  1
  Zn  Zn156  1  0.43765596  0.93817565  0.18608332  1
  Zn  Zn157  1  0.43749042  0.93505137  0.68815086  1
  Zn  Zn158  1  0.94002019  0.43684661  0.19049544  1
  Zn  Zn159  1  0.93748467  0.43540613  0.68685978  1
  Zn  Zn160  1  0.93671312  0.93639248  0.19023340  1
  Zn  Zn161  1  0.93785115  0.93652629  0.69065165  1
  Zn  Zn162  1  0.06369925  0.06499637  0.30963266  1
  Zn  Zn163  1  0.06424928  0.05967742  0.81139418  1
  Zn  Zn164  1  0.05840148  0.55927713  0.31319604  1
  Zn  Zn165  1  0.05966435  0.56191567  0.80538311  1
  Zn  Zn166  1  0.56083145  0.06303926  0.31449421  1
  Zn  Zn167  1  0.56330822  0.06100215  0.81480010  1
  Zn  Zn168  1  0.56484298  0.56447472  0.31125728  1
  Zn  Zn169  1  0.56285298  0.56352800  0.81306891  1
  Zn  Zn170  1  0.43805332  0.18854094  0.43349956  1
  Zn  Zn171  1  0.43743442  0.18820155  0.93600617  1
  Zn  Zn172  1  0.43704380  0.68937260  0.43698520  1
  Zn  Zn173  1  0.43188438  0.68680823  0.93545663  1
  Zn  Zn174  1  0.93848114  0.19104392  0.43578778  1
  Zn  Zn175  1  0.93846203  0.18639649  0.93812560  1
  Zn  Zn176  1  0.93848325  0.68731513  0.44667851  1
  Zn  Zn177  1  0.93379771  0.68621397  0.93794626  1
  Zn  Zn178  1  0.06357559  0.31545394  0.06054617  1
  Zn  Zn179  1  0.06117161  0.31226682  0.55994663  1
  Zn  Zn180  1  0.06050231  0.81441345  0.06571167  1
  Zn  Zn181  1  0.06189517  0.81022459  0.56478496  1
  Zn  Zn182  1  0.56341036  0.31466020  0.06234953  1
  Zn  Zn183  1  0.56467573  0.31431509  0.56241503  1
  Zn  Zn184  1  0.56256853  0.81315690  0.06433113  1
  Zn  Zn185  1  0.56084992  0.81298643  0.56357257  1
  O  O186  1  0.12587918  0.11113315  0.12081636  1
  O  O187  1  0.12021282  0.11602744  0.62050751  1
  O  O188  1  0.11703922  0.61452925  0.13274062  1
  O  O189  1  0.12740238  0.61144802  0.62621777  1
  O  O190  1  0.62148314  0.12034216  0.11873383  1
  O  O191  1  0.63307586  0.11605729  0.61603140  1
  O  O192  1  0.61559817  0.61767790  0.13077001  1
  O  O193  1  0.61675272  0.62475427  0.61907955  1
  O  O194  1  0.37983122  0.38083007  0.37905377  1
  O  O195  1  0.38288050  0.37660137  0.88041361  1
  O  O196  1  0.37338158  0.87983525  0.38456632  1
  O  O197  1  0.37531976  0.87411421  0.88757179  1
  O  O198  1  0.87622287  0.37110815  0.37214647  1
  O  O199  1  0.88153484  0.38303831  0.87326065  1
  O  O200  1  0.89027483  0.87437000  0.37703999  1
  O  O201  1  0.87425272  0.87939480  0.88935731  1
  O  O202  1  0.25418388  0.00451792  0.36870295  1
  O  O203  1  0.25103371  0.00799672  0.86955692  1
  O  O204  1  0.25523064  0.50431513  0.36837630  1
  O  O205  1  0.25351009  0.50670544  0.86908224  1
  O  O206  1  0.74905912  0.00867326  0.36779041  1
  O  O207  1  0.74964285  0.00757724  0.86899806  1
  O  O208  1  0.74792633  0.51016112  0.36659107  1
  O  O209  1  0.75646604  0.49834608  0.86739269  1
  O  O210  1  0.24447579  0.49669685  0.12883503  1
  O  O211  1  0.24534017  0.49223334  0.63153067  1
  O  O212  1  0.24344205  0.99402941  0.12726860  1
  O  O213  1  0.24027542  0.99344418  0.63194117  1
  O  O214  1  0.74576254  0.49794543  0.13054939  1
  O  O215  1  0.74855391  0.49263326  0.63479965  1
  O  O216  1  0.74445288  0.99553580  0.13149706  1
  O  O217  1  0.74004531  0.99286421  0.63210040  1
  O  O218  1  0.01020454  0.36674326  0.24934950  1
  O  O219  1  0.00632358  0.36591616  0.75454767  1
  O  O220  1  0.00182725  0.86506449  0.25859127  1
  O  O221  1  0.00741165  0.86889407  0.75428866  1
  O  O222  1  0.50717664  0.37746281  0.25550758  1
  O  O223  1  0.50521535  0.36668137  0.75419322  1
  O  O224  1  0.50613395  0.86933087  0.24993472  1
  O  O225  1  0.50567100  0.86659255  0.75219442  1
  O  O226  1  0.49461076  0.12598264  0.24282350  1
  O  O227  1  0.49992343  0.13924846  0.75534078  1
  O  O228  1  0.49422616  0.63107275  0.24438028  1
  O  O229  1  0.49426100  0.62957615  0.74461067  1
  O  O230  1  0.99428477  0.13151648  0.24616726  1
  O  O231  1  0.99569351  0.12851131  0.74325912  1
  O  O232  1  0.99965463  0.63551574  0.24364215  1
  O  O233  1  0.99751528  0.63635313  0.74351032  1
  O  O234  1  0.36893007  0.25700162  0.00028656  1
  O  O235  1  0.37156546  0.25412431  0.50479604  1
  O  O236  1  0.36985723  0.75823781  0.00663749  1
  O  O237  1  0.37318302  0.75848949  0.50629389  1
  O  O238  1  0.86901053  0.25129287  0.00519666  1
  O  O239  1  0.85968193  0.24119797  0.50683760  1
  O  O240  1  0.86613495  0.76036956  0.00204493  1
  O  O241  1  0.87250883  0.75884128  0.51523784  1
  O  O242  1  0.13358835  0.24241640  0.49443518  1
  O  O243  1  0.13233262  0.24879333  0.99109680  1
  O  O244  1  0.12643245  0.74868876  0.48821931  1
  O  O245  1  0.13883827  0.75610878  1.00558317  1
  O  O246  1  0.63293828  0.24489810  0.49605232  1
  O  O247  1  0.63100991  0.24506473  0.99362448  1
  O  O248  1  0.62394706  0.74508642  0.49381732  1
  O  O249  1  0.63447117  0.75938926  0.99188674  1
  O  O250  1  0.49935562  0.24271783  0.12582813  1
  O  O251  1  0.49196662  0.25672541  0.63295204  1
  O  O252  1  0.49475400  0.74503905  0.13008236  1
  O  O253  1  0.49373392  0.74396338  0.63200379  1
  O  O254  1  0.99560401  0.24917237  0.12949719  1
  O  O255  1  0.99497553  0.24334928  0.63082393  1
  O  O256  1  1.00227420  0.74313616  0.13488508  1
  O  O257  1  0.98823812  0.75497046  0.63566159  1
  O  O258  1  0.01007766  0.24874594  0.36549731  1
  O  O259  1  0.00638304  0.25258575  0.86821616  1
  O  O260  1  0.00639009  0.75621821  0.36903118  1
  O  O261  1  -0.00749133  0.75024598  0.86140599  1
  O  O262  1  0.50665433  0.25940493  0.37217289  1
  O  O263  1  0.50594212  0.25571879  0.86653330  1
  O  O264  1  0.50562228  0.75279547  0.36730634  1
  O  O265  1  0.50753868  0.75068798  0.87138662  1
  O  O266  1  0.24324499  0.12935117  0.49317240  1
  O  O267  1  0.24943492  0.12982775  0.98884366  1
  O  O268  1  0.24698770  0.62726452  0.48988645  1
  O  O269  1  0.25695143  0.63327943  0.99070369  1
  O  O270  1  0.73875476  0.13576442  0.49491663  1
  O  O271  1  0.74479975  0.13083367  0.99473730  1
  O  O272  1  0.74070751  0.62978837  0.49171216  1
  O  O273  1  0.75705946  0.64087810  1.00241394  1
  O  O274  1  0.25641732  0.37013630  0.00277571  1
  O  O275  1  0.25726201  0.36738335  0.50418262  1
  O  O276  1  0.25808821  0.86677178  0.00443881  1
  O  O277  1  0.26052117  0.87278371  0.50646829  1
  O  O278  1  0.75144269  0.36839585  0.00576990  1
  O  O279  1  0.74082692  0.36514645  0.50965803  1
  O  O280  1  0.75655830  0.86956231  0.00687652  1
  O  O281  1  0.74630142  0.87334778  0.51552644  1
  O  O282  1  0.13222681  0.49411988  0.24136282  1
  O  O283  1  0.13236273  0.49121029  0.74219686  1
  O  O284  1  0.13197747  0.99977251  0.23963200  1
  O  O285  1  0.12975338  0.99050908  0.74054544  1
  O  O286  1  0.63507757  0.49657067  0.24388884  1
  O  O287  1  0.63382988  0.49409020  0.75043987  1
  O  O288  1  0.63070606  0.99651011  0.24511638  1
  O  O289  1  0.62942888  0.99666340  0.74353496  1
  O  O290  1  0.36927211  0.00475145  0.25452414  1
  O  O291  1  0.36716909  0.00075748  0.75032579  1
  O  O292  1  0.37003483  0.50553227  0.25470226  1
  O  O293  1  0.36861334  0.50490019  0.74925152  1
  O  O294  1  0.86887167  0.00694705  0.25330012  1
  O  O295  1  0.86840052  0.00675301  0.75197807  1
  O  O296  1  0.85905987  0.50168961  0.24791699  1
  O  O297  1  0.86560164  0.49870341  0.75808374  1
  O  O298  1  0.13133371  0.36563438  0.36427053  1
  O  O299  1  0.12129129  0.36897827  0.86734668  1
  O  O300  1  0.11576586  0.86686875  0.37382182  1
  O  O301  1  0.12495259  0.87911403  0.86103992  1
  O  O302  1  0.62047400  0.37192716  0.36933795  1
  O  O303  1  0.62001942  0.36824580  0.86847052  1
  O  O304  1  0.62379385  0.87110549  0.36986455  1
  O  O305  1  0.62406218  0.86510479  0.86887333  1
  O  O306  1  0.38173195  0.12523418  0.13010313  1
  O  O307  1  0.36951567  0.13784345  0.62267923  1
  O  O308  1  0.38170895  0.62949381  0.13151491  1
  O  O309  1  0.37876274  0.62996845  0.63032627  1
  O  O310  1  0.87601479  0.13230232  0.13137351  1
  O  O311  1  0.87854508  0.13033837  0.63115285  1
  O  O312  1  0.88784195  0.62663851  0.13203356  1
  O  O313  1  0.87159012  0.64115749  0.63155321  1
  O  O314  1  0.25040457  0.25679789  0.11608726  1
  O  O315  1  0.25823898  0.25393504  0.61937064  1
  O  O316  1  0.25540767  0.75265557  0.11861071  1
  O  O317  1  0.25592525  0.75580730  0.62489315  1
  O  O318  1  0.75544788  0.25664001  0.11915906  1
  O  O319  1  0.75379833  0.25752038  0.61821626  1
  O  O320  1  0.74885135  0.75698501  0.11862229  1
  O  O321  1  0.75512236  0.76084232  0.62994124  1
  O  O322  1  0.24649920  0.24287956  0.37936329  1
  O  O323  1  0.24620244  0.24219873  0.87689883  1
  O  O324  1  0.23936231  0.74482097  0.37302493  1
  O  O325  1  0.25324362  0.73898132  0.88519363  1
  O  O326  1  0.74288251  0.24609790  0.38212217  1
  O  O327  1  0.74488273  0.24560665  0.87830648  1
  O  O328  1  0.74225544  0.74448904  0.37532064  1
  O  O329  1  0.74191605  0.74970219  0.88392447  1
  O  O330  1  0.00289970  0.11295673  0.00262802  1
  O  O331  1  0.00885767  0.13310964  0.50802606  1
  O  O332  1  -0.00404668  0.62530246  0.01435702  1
  O  O333  1  0.00551076  0.61938999  0.50807284  1
  O  O334  1  0.50621157  0.12013143  0.00366390  1
  O  O335  1  0.51488430  0.12752719  0.49590451  1
  O  O336  1  0.49060472  0.61307723  0.00596633  1
  O  O337  1  0.50250643  0.62036823  0.50500633  1
  O  O338  1  0.49572905  0.38084096  0.49336880  1
  O  O339  1  0.49640460  0.38316676  0.99424320  1
  O  O340  1  0.48553570  0.87738529  0.50079461  1
  O  O341  1  0.48998532  0.87991087  1.00214641  1
  O  O342  1  1.01001295  0.38205486  0.49415306  1
  O  O343  1  0.99863795  0.37928544  0.98916068  1
  O  O344  1  1.00204119  0.87103493  0.48521918  1
  O  O345  1  0.99145616  0.88039791  1.00034786  1
  O  O346  1  0.49419994  0.49680592  0.37949783  1
  O  O347  1  0.50044388  0.49489246  0.88291419  1
  O  O348  1  0.49065794  0.99778695  0.37932580  1
  O  O349  1  0.49779947  0.99632938  0.88332325  1
  O  O350  1  0.98934743  0.49746022  0.37476018  1
  O  O351  1  0.99168123  0.49441827  0.87175935  1
  O  O352  1  1.00335910  0.98397513  0.36744978  1
  O  O353  1  1.00032016  0.99656900  0.88780063  1
  O  O354  1  0.00908024  -0.00231992  0.11704041  1
  O  O355  1  0.01155593  0.00430749  0.63058262  1
  O  O356  1  0.00881317  0.50810214  0.12617057  1
  O  O357  1  0.01389152  0.49888974  0.63072866  1
  O  O358  1  0.50661673  0.00651286  0.11919991  1
  O  O359  1  0.51425816  -0.00423388  0.62452334  1
  O  O360  1  0.50582539  0.50485502  0.11705788  1
  O  O361  1  0.50034713  0.50557985  0.61811051  1
  O  O362  1  0.24682610  0.38081390  0.24227423  1
  O  O363  1  0.24641662  0.37793155  0.74503597  1
  O  O364  1  0.24870978  0.88151437  0.24249752  1
  O  O365  1  0.24240610  0.87719460  0.74586881  1
  O  O366  1  0.74343662  0.38425742  0.24304151  1
  O  O367  1  0.74451763  0.38244419  0.74271017  1
  O  O368  1  0.74510881  0.88067605  0.24620179  1
  O  O369  1  0.74343509  0.88126861  0.74314769  1
  O  O370  1  0.25631221  0.11869446  0.25455583  1
  O  O371  1  0.25139002  0.11791631  0.75769035  1
  O  O372  1  0.25649263  0.61985483  0.25471215  1
  O  O373  1  0.25529778  0.61982710  0.75783678  1
  O  O374  1  0.75473915  0.12133425  0.25481601  1
  O  O375  1  0.75525553  0.12161800  0.75489343  1
  O  O376  1  0.74864786  0.61839082  0.25873145  1
  O  O377  1  0.74971449  0.61166795  0.75187449  1
  O  O378  1  0.36906739  0.11897089  0.37002473  1
  O  O379  1  0.36366141  0.12372153  0.87081924  1
  O  O380  1  0.36993105  0.62010720  0.36895677  1
  O  O381  1  0.36707447  0.62175140  0.86577584  1
  O  O382  1  0.86785150  0.12775308  0.36682093  1
  O  O383  1  0.86894560  0.12365319  0.86832621  1
  O  O384  1  0.85900632  0.63293119  0.37568511  1
  O  O385  1  0.87089199  0.61237044  0.87219683  1
  O  O386  1  0.13173386  0.38350467  0.13036264  1
  O  O387  1  0.13321936  0.37868861  0.63104308  1
  O  O388  1  0.13094129  0.88553269  0.12774376  1
  O  O389  1  0.12900897  0.88175956  0.63088957  1
  O  O390  1  0.63155520  0.38386620  0.12915691  1
  O  O391  1  0.63651336  0.37702711  0.63100519  1
  O  O392  1  0.63033407  0.88209662  0.13180807  1
  O  O393  1  0.63095941  0.88198798  0.63135046  1
  O  O394  1  0.12225881  0.25360754  0.25322245  1
  O  O395  1  0.12094469  0.25313745  0.75331094  1
  O  O396  1  0.11634502  0.75232582  0.26000871  1
  O  O397  1  0.11411476  0.76113809  0.74025943  1
  O  O398  1  0.62535917  0.25868823  0.25623566  1
  O  O399  1  0.61856633  0.25462443  0.75313935  1
  O  O400  1  0.61923966  0.75750265  0.25541395  1
  O  O401  1  0.61950295  0.75511241  0.75884309  1
  O  O402  1  0.37785836  0.24132781  0.24688776  1
  O  O403  1  0.38379153  0.24867482  0.73952937  1
  O  O404  1  0.37947498  0.74537549  0.24428278  1
  O  O405  1  0.37985383  0.74472715  0.74489702  1
  O  O406  1  0.88064563  0.24331675  0.24156592  1
  O  O407  1  0.88089211  0.24322440  0.74412804  1
  O  O408  1  0.88622694  0.74895608  0.24792763  1
  O  O409  1  0.88103568  0.75323492  0.74430453  1
  O  O410  1  0.37950123  0.49377913  0.49379783  1
  O  O411  1  0.38673594  0.49198542  0.99917292  1
  O  O412  1  0.37422312  0.99181339  0.49621983  1
  O  O413  1  0.37944112  0.98823594  1.00018150  1
  O  O414  1  0.87342114  0.50013596  0.50490916  1
  O  O415  1  0.87601326  0.49729263  0.98691358  1
  O  O416  1  0.86944373  0.99683034  0.49584774  1
  O  O417  1  0.88336363  0.99206164  1.00233427  1
  O  O418  1  0.11766063  -0.00320724  0.00803496  1
  O  O419  1  0.13279251  0.00534307  0.51262421  1
  O  O420  1  0.12458174  0.49474828  0.01419827  1
  O  O421  1  0.13121021  0.49946015  0.51461975  1
  O  O422  1  0.62090627  0.00518557  0.00598081  1
  O  O423  1  0.62436165  0.00975225  0.50860538  1
  O  O424  1  0.61288302  0.49547228  0.00472178  1
  O  O425  1  0.61716655  0.50887058  0.50083554  1
  O  O426  1  0.36835162  0.37413913  0.11781860  1
  O  O427  1  0.37043307  0.36471010  0.61767516  1
  O  O428  1  0.36936373  0.86946887  0.11681059  1
  O  O429  1  0.36916856  0.86977010  0.61859599  1
  O  O430  1  0.86884685  0.36943267  0.12415364  1
  O  O431  1  0.86106179  0.36632567  0.63352114  1
  O  O432  1  0.86897648  0.87348971  0.11606292  1
  O  O433  1  0.86372796  0.87038263  0.62922060  1
  O  O434  1  0.13145589  0.12925773  0.37920281  1
  O  O435  1  0.13665167  0.12955252  0.87392825  1
  O  O436  1  0.12986218  0.63352214  0.37310921  1
  O  O437  1  0.13829347  0.61753714  0.86874089  1
  O  O438  1  0.63005222  0.13149636  0.38230432  1
  O  O439  1  0.63152436  0.13123244  0.88031185  1
  O  O440  1  0.63280107  0.63220764  0.37912370  1
  O  O441  1  0.62776083  0.63959235  0.87213357  1
