# generated using pymatgen
data_V93Zn93O256
_symmetry_space_group_name_H-M   'P 1'
_cell_length_a   17.07145004
_cell_length_b   17.07594562
_cell_length_c   17.06103091
_cell_angle_alpha   89.98418016
_cell_angle_beta   89.98907975
_cell_angle_gamma   90.01530608
_symmetry_Int_Tables_number   1
_chemical_formula_structural   V93Zn93O256
_chemical_formula_sum   'V93 Zn93 O256'
_cell_volume   4973.48033010
_cell_formula_units_Z   1
loop_
 _symmetry_equiv_pos_site_id
 _symmetry_equiv_pos_as_xyz
  1  'x, y, z'
loop_
 _atom_site_type_symbol
 _atom_site_label
 _atom_site_symmetry_multiplicity
 _atom_site_fract_x
 _atom_site_fract_y
 _atom_site_fract_z
 _atom_site_occupancy
  V  V0  1  0.50083466  0.62347272  0.12532569  1
  V  V1  1  0.25005956  0.74978999  0.00023206  1
  V  V2  1  0.75014818  0.37728992  0.62702716  1
  V  V3  1  0.50218873  0.12553997  0.62481952  1
  V  V4  1  0.62481150  0.62239683  0.00154824  1
  V  V5  1  0.50004857  0.12410520  0.12403253  1
  V  V6  1  0.74416280  0.36544904  0.12521973  1
  V  V7  1  0.49933002  0.75420126  0.75687480  1
  V  V8  1  0.24960410  0.62443097  0.37504881  1
  V  V9  1  0.74820695  0.62568530  0.87670912  1
  V  V10  1  0.50016129  0.75237414  0.25085481  1
  V  V11  1  0.24890243  0.49913359  0.74991331  1
  V  V12  1  0.00017162  0.25027788  0.74980261  1
  V  V13  1  0.76168956  0.00151894  0.25812128  1
  V  V14  1  0.37414930  0.75071425  0.62520704  1
  V  V15  1  0.75000397  0.87563360  0.12440147  1
  V  V16  1  0.24894682  0.37806806  0.12591733  1
  V  V17  1  0.12314888  0.62435342  0.00084254  1
  V  V18  1  0.74981282  0.75192507  0.50005425  1
  V  V19  1  0.62388915  0.75098656  0.37580976  1
  V  V20  1  0.25084372  0.75076618  0.50092428  1
  V  V21  1  0.37444888  0.62523285  0.75067529  1
  V  V22  1  -0.00132989  0.62482902  0.12458907  1
  V  V23  1  0.00498763  -0.00309941  0.50071499  1
  V  V24  1  0.87643005  0.50247501  0.37389456  1
  V  V25  1  0.12411863  0.74974208  0.87493531  1
  V  V26  1  0.50043111  0.25017745  0.75114823  1
  V  V27  1  0.87577235  -0.00011464  0.87357118  1
  V  V28  1  0.87496484  0.37634195  0.50003541  1
  V  V29  1  0.62564060  0.00162712  0.62496843  1
  V  V30  1  0.49948333  0.50115647  0.50144688  1
  V  V31  1  0.62601222  -0.00161387  0.12672874  1
  V  V32  1  0.37303842  0.50165692  0.37381195  1
  V  V33  1  0.37523901  0.74962852  0.12372003  1
  V  V34  1  0.50659883  0.25386900  0.25011357  1
  V  V35  1  0.74600536  0.25262906  0.50045182  1
  V  V36  1  0.50591974  0.37602639  0.37149048  1
  V  V37  1  0.24998764  0.12499514  0.87591467  1
  V  V38  1  0.62077657  0.87563201  0.75730473  1
  V  V39  1  0.87496603  0.87562700  -0.00101746  1
  V  V40  1  0.49930398  0.62479775  0.62634684  1
  V  V41  1  0.24877951  0.24947725  0.49432285  1
  V  V42  1  0.87333304  0.49905001  0.87679386  1
  V  V43  1  -0.00087625  0.74878118  0.24938100  1
  V  V44  1  0.00033878  0.37294391  0.87566237  1
  V  V45  1  0.74113223  0.49927714  0.24805503  1
  V  V46  1  0.37403439  0.37424632  0.50071288  1
  V  V47  1  0.87130602  0.36259818  0.00367376  1
  V  V48  1  0.24947023  0.24942346  -0.00164433  1
  V  V49  1  0.00003568  0.00357348  0.00118950  1
  V  V50  1  0.24877334  0.62343225  0.87546490  1
  V  V51  1  0.74925827  -0.00057828  0.74855417  1
  V  V52  1  0.74916802  0.87598321  0.62603278  1
  V  V53  1  0.62362440  0.50140666  0.62648617  1
  V  V54  1  -0.00110008  0.62515087  0.62630479  1
  V  V55  1  0.75043348  0.62599411  0.37549344  1
  V  V56  1  0.62793427  0.12729307  0.49485517  1
  V  V57  1  0.87468883  0.88082025  0.50020417  1
  V  V58  1  0.62990489  0.24906309  0.88116978  1
  V  V59  1  0.12521899  0.74805539  0.37517161  1
  V  V60  1  0.12415396  0.00077522  0.12279118  1
  V  V61  1  0.25112216  -0.00019572  0.75096112  1
  V  V62  1  0.25307721  -0.00157326  0.24988154  1
  V  V63  1  0.00170419  0.12560186  0.62445945  1
  V  V64  1  0.87493292  0.74961423  0.12534822  1
  V  V65  1  0.37905508  0.87368554  -0.00525357  1
  V  V66  1  0.50140370  -0.00287774  -0.00433107  1
  V  V67  1  -0.00497032  0.87511764  0.37602294  1
  V  V68  1  0.87373423  0.12334036  0.74399438  1
  V  V69  1  0.37529877  0.25063421  0.12469120  1
  V  V70  1  0.74890609  0.50163033  0.75133679  1
  V  V71  1  0.00291319  0.36968797  0.37211207  1
  V  V72  1  0.12380961  0.62450997  0.50071350  1
  V  V73  1  0.50000126  0.37543686  0.87679408  1
  V  V74  1  0.74965276  0.74931899  0.00112355  1
  V  V75  1  0.75169568  0.12808562  0.88123465  1
  V  V76  1  0.37598196  0.12483207  0.75019902  1
  V  V77  1  -0.00089066  0.75000036  0.75088940  1
  V  V78  1  0.12431669  0.87426300  0.75087643  1
  V  V79  1  0.37588115  0.49822276  0.87519897  1
  V  V80  1  0.12618841  0.12834359  0.50060344  1
  V  V81  1  0.37524370  0.12389911  0.25265517  1
  V  V82  1  0.12713663  -0.00045739  0.62662182  1
  V  V83  1  0.12240776  0.37237443  0.25204743  1
  V  V84  1  0.87363633  0.62627896  0.75087880  1
  V  V85  1  0.62538134  0.37528512  0.75208679  1
  V  V86  1  0.12470332  0.49803632  0.62611383  1
  V  V87  1  -0.00195419  0.49947307  0.00157838  1
  V  V88  1  0.87542865  0.25197136  0.62380621  1
  V  V89  1  0.37843574  -0.00191628  0.87458160  1
  V  V90  1  0.25092681  0.87408436  0.62503544  1
  V  V91  1  0.37529150  0.25026546  0.62499362  1
  V  V92  1  0.12638809  0.87253014  0.24939784  1
  Zn  Zn93  1  0.62909287  0.12625749  0.00046137  1
  Zn  Zn94  1  0.78275663  0.15876945  0.33867308  1
  Zn  Zn95  1  0.12509262  0.24773141  0.87346009  1
  Zn  Zn96  1  0.25087367  0.12431445  0.37573307  1
  Zn  Zn97  1  0.24863364  0.50238077  0.24864968  1
  Zn  Zn98  1  0.37783257  0.87853128  0.49903197  1
  Zn  Zn99  1  0.62523361  0.62683315  0.50322387  1
  Zn  Zn100  1  0.37589003  0.37682914  0.00040030  1
  Zn  Zn101  1  -0.00016994  0.50079688  0.49977043  1
  Zn  Zn102  1  0.49922077  -0.00018216  0.49678173  1
  Zn  Zn103  1  0.49872419  0.49750941  0.00221602  1
  Zn  Zn104  1  0.25098461  0.87348328  0.12391639  1
  Zn  Zn105  1  0.12270646  0.49978098  0.12632179  1
  Zn  Zn106  1  0.87469150  0.62510186  0.24887874  1
  Zn  Zn107  1  0.62613952  0.25345454  0.37120015  1
  Zn  Zn108  1  0.62608165  0.87564525  0.25204906  1
  Zn  Zn109  1  -0.00235474  0.13409090  0.14940153  1
  Zn  Zn110  1  0.08840666  0.21157333  0.32951100  1
  Zn  Zn111  1  0.49863464  0.87706453  0.37985550  1
  Zn  Zn112  1  0.12319196  0.12668312  0.00100421  1
  Zn  Zn113  1  0.37984913  -0.00356500  0.37697378  1
  Zn  Zn114  1  0.87368211  0.75001681  0.62594881  1
  Zn  Zn115  1  0.62151669  0.49328315  0.13002524  1
  Zn  Zn116  1  -0.00023063  0.87512717  0.87459353  1
  Zn  Zn117  1  0.87972720  0.24222132  0.15113240  1
  Zn  Zn118  1  0.62112546  0.75391072  0.87874459  1
  Zn  Zn119  1  0.37217018  0.62591321  0.24890010  1
  Zn  Zn120  1  0.12607735  0.37271154  0.75046698  1
  Zn  Zn121  1  0.24866025  0.37325136  0.62623006  1
  Zn  Zn122  1  0.18981498  0.18551141  0.18187581  1
  Zn  Zn123  1  0.18861342  0.18939045  0.68713159  1
  Zn  Zn124  1  0.18744724  0.68577275  0.18708848  1
  Zn  Zn125  1  0.18650093  0.68647282  0.68783983  1
  Zn  Zn126  1  0.68747549  0.18300441  0.18356398  1
  Zn  Zn127  1  0.68802837  0.18774236  0.68830220  1
  Zn  Zn128  1  0.68799956  0.68593444  0.18934814  1
  Zn  Zn129  1  0.68533876  0.69032088  0.68796577  1
  Zn  Zn130  1  0.31379608  0.31399095  0.31089438  1
  Zn  Zn131  1  0.31256832  0.31414348  0.81194458  1
  Zn  Zn132  1  0.31492285  0.81299922  0.31375015  1
  Zn  Zn133  1  0.31163200  0.81218379  0.81324138  1
  Zn  Zn134  1  0.81000020  0.32499587  0.31241834  1
  Zn  Zn135  1  0.81388666  0.31168711  0.81277498  1
  Zn  Zn136  1  0.81148108  0.81569023  0.31105355  1
  Zn  Zn137  1  0.81035774  0.81214920  0.81397811  1
  Zn  Zn138  1  0.18665726  0.43617597  0.43899841  1
  Zn  Zn139  1  0.18576606  0.43733579  0.93949771  1
  Zn  Zn140  1  0.18896582  0.93546557  0.43644465  1
  Zn  Zn141  1  0.18998861  0.93543159  0.93687386  1
  Zn  Zn142  1  0.68714526  0.44135436  0.43933845  1
  Zn  Zn143  1  0.68771298  0.43686333  0.94178724  1
  Zn  Zn144  1  0.68439938  0.93784724  0.43939477  1
  Zn  Zn145  1  0.68974984  0.93989986  0.93760830  1
  Zn  Zn146  1  0.31374490  0.06228728  0.06292204  1
  Zn  Zn147  1  0.31440196  0.06214544  0.56297034  1
  Zn  Zn148  1  0.31376213  0.56220965  0.05998386  1
  Zn  Zn149  1  0.31134714  0.56325297  0.56254075  1
  Zn  Zn150  1  0.81823028  0.06505248  0.06813174  1
  Zn  Zn151  1  0.84768202  0.09659092  0.50731294  1
  Zn  Zn152  1  0.81266988  0.55852186  0.06425382  1
  Zn  Zn153  1  0.81149565  0.56455504  0.56216234  1
  Zn  Zn154  1  0.43543559  0.43723989  0.18872758  1
  Zn  Zn155  1  0.43674391  0.43634748  0.68909850  1
  Zn  Zn156  1  0.43795538  0.93521377  0.18366226  1
  Zn  Zn157  1  0.43911862  0.93764296  0.68418909  1
  Zn  Zn158  1  0.93462323  0.43355903  0.18726911  1
  Zn  Zn159  1  0.93762972  0.43926231  0.68924630  1
  Zn  Zn160  1  0.93790462  0.93791474  0.18597129  1
  Zn  Zn161  1  0.93753469  0.93683750  0.68542285  1
  Zn  Zn162  1  0.06711964  0.04845477  0.31572556  1
  Zn  Zn163  1  0.06299063  0.06316638  0.81447914  1
  Zn  Zn164  1  0.06311932  0.55895422  0.30950660  1
  Zn  Zn165  1  0.06081732  0.56150829  0.81285532  1
  Zn  Zn166  1  0.56405399  0.06301480  0.31342901  1
  Zn  Zn167  1  0.56382735  0.06402636  0.81277084  1
  Zn  Zn168  1  0.56114072  0.56618410  0.31483786  1
  Zn  Zn169  1  0.56117901  0.56398223  0.81414543  1
  Zn  Zn170  1  0.43951634  0.18743517  0.43759238  1
  Zn  Zn171  1  0.43799597  0.18666444  0.93761376  1
  Zn  Zn172  1  0.43667878  0.68759266  0.43960559  1
  Zn  Zn173  1  0.43654672  0.68440841  0.93780244  1
  Zn  Zn174  1  0.93302855  0.17651577  0.33036783  1
  Zn  Zn175  1  0.93678477  0.18535453  0.93812804  1
  Zn  Zn176  1  0.93647750  0.68959703  0.44007801  1
  Zn  Zn177  1  0.93675814  0.68769111  0.93737417  1
  Zn  Zn178  1  0.06077455  0.30954209  0.06616607  1
  Zn  Zn179  1  0.06040061  0.31317205  0.55846290  1
  Zn  Zn180  1  0.06169049  0.81401559  0.06201057  1
  Zn  Zn181  1  0.06337455  0.81001297  0.56462341  1
  Zn  Zn182  1  0.56151284  0.31196528  0.06149315  1
  Zn  Zn183  1  0.56086082  0.31515354  0.56302812  1
  Zn  Zn184  1  0.56276725  0.81226003  0.06288092  1
  Zn  Zn185  1  0.56136853  0.81415281  0.56531890  1
  O  O186  1  0.12290942  0.11098368  0.12316259  1
  O  O187  1  0.12203758  0.11865113  0.62024110  1
  O  O188  1  0.11726717  0.62370607  0.11788279  1
  O  O189  1  0.11952647  0.61673672  0.62129118  1
  O  O190  1  0.61931444  0.11499488  0.11882357  1
  O  O191  1  0.62072144  0.12147912  0.61994364  1
  O  O192  1  0.61623026  0.62585413  0.11738044  1
  O  O193  1  0.61777561  0.61835957  0.62647821  1
  O  O194  1  0.38255836  0.38423417  0.38041017  1
  O  O195  1  0.38250211  0.38081995  0.87499465  1
  O  O196  1  0.37943272  0.87688878  0.37898167  1
  O  O197  1  0.37034427  0.88082952  0.88674666  1
  O  O198  1  0.88248856  0.38598771  0.37991587  1
  O  O199  1  0.88093969  0.37953179  0.88152676  1
  O  O200  1  0.88666743  0.86737817  0.38512532  1
  O  O201  1  0.87445341  0.88246307  0.88112190  1
  O  O202  1  0.24972999  0.00068103  0.35871943  1
  O  O203  1  0.25771656  0.00475804  0.86975962  1
  O  O204  1  0.26012224  0.50481844  0.37794183  1
  O  O205  1  0.25399312  0.50464883  0.87030821  1
  O  O206  1  0.74197295  -0.00982156  0.35595409  1
  O  O207  1  0.75547808  0.00813108  0.86747164  1
  O  O208  1  0.75646525  0.50366926  0.36891420  1
  O  O209  1  0.75351702  0.50550176  0.87061969  1
  O  O210  1  0.25036696  0.48832615  0.12351346  1
  O  O211  1  0.24005488  0.50090627  0.63084991  1
  O  O212  1  0.24268429  0.99854504  0.13292971  1
  O  O213  1  0.24587251  0.99489416  0.63284964  1
  O  O214  1  0.74740816  0.49556636  0.13469453  1
  O  O215  1  0.74425919  0.49634128  0.63162299  1
  O  O216  1  0.74192862  0.99516883  0.13034555  1
  O  O217  1  0.74029206  0.99130913  0.63470820  1
  O  O218  1  0.01019007  0.38091941  0.25844252  1
  O  O219  1  -0.00263277  0.36961570  0.76102888  1
  O  O220  1  0.00488727  0.86997286  0.25788252  1
  O  O221  1  0.00688475  0.86875581  0.75043999  1
  O  O222  1  0.49212240  0.36467111  0.25893204  1
  O  O223  1  0.50653817  0.36956697  0.75644856  1
  O  O224  1  0.50269669  0.86010739  0.24666356  1
  O  O225  1  0.50903976  0.86556212  0.74383808  1
  O  O226  1  0.49205103  0.13222996  0.24395481  1
  O  O227  1  0.49519248  0.13110879  0.74575769  1
  O  O228  1  0.49939820  0.63459943  0.24070221  1
  O  O229  1  0.49381063  0.63244198  0.74535194  1
  O  O230  1  1.01843253  0.13571358  0.26613033  1
  O  O231  1  0.99338061  0.12884775  0.74368433  1
  O  O232  1  0.99833115  0.63153532  0.24372335  1
  O  O233  1  0.99307244  0.62999090  0.74673552  1
  O  O234  1  0.36552431  0.25069695  0.00577451  1
  O  O235  1  0.36884758  0.25326344  0.50563951  1
  O  O236  1  0.37167760  0.75621296  0.00239824  1
  O  O237  1  0.36717847  0.74908070  0.50880882  1
  O  O238  1  0.87378574  0.26334622  -0.00641139  1
  O  O239  1  0.85864537  0.26079827  0.50886899  1
  O  O240  1  0.86944651  0.75536959  0.00531140  1
  O  O241  1  0.86887904  0.76214689  0.50262387  1
  O  O242  1  0.13461561  0.23904469  0.50724879  1
  O  O243  1  0.13889009  0.24811779  0.99915023  1
  O  O244  1  0.13063271  0.74367858  0.49520554  1
  O  O245  1  0.12952947  0.74497639  0.99488181  1
  O  O246  1  0.63190804  0.24624411  0.50321193  1
  O  O247  1  0.62017563  0.24626420  0.98470079  1
  O  O248  1  0.63070555  0.74952042  0.49208747  1
  O  O249  1  0.62965782  0.74057675  0.99937477  1
  O  O250  1  0.49556700  0.24589232  0.13161600  1
  O  O251  1  0.49525963  0.24617136  0.63214981  1
  O  O252  1  0.49652608  0.74172647  0.13132647  1
  O  O253  1  0.49426306  0.74379332  0.63572048  1
  O  O254  1  0.99364401  0.24708070  0.12520014  1
  O  O255  1  0.99482953  0.24632232  0.62943869  1
  O  O256  1  0.99453090  0.74553044  0.12956148  1
  O  O257  1  0.99922454  0.74227767  0.63331854  1
  O  O258  1  0.00001588  0.26737348  0.37878412  1
  O  O259  1  -0.00058940  0.25803762  0.86958928  1
  O  O260  1  0.00586132  0.75689299  0.37058869  1
  O  O261  1  0.00625197  0.75160661  0.86938748  1
  O  O262  1  0.49917245  0.25985896  0.36717666  1
  O  O263  1  0.50805207  0.25375364  0.86945342  1
  O  O264  1  0.50768564  0.74516423  0.36596676  1
  O  O265  1  0.49976536  0.74387981  0.86078374  1
  O  O266  1  0.24222632  0.13166679  0.50117594  1
  O  O267  1  0.25142102  0.13360440  0.99542311  1
  O  O268  1  0.24334823  0.63120726  0.49511387  1
  O  O269  1  0.24382783  0.63024348  0.99443050  1
  O  O270  1  0.73932544  0.14305650  0.50814713  1
  O  O271  1  0.75144573  0.11700676  0.98379486  1
  O  O272  1  0.74844707  0.63330250  0.49361310  1
  O  O273  1  0.74232264  0.62896054  0.99774595  1
  O  O274  1  0.25076507  0.36661935  0.00795564  1
  O  O275  1  0.25494384  0.36604229  0.50255620  1
  O  O276  1  0.26038924  0.86804307  0.00191470  1
  O  O277  1  0.24874262  0.86712893  0.50812612  1
  O  O278  1  0.75942770  0.38396737  0.01529427  1
  O  O279  1  0.75197012  0.37151734  0.50769039  1
  O  O280  1  0.75512589  0.86992690  0.00492628  1
  O  O281  1  0.75776493  0.87258128  0.50432923  1
  O  O282  1  0.12978353  0.48888551  0.24550073  1
  O  O283  1  0.12962123  0.50030503  0.74124016  1
  O  O284  1  0.13432069  0.99203130  0.24089772  1
  O  O285  1  0.13122164  0.99500614  0.74598187  1
  O  O286  1  0.63678414  0.50657423  0.25121708  1
  O  O287  1  0.62985732  0.49505031  0.74669428  1
  O  O288  1  0.62501412  0.99691106  0.23532579  1
  O  O289  1  0.62793001  0.99317183  0.74645924  1
  O  O290  1  0.36803380  0.00775738  0.24420300  1
  O  O291  1  0.37115642  0.00468855  0.75460325  1
  O  O292  1  0.37388632  0.50293046  0.26370819  1
  O  O293  1  0.36909444  0.50614551  0.75490659  1
  O  O294  1  0.86084520  -0.00497084  0.24827507  1
  O  O295  1  0.87036517  0.00510407  0.75305993  1
  O  O296  1  0.86593407  0.50082902  0.26163520  1
  O  O297  1  0.86801262  0.50606205  0.75688679  1
  O  O298  1  0.11533604  0.38303144  0.36653147  1
  O  O299  1  0.11038133  0.37399363  0.87505600  1
  O  O300  1  0.11797886  0.86645074  0.36993032  1
  O  O301  1  0.12509818  0.86760888  0.86816167  1
  O  O302  1  0.60871119  0.37708488  0.38093896  1
  O  O303  1  0.62256940  0.36784154  0.87147530  1
  O  O304  1  0.62275983  0.85997493  0.37347195  1
  O  O305  1  0.63003707  0.87499498  0.86147988  1
  O  O306  1  0.37978601  0.12981220  0.13397952  1
  O  O307  1  0.38177664  0.13093818  0.63195541  1
  O  O308  1  0.38572278  0.63031248  0.12355734  1
  O  O309  1  0.37891933  0.63015868  0.63212516  1
  O  O310  1  0.88362749  0.12816030  0.12806270  1
  O  O311  1  0.88375531  0.13259924  0.62172529  1
  O  O312  1  0.88094465  0.63242006  0.12478073  1
  O  O313  1  0.87998719  0.62602135  0.63284245  1
  O  O314  1  0.25558470  0.25751395  0.11647404  1
  O  O315  1  0.25763092  0.25088413  0.61526160  1
  O  O316  1  0.25692932  0.74901463  0.11765080  1
  O  O317  1  0.25415457  0.75407270  0.62137699  1
  O  O318  1  0.74911550  0.26410357  0.13130565  1
  O  O319  1  0.75353480  0.25965595  0.62198247  1
  O  O320  1  0.75457091  0.75480828  0.12037236  1
  O  O321  1  0.74912998  0.75794256  0.61861269  1
  O  O322  1  0.25692087  0.24823343  0.38976378  1
  O  O323  1  0.25119724  0.24520586  0.88357083  1
  O  O324  1  0.24390025  0.74407145  0.38013041  1
  O  O325  1  0.24427512  0.74266526  0.88024365  1
  O  O326  1  0.74227199  0.26016573  0.38809582  1
  O  O327  1  0.74107558  0.24011876  0.86639166  1
  O  O328  1  0.74263258  0.74664395  0.37851538  1
  O  O329  1  0.74759152  0.74262313  0.88375222  1
  O  O330  1  0.00266567  0.10867056  -0.00551726  1
  O  O331  1  0.01552191  0.11502329  0.50838975  1
  O  O332  1  0.00394524  0.62004918  0.00459265  1
  O  O333  1  0.00594005  0.62407291  0.50707210  1
  O  O334  1  0.49871426  0.11374625  0.00701564  1
  O  O335  1  0.51126935  0.12848536  0.50802038  1
  O  O336  1  0.50796379  0.62586089  0.00930155  1
  O  O337  1  0.50073704  0.61876990  0.50866826  1
  O  O338  1  0.49284562  0.38079258  0.49247511  1
  O  O339  1  0.49712712  0.37756455  0.99304593  1
  O  O340  1  0.49752989  0.87917866  0.50043559  1
  O  O341  1  0.49091778  0.88478365  1.00496551  1
  O  O342  1  0.99343238  0.38030994  0.49144960  1
  O  O343  1  0.99160007  0.37933061  0.99261433  1
  O  O344  1  0.99501551  0.87568084  0.49548347  1
  O  O345  1  0.99374995  0.88567535  0.99872053  1
  O  O346  1  0.49196631  0.49584217  0.37959653  1
  O  O347  1  0.49385533  0.49334069  0.87501979  1
  O  O348  1  0.49992860  0.99558107  0.37615938  1
  O  O349  1  0.49498417  1.00724045  0.88759140  1
  O  O350  1  0.98921602  0.49551282  0.37614130  1
  O  O351  1  0.99305697  0.49169422  0.87971269  1
  O  O352  1  1.00936510  0.98101253  0.38484701  1
  O  O353  1  0.99401721  0.99690723  0.88200832  1
  O  O354  1  0.00984209  -0.00040575  0.11830604  1
  O  O355  1  0.00863673  0.00409811  0.62067979  1
  O  O356  1  -0.00260882  0.50625275  0.11877165  1
  O  O357  1  0.00838640  0.50664940  0.62537138  1
  O  O358  1  0.50722073  0.00354723  0.11667428  1
  O  O359  1  0.50922216  0.00897967  0.62592257  1
  O  O360  1  0.50177276  0.51038716  0.12689985  1
  O  O361  1  0.50382613  0.50484836  0.62181396  1
  O  O362  1  0.24604801  0.37863980  0.24092196  1
  O  O363  1  0.24627300  0.38264742  0.74667060  1
  O  O364  1  0.24553017  0.88192488  0.24647645  1
  O  O365  1  0.24419031  0.88015385  0.74546164  1
  O  O366  1  0.75266114  0.38712333  0.23462950  1
  O  O367  1  0.74558728  0.38212265  0.74663473  1
  O  O368  1  0.74665166  0.88396300  0.24148691  1
  O  O369  1  0.74169548  0.87894869  0.74601953  1
  O  O370  1  0.25888489  0.11729297  0.24927591  1
  O  O371  1  0.25673165  0.11951076  0.75480491  1
  O  O372  1  0.25215257  0.62224418  0.25831268  1
  O  O373  1  0.25501188  0.61998627  0.75644884  1
  O  O374  1  0.73879620  0.10574823  0.24908919  1
  O  O375  1  0.75623814  0.11915791  0.75558657  1
  O  O376  1  0.75409432  0.61753481  0.25666745  1
  O  O377  1  0.75306904  0.62085774  0.75609147  1
  O  O378  1  0.37489608  0.12339598  0.36114594  1
  O  O379  1  0.37009465  0.11859802  0.86890900  1
  O  O380  1  0.36945259  0.61574876  0.37612833  1
  O  O381  1  0.36810784  0.61904913  0.86969646  1
  O  O382  1  0.86712702  0.11889268  0.39948494  1
  O  O383  1  0.86844105  0.12032923  0.86589746  1
  O  O384  1  0.87002070  0.61713691  0.37550373  1
  O  O385  1  0.86804584  0.61872030  0.87149852  1
  O  O386  1  0.13448126  0.37643261  0.13189343  1
  O  O387  1  0.12348662  0.38811789  0.62524499  1
  O  O388  1  0.12672653  0.88362252  0.13062734  1
  O  O389  1  0.13108371  0.87989198  0.63126463  1
  O  O390  1  0.63956510  0.37684733  0.11631698  1
  O  O391  1  0.62916543  0.38185281  0.63272133  1
  O  O392  1  0.63121132  0.88341318  0.12388011  1
  O  O393  1  0.63017901  0.88080320  0.63553621  1
  O  O394  1  0.14143959  0.26687941  0.24881284  1
  O  O395  1  0.11660909  0.25271991  0.75152999  1
  O  O396  1  0.11908833  0.75408378  0.25486497  1
  O  O397  1  0.11983334  0.75394377  0.75568141  1
  O  O398  1  0.60929093  0.24130899  0.25096388  1
  O  O399  1  0.62002662  0.25594746  0.75862529  1
  O  O400  1  0.61759005  0.74968802  0.25800343  1
  O  O401  1  0.61618815  0.75853103  0.75222298  1
  O  O402  1  0.38171336  0.24135348  0.24466711  1
  O  O403  1  0.38054314  0.24437423  0.74568549  1
  O  O404  1  0.38417415  0.74742359  0.24323385  1
  O  O405  1  0.38058399  0.74548071  0.74606574  1
  O  O406  1  0.85648655  0.23520853  0.26593277  1
  O  O407  1  0.87969901  0.24354946  0.74273938  1
  O  O408  1  0.88129698  0.75011518  0.24344620  1
  O  O409  1  0.88000546  0.74354182  0.75010293  1
  O  O410  1  0.37942956  0.49564242  0.49279245  1
  O  O411  1  0.37815677  0.49818588  0.99026381  1
  O  O412  1  0.37813037  0.99946109  0.49628018  1
  O  O413  1  0.38220726  0.99239705  0.99667585  1
  O  O414  1  0.87225936  0.49499689  0.48962049  1
  O  O415  1  0.87995796  0.49183111  0.99438565  1
  O  O416  1  0.88604750  0.98493787  0.50599732  1
  O  O417  1  0.88266024  0.99455754  0.99483515  1
  O  O418  1  0.11879812  -0.00327188  0.00792015  1
  O  O419  1  0.12580284  0.00654953  0.50731786  1
  O  O420  1  0.11634899  0.50674790  0.00176445  1
  O  O421  1  0.12483159  0.50657589  0.51038126  1
  O  O422  1  0.61746971  -0.00039897  0.00785129  1
  O  O423  1  0.62812245  0.01213026  0.50768092  1
  O  O424  1  0.62253663  0.51302735  0.00361968  1
  O  O425  1  0.61769406  0.50301043  0.50853677  1
  O  O426  1  0.36528332  0.36906036  0.12491355  1
  O  O427  1  0.37485669  0.36863251  0.61825643  1
  O  O428  1  0.37381019  0.86788131  0.11242104  1
  O  O429  1  0.36666229  0.86768394  0.62658154  1
  O  O430  1  0.86448538  0.36990698  0.11941275  1
  O  O431  1  0.86997049  0.37291654  0.62110973  1
  O  O432  1  0.86998734  0.86908632  0.11805191  1
  O  O433  1  0.86849573  0.87219055  0.61716604  1
  O  O434  1  0.13032221  0.12204467  0.38910229  1
  O  O435  1  0.13465951  0.12665084  0.87872311  1
  O  O436  1  0.12895097  0.62877112  0.38029583  1
  O  O437  1  0.12931355  0.62951996  0.88078557  1
  O  O438  1  0.62282238  0.13059504  0.38972449  1
  O  O439  1  0.63463334  0.13226053  0.87447707  1
  O  O440  1  0.63088633  0.63599527  0.37825009  1
  O  O441  1  0.62971139  0.62657881  0.88567078  1
