# generated using pymatgen
data_V93Zn93O256
_symmetry_space_group_name_H-M   'P 1'
_cell_length_a   17.04944943
_cell_length_b   17.05085601
_cell_length_c   17.04997320
_cell_angle_alpha   89.98150496
_cell_angle_beta   90.03357489
_cell_angle_gamma   89.96418649
_symmetry_Int_Tables_number   1
_chemical_formula_structural   V93Zn93O256
_chemical_formula_sum   'V93 Zn93 O256'
_cell_volume   4956.55653888
_cell_formula_units_Z   1
loop_
 _symmetry_equiv_pos_site_id
 _symmetry_equiv_pos_as_xyz
  1  'x, y, z'
loop_
 _atom_site_type_symbol
 _atom_site_label
 _atom_site_symmetry_multiplicity
 _atom_site_fract_x
 _atom_site_fract_y
 _atom_site_fract_z
 _atom_site_occupancy
  V  V0  1  0.12582064  0.62539923  -0.00120131  1
  V  V1  1  0.12469637  0.75064726  0.37583551  1
  V  V2  1  0.74712580  0.25119332  0.49893249  1
  V  V3  1  0.37430854  0.25276003  0.61922351  1
  V  V4  1  0.37489446  0.87336202  0.50036447  1
  V  V5  1  0.62621371  0.88014836  0.24305259  1
  V  V6  1  0.74915147  0.37567385  0.62514959  1
  V  V7  1  0.12481622  0.00099244  0.62424243  1
  V  V8  1  0.49987692  0.87411637  0.37574516  1
  V  V9  1  0.25132403  0.74914159  -0.00030838  1
  V  V10  1  0.37902472  0.62421319  0.74787439  1
  V  V11  1  0.24923868  0.49849929  0.25031147  1
  V  V12  1  0.25112737  0.49976252  0.74989193  1
  V  V13  1  0.87480523  0.37245258  0.00665627  1
  V  V14  1  0.00090407  0.88263545  0.87732930  1
  V  V15  1  -0.00369453  0.25135244  0.24336169  1
  V  V16  1  0.37410522  0.49398942  0.38064068  1
  V  V17  1  0.62408656  0.12955313  0.49628767  1
  V  V18  1  0.62729096  0.74729965  0.87604103  1
  V  V19  1  -0.00079681  0.50065314  -0.00119227  1
  V  V20  1  0.50375908  -0.00127111  0.00182844  1
  V  V21  1  0.87979446  0.88248165  -0.00022461  1
  V  V22  1  0.74895744  0.50235754  0.25012776  1
  V  V23  1  0.24884097  0.62475216  0.37544188  1
  V  V24  1  0.25095382  -0.00120185  0.74894727  1
  V  V25  1  0.87476944  0.62512064  0.75164945  1
  V  V26  1  0.74997616  0.87650749  0.62254791  1
  V  V27  1  0.62131723  0.50228885  0.62606708  1
  V  V28  1  0.00009519  0.00226266  0.49865393  1
  V  V29  1  0.25010943  0.87529852  0.12439231  1
  V  V30  1  0.37565380  0.87378631  0.00098054  1
  V  V31  1  0.12554971  0.87517238  0.74950587  1
  V  V32  1  0.50068587  0.74560463  0.74801792  1
  V  V33  1  0.62575882  0.37470844  0.75059631  1
  V  V34  1  0.75236721  0.75084427  0.00218934  1
  V  V35  1  0.00139869  0.75149587  0.74960995  1
  V  V36  1  0.87334465  0.37637127  0.50000288  1
  V  V37  1  0.37592159  0.12338014  0.25086997  1
  V  V38  1  -0.00015849  0.12681816  0.62360994  1
  V  V39  1  0.49969387  0.37212056  0.37964857  1
  V  V40  1  -0.00050239  0.12297956  0.11926497  1
  V  V41  1  -0.00262548  0.62826349  0.12557806  1
  V  V42  1  0.62592446  0.87438126  0.74958641  1
  V  V43  1  -0.00114968  0.87663344  0.37367447  1
  V  V44  1  0.74980280  0.50113322  0.75089146  1
  V  V45  1  0.50106126  0.24895906  0.75063166  1
  V  V46  1  0.62506022  0.37357399  0.25323642  1
  V  V47  1  0.37691984  0.12330180  0.75014004  1
  V  V48  1  0.37642711  -0.00090560  0.87461043  1
  V  V49  1  -0.00106869  0.37524360  0.37445937  1
  V  V50  1  -0.00186579  0.75055506  0.24995231  1
  V  V51  1  0.50480279  0.24882611  0.25555728  1
  V  V52  1  0.87534556  0.75158081  0.62359120  1
  V  V53  1  0.50172884  0.49792042  0.00167751  1
  V  V54  1  0.37614808  0.49854759  0.87483839  1
  V  V55  1  -0.00031493  0.25098329  0.74868339  1
  V  V56  1  0.62204497  0.62524767  0.50523760  1
  V  V57  1  0.50057234  0.12434758  0.62466581  1
  V  V58  1  0.12549578  0.37545471  0.74995029  1
  V  V59  1  0.50002704  0.37408017  0.87643388  1
  V  V60  1  0.00017632  0.37606263  0.87523727  1
  V  V61  1  0.75329497  0.25081186  0.00667752  1
  V  V62  1  0.12690995  0.24941395  0.87541521  1
  V  V63  1  0.37993528  0.74441800  0.62453750  1
  V  V64  1  0.00007075  0.50108160  0.50069490  1
  V  V65  1  0.12533185  0.50076133  0.62386516  1
  V  V66  1  0.25382916  0.37428987  0.61833374  1
  V  V67  1  0.25054843  0.12581651  0.87639381  1
  V  V68  1  0.12500281  0.24928507  0.37431478  1
  V  V69  1  0.62566412  0.24904556  0.87671344  1
  V  V70  1  0.37395514  0.25061481  0.12391559  1
  V  V71  1  0.37315203  -0.00116340  0.37548529  1
  V  V72  1  0.50432054  0.11913410  0.12566512  1
  V  V73  1  0.62467078  0.74930769  0.37574374  1
  V  V74  1  0.87324979  0.50168103  0.37486660  1
  V  V75  1  0.12571030  0.50004046  0.12571365  1
  V  V76  1  0.25022788  0.62435952  0.87518324  1
  V  V77  1  0.75296356  0.00179790  0.75282893  1
  V  V78  1  0.62787947  0.11986678  0.00255715  1
  V  V79  1  0.24864999  0.12484495  0.37554780  1
  V  V80  1  0.49798096  0.49976973  0.50419863  1
  V  V81  1  0.25039731  0.74982652  0.49962396  1
  V  V82  1  0.87356227  0.00180036  0.37270772  1
  V  V83  1  0.50061617  0.87380138  0.87524187  1
  V  V84  1  0.87443763  0.13046294  0.24471059  1
  V  V85  1  0.12112801  0.00039801  0.11766169  1
  V  V86  1  0.12482374  0.87577182  0.24836899  1
  V  V87  1  0.37597075  0.62374953  0.25079203  1
  V  V88  1  0.87530434  0.25102672  0.62547983  1
  V  V89  1  0.12464696  0.37572964  0.24879772  1
  V  V90  1  0.49970406  0.00037346  0.50106423  1
  V  V91  1  0.49971358  0.62318624  0.12634484  1
  V  V92  1  0.74608054  0.13106639  0.37404094  1
  Zn  Zn93  1  0.87350848  0.49985265  0.87566008  1
  Zn  Zn94  1  0.75020727  0.88310834  0.12165877  1
  Zn  Zn95  1  0.24994558  0.37367685  0.12338709  1
  Zn  Zn96  1  0.12516909  0.12717763  0.49974131  1
  Zn  Zn97  1  0.49920371  0.74928509  0.24911825  1
  Zn  Zn98  1  0.00276029  0.62586209  0.62423500  1
  Zn  Zn99  1  0.74970014  0.74928219  0.49958844  1
  Zn  Zn100  1  0.75398336  0.12630810  0.87550561  1
  Zn  Zn101  1  0.87200287  0.75357798  0.12725875  1
  Zn  Zn102  1  0.24893823  0.25002169  0.00076824  1
  Zn  Zn103  1  0.75299165  0.37301576  0.12865848  1
  Zn  Zn104  1  0.88056039  0.00626979  0.87814433  1
  Zn  Zn105  1  0.87471893  0.12635820  0.75171920  1
  Zn  Zn106  1  0.37461068  0.74994997  0.12758903  1
  Zn  Zn107  1  0.75131119  0.62282087  0.87838248  1
  Zn  Zn108  1  0.12579698  0.75047152  0.87350679  1
  Zn  Zn109  1  0.25009660  0.87440544  0.62500839  1
  Zn  Zn110  1  0.12290227  0.12383443  -0.00226638  1
  Zn  Zn111  1  0.24969292  -0.00108436  0.24872937  1
  Zn  Zn112  1  0.62527518  0.00046453  0.62486095  1
  Zn  Zn113  1  0.87168263  0.62836539  0.25163614  1
  Zn  Zn114  1  0.37284166  0.37295492  0.00003164  1
  Zn  Zn115  1  0.62665366  0.49870661  0.12549040  1
  Zn  Zn116  1  0.25108617  0.25327544  0.49707095  1
  Zn  Zn117  1  0.12331475  0.62671976  0.50165030  1
  Zn  Zn118  1  0.62866009  0.62347116  0.00345098  1
  Zn  Zn119  1  0.87293733  0.87462939  0.49674621  1
  Zn  Zn120  1  0.74996054  0.62655808  0.37588368  1
  Zn  Zn121  1  0.74214774  0.00739346  0.24326483  1
  Zn  Zn122  1  0.18603018  0.18581669  0.18906925  1
  Zn  Zn123  1  0.18789939  0.18680325  0.68846633  1
  Zn  Zn124  1  0.18743774  0.68796934  0.18765726  1
  Zn  Zn125  1  0.19011582  0.68777902  0.68628864  1
  Zn  Zn126  1  0.68642334  0.18861154  0.18644367  1
  Zn  Zn127  1  0.68726726  0.18649131  0.68540408  1
  Zn  Zn128  1  0.68464056  0.68946600  0.18714533  1
  Zn  Zn129  1  0.68876385  0.68700216  0.68706116  1
  Zn  Zn130  1  0.31347558  0.31147861  0.30995369  1
  Zn  Zn131  1  0.31324143  0.31189555  0.80952645  1
  Zn  Zn132  1  0.31209960  0.81077050  0.31075755  1
  Zn  Zn133  1  0.31244182  0.81129261  0.81231501  1
  Zn  Zn134  1  0.81227906  0.31333226  0.31339710  1
  Zn  Zn135  1  0.81302302  0.31294520  0.81690501  1
  Zn  Zn136  1  0.80999985  0.81209177  0.31126456  1
  Zn  Zn137  1  0.81447877  0.81479967  0.81402975  1
  Zn  Zn138  1  0.18465885  0.43760925  0.43726988  1
  Zn  Zn139  1  0.18922413  0.43549031  0.94007929  1
  Zn  Zn140  1  0.18679538  0.93736144  0.43834675  1
  Zn  Zn141  1  0.18784627  0.93725674  0.93663205  1
  Zn  Zn142  1  0.68445822  0.43820689  0.43592460  1
  Zn  Zn143  1  0.68896784  0.43647372  0.93701967  1
  Zn  Zn144  1  0.68641052  0.94112431  0.43489725  1
  Zn  Zn145  1  0.69062478  0.93623559  0.93717319  1
  Zn  Zn146  1  0.31181888  0.06174515  0.06176193  1
  Zn  Zn147  1  0.31210430  0.06299266  0.56232174  1
  Zn  Zn148  1  0.31399129  0.56082458  0.06266709  1
  Zn  Zn149  1  0.31140213  0.56377374  0.56203382  1
  Zn  Zn150  1  0.80958803  0.05978100  0.06579325  1
  Zn  Zn151  1  0.81324979  0.06374761  0.56265285  1
  Zn  Zn152  1  0.81319143  0.56121331  0.06355134  1
  Zn  Zn153  1  0.80954949  0.56399910  0.56290985  1
  Zn  Zn154  1  0.43685803  0.43653156  0.19032197  1
  Zn  Zn155  1  0.43727855  0.43552036  0.68832520  1
  Zn  Zn156  1  0.43812477  0.93639700  0.18919475  1
  Zn  Zn157  1  0.43812790  0.93354468  0.68607173  1
  Zn  Zn158  1  0.93699089  0.44069886  0.18689977  1
  Zn  Zn159  1  0.93798390  0.43863180  0.68678438  1
  Zn  Zn160  1  0.93580862  0.93995916  0.18523220  1
  Zn  Zn161  1  0.93792214  0.93867319  0.68835907  1
  Zn  Zn162  1  0.06288530  0.06191823  0.30765769  1
  Zn  Zn163  1  0.06405920  0.06463854  0.80935048  1
  Zn  Zn164  1  0.06175037  0.56391585  0.31308018  1
  Zn  Zn165  1  0.06238667  0.56311903  0.81142515  1
  Zn  Zn166  1  0.56065277  0.06075518  0.31534672  1
  Zn  Zn167  1  0.56631461  0.06133535  0.81415231  1
  Zn  Zn168  1  0.56287186  0.56124248  0.31535267  1
  Zn  Zn169  1  0.56254033  0.56306394  0.81383958  1
  Zn  Zn170  1  0.43598446  0.18647836  0.43767066  1
  Zn  Zn171  1  0.43858540  0.18600446  0.93896727  1
  Zn  Zn172  1  0.43857650  0.68424160  0.43756395  1
  Zn  Zn173  1  0.43737048  0.68553460  0.93785041  1
  Zn  Zn174  1  0.93629889  0.18897012  0.43631290  1
  Zn  Zn175  1  0.93561970  0.19037958  0.93525964  1
  Zn  Zn176  1  0.93754192  0.68594285  0.43783666  1
  Zn  Zn177  1  0.93879265  0.69312673  0.93612583  1
  Zn  Zn178  1  0.06360128  0.31157325  0.06069290  1
  Zn  Zn179  1  0.06469334  0.31348640  0.56063936  1
  Zn  Zn180  1  0.06356590  0.81227070  0.06023019  1
  Zn  Zn181  1  0.06151802  0.81633124  0.56084220  1
  Zn  Zn182  1  0.56383883  0.31032468  0.06586951  1
  Zn  Zn183  1  0.56235930  0.31279029  0.56323282  1
  Zn  Zn184  1  0.56089614  0.80823107  0.06218778  1
  Zn  Zn185  1  0.56183722  0.81217752  0.56293729  1
  O  O186  1  0.11717990  0.11716567  0.12572997  1
  O  O187  1  0.11883102  0.11929087  0.62315799  1
  O  O188  1  0.11668779  0.61999481  0.11979596  1
  O  O189  1  0.12465570  0.61636991  0.62326567  1
  O  O190  1  0.61401947  0.13092602  0.11534720  1
  O  O191  1  0.61863912  0.12288127  0.61454648  1
  O  O192  1  0.61263052  0.62102147  0.12421305  1
  O  O193  1  0.62837908  0.61864189  0.61532657  1
  O  O194  1  0.38413703  0.38526526  0.36945481  1
  O  O195  1  0.38297469  0.38047972  0.87378059  1
  O  O196  1  0.37984930  0.87856593  0.38014575  1
  O  O197  1  0.38148998  0.87949974  0.88028619  1
  O  O198  1  0.87973749  0.38083975  0.38115501  1
  O  O199  1  0.88257833  0.37754135  0.88508954  1
  O  O200  1  0.87810062  0.88641912  0.37303020  1
  O  O201  1  0.88476829  0.87661223  0.88136122  1
  O  O202  1  0.25482151  0.00815812  0.37318998  1
  O  O203  1  0.25721643  0.00505190  0.86921340  1
  O  O204  1  0.25673236  0.50282146  0.37175064  1
  O  O205  1  0.25614528  0.50393389  0.86936370  1
  O  O206  1  0.75768600  0.01215495  0.37111423  1
  O  O207  1  0.75148470  0.00009291  0.86240282  1
  O  O208  1  0.75432688  0.49932590  0.36549819  1
  O  O209  1  0.75183341  0.50307861  0.86680091  1
  O  O210  1  0.24350166  0.49990640  0.13268791  1
  O  O211  1  0.24776723  0.49232755  0.62992920  1
  O  O212  1  0.24159972  0.99438242  0.12731126  1
  O  O213  1  0.24463107  0.99891559  0.63115351  1
  O  O214  1  0.74832281  0.49655118  0.13719893  1
  O  O215  1  0.74258817  0.49394950  0.63099062  1
  O  O216  1  0.74958909  0.99542035  0.13252115  1
  O  O217  1  0.75025533  0.99127322  0.63192192  1
  O  O218  1  0.00260676  0.36902436  0.25409696  1
  O  O219  1  0.00593679  0.37108942  0.75454539  1
  O  O220  1  0.00466829  0.87036764  0.25471943  1
  O  O221  1  0.00527990  0.87052643  0.75638219  1
  O  O222  1  0.50553067  0.36817808  0.25884912  1
  O  O223  1  0.50681895  0.36891735  0.75586506  1
  O  O224  1  0.50912408  0.87251123  0.25711237  1
  O  O225  1  0.50588284  0.86740879  0.75595541  1
  O  O226  1  0.49810696  0.13050442  0.24546965  1
  O  O227  1  0.49739048  0.12917418  0.74504411  1
  O  O228  1  0.49485196  0.62123644  0.24209925  1
  O  O229  1  0.49165108  0.63272528  0.75697191  1
  O  O230  1  0.99265476  0.13388212  0.24458889  1
  O  O231  1  0.99919316  0.13370167  0.74137188  1
  O  O232  1  0.99977504  0.63078346  0.24037488  1
  O  O233  1  0.99102135  0.63127145  0.74684562  1
  O  O234  1  0.37713739  0.24968766  0.01245155  1
  O  O235  1  0.37392272  0.24517928  0.51556783  1
  O  O236  1  0.36950757  0.75628658  0.00104199  1
  O  O237  1  0.37232450  0.75227749  0.50615540  1
  O  O238  1  0.86416364  0.26061783  -0.00557525  1
  O  O239  1  0.86835355  0.25742194  0.50494222  1
  O  O240  1  0.86544451  0.75840059  -0.00052001  1
  O  O241  1  0.87207549  0.75152928  0.51103326  1
  O  O242  1  0.12781707  0.24797758  0.48976513  1
  O  O243  1  0.12715679  0.24659663  0.99062307  1
  O  O244  1  0.13110140  0.75117858  0.49343647  1
  O  O245  1  0.13333050  0.74257679  0.99752566  1
  O  O246  1  0.62979369  0.23759701  0.50451263  1
  O  O247  1  0.63073220  0.24192060  0.99618586  1
  O  O248  1  0.62322893  0.74167647  0.49418349  1
  O  O249  1  0.63371098  0.75091846  0.99123912  1
  O  O250  1  0.49318171  0.23993582  0.13423074  1
  O  O251  1  0.49319609  0.24582223  0.63053107  1
  O  O252  1  0.49637441  0.73538690  0.12540590  1
  O  O253  1  0.48839541  0.75443966  0.63140313  1
  O  O254  1  1.00689657  0.24226770  0.13848222  1
  O  O255  1  0.99525767  0.24780340  0.62877322  1
  O  O256  1  1.00221601  0.74074494  0.13038607  1
  O  O257  1  0.98947760  0.75227722  0.63002687  1
  O  O258  1  0.00395813  0.25536529  0.36490187  1
  O  O259  1  0.00683087  0.25674015  0.86830932  1
  O  O260  1  0.00417240  0.75650528  0.37027622  1
  O  O261  1  0.00320297  0.76065708  0.86611603  1
  O  O262  1  0.49014562  0.25869556  0.36535064  1
  O  O263  1  0.50505310  0.25393834  0.87004401  1
  O  O264  1  0.50937243  0.75483522  0.37583846  1
  O  O265  1  0.50864763  0.75474962  0.87136070  1
  O  O266  1  0.24944825  0.12710147  0.48620359  1
  O  O267  1  0.24910857  0.12758272  0.99031950  1
  O  O268  1  0.24809786  0.63171131  0.49211685  1
  O  O269  1  0.24608501  0.62805808  0.99490840  1
  O  O270  1  0.74285630  0.12963129  0.49350665  1
  O  O271  1  0.74273744  0.13241323  1.00079608  1
  O  O272  1  0.73598820  0.62610262  0.49730027  1
  O  O273  1  0.74971664  0.63542108  0.99875079  1
  O  O274  1  0.25519962  0.36958019  0.00554822  1
  O  O275  1  0.24657893  0.37467644  0.51442076  1
  O  O276  1  0.25624096  0.86977487  0.00431951  1
  O  O277  1  0.25771556  0.86764387  0.49966543  1
  O  O278  1  0.75684851  0.36874524  0.00230741  1
  O  O279  1  0.75243772  0.37141847  0.50464790  1
  O  O280  1  0.75861542  0.86604147  -0.00092360  1
  O  O281  1  0.75047731  0.87605635  0.51087008  1
  O  O282  1  0.12933492  0.49507639  0.24604410  1
  O  O283  1  0.13164737  0.49484496  0.74436828  1
  O  O284  1  0.12693732  0.99289128  0.23954784  1
  O  O285  1  0.13152466  0.99496012  0.74338789  1
  O  O286  1  0.63313811  0.49174022  0.25191428  1
  O  O287  1  0.62840791  0.49499781  0.74573451  1
  O  O288  1  0.62291328  0.98349137  0.25836051  1
  O  O289  1  0.63374046  0.99263379  0.74780015  1
  O  O290  1  0.37443557  0.00593506  0.25796132  1
  O  O291  1  0.37227004  0.00356205  0.75507783  1
  O  O292  1  0.36983872  0.50389542  0.26067803  1
  O  O293  1  0.37136588  0.50443748  0.75477399  1
  O  O294  1  0.87672698  0.01165987  0.26144119  1
  O  O295  1  0.86394585  0.00164916  0.75045885  1
  O  O296  1  0.86455654  0.49971999  0.25593152  1
  O  O297  1  0.86967300  0.50986788  0.74855470  1
  O  O298  1  0.11824071  0.37022180  0.36815520  1
  O  O299  1  0.12054944  0.37057436  0.86888287  1
  O  O300  1  0.11886347  0.87086353  0.36868944  1
  O  O301  1  0.11806096  0.87378314  0.86880917  1
  O  O302  1  0.61303305  0.37873038  0.36376112  1
  O  O303  1  0.61926928  0.36890951  0.86950361  1
  O  O304  1  0.61936813  0.86700571  0.37099312  1
  O  O305  1  0.62054598  0.86514122  0.87018675  1
  O  O306  1  0.38421266  0.13092791  0.13049526  1
  O  O307  1  0.38051577  0.13193378  0.63090724  1
  O  O308  1  0.38368617  0.62287973  0.13250496  1
  O  O309  1  0.37030354  0.63610866  0.63127615  1
  O  O310  1  0.88336453  0.11838986  0.13875950  1
  O  O311  1  0.88115400  0.13408438  0.62548921  1
  O  O312  1  0.88814560  0.62749322  0.12608606  1
  O  O313  1  0.87344689  0.63545785  0.63413604  1
  O  O314  1  0.26278150  0.24777985  0.12765742  1
  O  O315  1  0.25765795  0.25697999  0.62581916  1
  O  O316  1  0.25139146  0.75619030  0.11799290  1
  O  O317  1  0.26119899  0.75235912  0.61864402  1
  O  O318  1  0.74458996  0.25329074  0.11113169  1
  O  O319  1  0.75463589  0.25670942  0.61910628  1
  O  O320  1  0.74881975  0.75473767  0.11370491  1
  O  O321  1  0.75809355  0.76048259  0.62580735  1
  O  O322  1  0.24621819  0.24222798  0.37448889  1
  O  O323  1  0.24495983  0.24280451  0.87176398  1
  O  O324  1  0.24476255  0.74438078  0.37984206  1
  O  O325  1  0.24976105  0.74199877  0.88105739  1
  O  O326  1  0.75580083  0.23804337  0.38222164  1
  O  O327  1  0.74235552  0.24986637  0.88605149  1
  O  O328  1  0.73726639  0.74996105  0.37895563  1
  O  O329  1  0.74179280  0.75074503  0.88209387  1
  O  O330  1  -0.00179211  0.13479514  0.01662051  1
  O  O331  1  0.00083159  0.12027064  0.50487130  1
  O  O332  1  0.00453917  0.62239765  0.00647030  1
  O  O333  1  0.00206838  0.61682992  0.50387029  1
  O  O334  1  0.50821084  0.11977922  0.00747977  1
  O  O335  1  0.50666031  0.12124516  0.50302758  1
  O  O336  1  0.50004732  0.61454017  0.00819991  1
  O  O337  1  0.51045901  0.61119271  0.49433737  1
  O  O338  1  0.50881594  0.38383153  0.48832248  1
  O  O339  1  0.49994329  0.38242185  0.99584539  1
  O  O340  1  0.49475655  0.88066507  0.49529249  1
  O  O341  1  0.49667658  0.87927377  0.99530479  1
  O  O342  1  0.99324954  0.38033033  0.49378412  1
  O  O343  1  0.99359002  0.37964138  0.99563542  1
  O  O344  1  0.99549157  0.88372326  0.49118994  1
  O  O345  1  0.99166823  0.86706348  0.98878377  1
  O  O346  1  0.49251725  0.49165109  0.38252299  1
  O  O347  1  0.49646323  0.49451000  0.88310715  1
  O  O348  1  0.49218536  0.99504716  0.38253223  1
  O  O349  1  0.49599384  0.99318667  0.88023064  1
  O  O350  1  0.99400778  0.49418425  0.37922374  1
  O  O351  1  0.99961790  0.49381248  0.88133789  1
  O  O352  1  0.99236826  0.99748921  0.37754395  1
  O  O353  1  1.00064270  0.98681939  0.86780622  1
  O  O354  1  0.00981861  0.01151807  0.13181248  1
  O  O355  1  0.00386804  0.00625775  0.61924475  1
  O  O356  1  0.00548473  0.50994798  0.12014324  1
  O  O357  1  0.00737555  0.49953665  0.61842714  1
  O  O358  1  0.49398515  0.01274245  0.11975114  1
  O  O359  1  0.50020167  0.00617003  0.61872502  1
  O  O360  1  0.49887992  0.50562578  0.11782355  1
  O  O361  1  0.50494739  0.48929284  0.61244754  1
  O  O362  1  0.24269286  0.38106468  0.24847624  1
  O  O363  1  0.24483001  0.38093493  0.74161626  1
  O  O364  1  0.24305246  0.87490194  0.24266684  1
  O  O365  1  0.24445142  0.88175039  0.75003885  1
  O  O366  1  0.74171884  0.38004144  0.25115757  1
  O  O367  1  0.74468947  0.38013518  0.74528306  1
  O  O368  1  0.73333977  0.87415975  0.25043192  1
  O  O369  1  0.74643838  0.88135339  0.74191768  1
  O  O370  1  0.25665795  0.12406961  0.26112105  1
  O  O371  1  0.25738917  0.11820744  0.75556254  1
  O  O372  1  0.25472697  0.61830308  0.25617035  1
  O  O373  1  0.25757982  0.61858860  0.75549159  1
  O  O374  1  0.75610562  0.12992123  0.25726008  1
  O  O375  1  0.74936476  0.11462598  0.75008280  1
  O  O376  1  0.74883683  0.61458562  0.25173261  1
  O  O377  1  0.75907078  0.62027044  0.75098637  1
  O  O378  1  0.36806470  0.11969621  0.37070080  1
  O  O379  1  0.37284295  0.11863017  0.86914790  1
  O  O380  1  0.37005679  0.61441630  0.37036573  1
  O  O381  1  0.36976125  0.61784671  0.86933594  1
  O  O382  1  0.86729213  0.12015590  0.36689980  1
  O  O383  1  0.87235427  0.12240516  0.87042252  1
  O  O384  1  0.87093461  0.61732224  0.37273683  1
  O  O385  1  0.87501159  0.62621340  0.86167471  1
  O  O386  1  0.12384023  0.38242778  0.13193884  1
  O  O387  1  0.13395743  0.37955983  0.63097988  1
  O  O388  1  0.12850364  0.88218322  0.12811043  1
  O  O389  1  0.12624789  0.88286810  0.63143279  1
  O  O390  1  0.62354982  0.37725273  0.14120031  1
  O  O391  1  0.63031541  0.38031814  0.63146486  1
  O  O392  1  0.62021968  0.86788863  0.14161475  1
  O  O393  1  0.63448084  0.87472012  0.63044634  1
  O  O394  1  0.11608011  0.25568961  0.25526610  1
  O  O395  1  0.11952422  0.25646654  0.75457399  1
  O  O396  1  0.11892732  0.75613058  0.25600235  1
  O  O397  1  0.11964020  0.75666624  0.74891186  1
  O  O398  1  0.61213043  0.25655889  0.24690746  1
  O  O399  1  0.62047134  0.25473035  0.75475245  1
  O  O400  1  0.62147329  0.75802965  0.26094255  1
  O  O401  1  0.62181922  0.75382564  0.75726777  1
  O  O402  1  0.38555116  0.24361628  0.24332466  1
  O  O403  1  0.38207680  0.24250956  0.74189287  1
  O  O404  1  0.37892037  0.73957737  0.24932674  1
  O  O405  1  0.37992999  0.74515018  0.74292286  1
  O  O406  1  0.88450905  0.24173463  0.25577438  1
  O  O407  1  0.88128098  0.25269414  0.74271915  1
  O  O408  1  0.88162365  0.74858761  0.24736431  1
  O  O409  1  0.87907322  0.74461651  0.74207349  1
  O  O410  1  0.38390445  0.50613450  0.49008537  1
  O  O411  1  0.38605633  0.49755042  0.99391763  1
  O  O412  1  0.37982093  0.99405501  0.49515561  1
  O  O413  1  0.38284682  0.99402953  0.99375486  1
  O  O414  1  0.87833868  0.49474106  0.49608523  1
  O  O415  1  0.88101351  0.49243121  0.99724941  1
  O  O416  1  0.87926141  1.00214212  0.48668712  1
  O  O417  1  0.86867500  0.98610803  0.99643920  1
  O  O418  1  0.12775469  0.00161915  0.01333516  1
  O  O419  1  0.11786382  0.00226412  0.50569127  1
  O  O420  1  0.11916953  0.50568875  0.00563675  1
  O  O421  1  0.11778346  0.50062764  0.50579144  1
  O  O422  1  0.62025298  0.01142764  -0.00699599  1
  O  O423  1  0.61863716  0.01110717  0.50111431  1
  O  O424  1  0.61386591  0.50075257  0.00144875  1
  O  O425  1  0.61765464  0.50636331  0.50481912  1
  O  O426  1  0.37596490  0.36192468  0.12708138  1
  O  O427  1  0.36506668  0.36388112  0.63387959  1
  O  O428  1  0.36972381  0.87422587  0.11865422  1
  O  O429  1  0.37308365  0.86400166  0.61852352  1
  O  O430  1  0.87575109  0.37872147  0.11095655  1
  O  O431  1  0.86834241  0.37130253  0.61894378  1
  O  O432  1  0.87711693  0.87175320  0.11386509  1
  O  O433  1  0.86695197  0.86714229  0.62468679  1
  O  O434  1  0.13375945  0.12975309  0.37195182  1
  O  O435  1  0.13157060  0.13062258  0.87497254  1
  O  O436  1  0.13108089  0.63247783  0.37607711  1
  O  O437  1  0.13234489  0.62547449  0.88073922  1
  O  O438  1  0.63473255  0.11972697  0.38364480  1
  O  O439  1  0.62580928  0.13142831  0.88668173  1
  O  O440  1  0.62440169  0.63373793  0.38353261  1
  O  O441  1  0.62648159  0.63782956  0.87769164  1
