# generated using pymatgen
data_V93Zn93O256
_symmetry_space_group_name_H-M   'P 1'
_cell_length_a   17.06094183
_cell_length_b   17.06055500
_cell_length_c   17.06108382
_cell_angle_alpha   89.99985948
_cell_angle_beta   89.98763693
_cell_angle_gamma   90.02511468
_symmetry_Int_Tables_number   1
_chemical_formula_structural   V93Zn93O256
_chemical_formula_sum   'V93 Zn93 O256'
_cell_volume   4965.95434106
_cell_formula_units_Z   1
loop_
 _symmetry_equiv_pos_site_id
 _symmetry_equiv_pos_as_xyz
  1  'x, y, z'
loop_
 _atom_site_type_symbol
 _atom_site_label
 _atom_site_symmetry_multiplicity
 _atom_site_fract_x
 _atom_site_fract_y
 _atom_site_fract_z
 _atom_site_occupancy
  V  V0  1  0.00101823  0.25119778  0.25105926  1
  V  V1  1  0.87621703  -0.00179556  0.37500742  1
  V  V2  1  0.87432413  0.87611064  -0.00026529  1
  V  V3  1  0.87370844  0.50083309  0.87495007  1
  V  V4  1  0.87414901  0.75003538  0.12504624  1
  V  V5  1  0.74893121  0.25075199  -0.00037114  1
  V  V6  1  0.25046641  0.62453029  0.87596905  1
  V  V7  1  0.25090830  0.00081295  0.24987928  1
  V  V8  1  0.49879892  0.74936282  0.74746202  1
  V  V9  1  0.87505189  0.62671441  0.74894889  1
  V  V10  1  0.37557155  0.24687003  0.12694854  1
  V  V11  1  0.13024764  0.74087659  0.37800743  1
  V  V12  1  0.24873866  0.25269985  0.00273405  1
  V  V13  1  0.87364006  0.37637595  -0.00032251  1
  V  V14  1  0.38510195  0.24185181  0.63479195  1
  V  V15  1  0.74927897  0.50124098  0.25013957  1
  V  V16  1  0.49664603  0.00330695  0.00065296  1
  V  V17  1  0.00019590  0.37560329  0.87468247  1
  V  V18  1  0.12659488  0.50088053  0.13339225  1
  V  V19  1  0.74930637  0.00004111  0.24835458  1
  V  V20  1  0.62347740  0.37606430  0.24829992  1
  V  V21  1  0.12462105  0.12656296  0.00122553  1
  V  V22  1  0.62295699  0.24923793  0.87328348  1
  V  V23  1  0.35878452  0.50027914  0.37228000  1
  V  V24  1  0.00131893  0.87551192  0.87390957  1
  V  V25  1  0.49385818  0.87983024  0.87413289  1
  V  V26  1  0.25397070  0.24787279  0.50107381  1
  V  V27  1  0.74873661  0.37609496  0.12429487  1
  V  V28  1  0.74889972  0.87623837  0.12412577  1
  V  V29  1  0.75062439  0.74889667  0.49866546  1
  V  V30  1  0.49938506  0.37798417  0.37414828  1
  V  V31  1  0.74836203  0.62539994  0.87425243  1
  V  V32  1  0.87457038  0.12517349  0.24959476  1
  V  V33  1  0.12409394  0.25279615  0.87629183  1
  V  V34  1  0.25474502  0.12036050  0.87229214  1
  V  V35  1  0.49767485  0.62487453  0.12539028  1
  V  V36  1  0.36165777  0.61911402  0.25368334  1
  V  V37  1  0.87562670  0.87510205  0.49849713  1
  V  V38  1  0.62310475  0.12397618  0.50101849  1
  V  V39  1  -0.00057419  0.00092140  0.00012444  1
  V  V40  1  0.87565250  0.00125888  0.87512167  1
  V  V41  1  0.75715357  0.25423421  0.49902661  1
  V  V42  1  0.49931794  0.24430669  0.24519856  1
  V  V43  1  0.24916836  0.87281742  0.62397746  1
  V  V44  1  0.37409404  0.62276786  0.74842354  1
  V  V45  1  0.37582527  0.37293359  0.50108954  1
  V  V46  1  0.24946876  0.87555527  0.12400926  1
  V  V47  1  0.37625604  -0.00063185  0.37388689  1
  V  V48  1  -0.00236844  0.62595291  0.12480432  1
  V  V49  1  0.00126966  0.12439361  0.62552397  1
  V  V50  1  0.12456799  0.00067756  0.12595528  1
  V  V51  1  0.24800299  0.37941937  0.13342021  1
  V  V52  1  0.75099869  0.12603096  0.87484081  1
  V  V53  1  0.49913613  0.37062846  0.87360171  1
  V  V54  1  0.49880194  0.74951891  0.24960903  1
  V  V55  1  -0.00029892  0.12631146  0.12494055  1
  V  V56  1  0.62570553  0.25084304  0.37347145  1
  V  V57  1  -0.00141700  0.50135132  0.00031849  1
  V  V58  1  0.75108978  0.12553972  0.37469191  1
  V  V59  1  0.62408323  0.75017570  0.87444064  1
  V  V60  1  0.00053841  0.25047135  0.75116453  1
  V  V61  1  0.37471050  0.87739467  -0.00058675  1
  V  V62  1  0.87441832  0.49493510  0.37830130  1
  V  V63  1  0.37501347  0.49943252  0.87576704  1
  V  V64  1  0.50229373  0.87384405  0.37412189  1
  V  V65  1  0.00300871  0.75093732  0.74977167  1
  V  V66  1  0.62467348  0.62552916  0.49766804  1
  V  V67  1  0.75020019  0.87555254  0.62502731  1
  V  V68  1  0.62128055  0.36945011  0.74936351  1
  V  V69  1  0.24915602  0.75028892  -0.00034059  1
  V  V70  1  0.74915732  0.50033594  0.74908063  1
  V  V71  1  0.37344798  0.74819370  0.12595159  1
  V  V72  1  0.12496213  0.25047438  0.37405007  1
  V  V73  1  0.62200956  0.49919746  0.62264765  1
  V  V74  1  0.75059002  -0.00075146  0.74972519  1
  V  V75  1  0.62275800  0.12521135  0.00152828  1
  V  V76  1  0.12200276  0.87461559  0.25333715  1
  V  V77  1  0.37469096  0.87174386  0.50021079  1
  V  V78  1  0.75548756  0.37430865  0.62070319  1
  V  V79  1  0.62311670  0.50070157  0.12447584  1
  V  V80  1  0.87600526  0.74960731  0.62395985  1
  V  V81  1  0.62299399  0.62617487  -0.00044199  1
  V  V82  1  0.62571583  0.87488420  0.74880124  1
  V  V83  1  0.49916098  0.50047809  -0.00059329  1
  V  V84  1  0.87604644  0.12593931  0.74874917  1
  V  V85  1  0.12623274  0.12129936  0.50246795  1
  V  V86  1  0.25250643  0.12323997  0.37454601  1
  V  V87  1  0.87284617  0.62484129  0.24900384  1
  V  V88  1  0.12477397  0.62604100  -0.00006281  1
  V  V89  1  0.62093033  0.00409126  0.12483283  1
  V  V90  1  -0.00278805  0.49339987  0.50482145  1
  V  V91  1  0.74871495  0.75127877  -0.00101146  1
  V  V92  1  0.87486339  0.25144849  0.12514756  1
  Zn  Zn93  1  0.50725353  0.12405241  0.64162753  1
  Zn  Zn94  1  0.25598085  0.73794333  0.49536415  1
  Zn  Zn95  1  0.49911835  0.62457027  0.62388317  1
  Zn  Zn96  1  -0.00759837  0.37014410  0.37971554  1
  Zn  Zn97  1  0.25024768  0.37241169  0.63108876  1
  Zn  Zn98  1  -0.00021639  -0.00116061  0.50010001  1
  Zn  Zn99  1  0.12915277  0.87747467  0.75080896  1
  Zn  Zn100  1  0.39908574  0.11172782  0.77296553  1
  Zn  Zn101  1  0.62646564  0.74874609  0.37147784  1
  Zn  Zn102  1  0.37341086  0.74632550  0.62178794  1
  Zn  Zn103  1  0.13253351  0.49957675  0.62781146  1
  Zn  Zn104  1  0.00045101  0.87351234  0.37907552  1
  Zn  Zn105  1  0.25730979  -0.00385446  0.75124168  1
  Zn  Zn106  1  0.62500077  0.87383522  0.24926224  1
  Zn  Zn107  1  0.12834172  -0.00135197  0.62991150  1
  Zn  Zn108  1  0.37360950  0.37643641  0.00218642  1
  Zn  Zn109  1  0.50133645  0.00128498  0.50293849  1
  Zn  Zn110  1  0.12672433  0.37662120  0.74725618  1
  Zn  Zn111  1  0.75065954  0.62599853  0.37433971  1
  Zn  Zn112  1  0.12471498  0.38185210  0.25682350  1
  Zn  Zn113  1  0.13309008  0.61754601  0.50192253  1
  Zn  Zn114  1  0.49746580  0.50343592  0.49803012  1
  Zn  Zn115  1  -0.00292612  0.74995909  0.25344518  1
  Zn  Zn116  1  0.00432381  0.62587871  0.62113548  1
  Zn  Zn117  1  0.87874485  0.25376747  0.62075534  1
  Zn  Zn118  1  0.37919009  0.12253613  0.24754060  1
  Zn  Zn119  1  0.24700082  0.49459566  0.75014397  1
  Zn  Zn120  1  0.12621966  0.75095079  0.87439366  1
  Zn  Zn121  1  0.62424745  0.00043032  0.62440100  1
  Zn  Zn122  1  0.18947382  0.18816791  0.18878606  1
  Zn  Zn123  1  0.19034900  0.19382681  0.68857426  1
  Zn  Zn124  1  0.18396793  0.68923793  0.18760845  1
  Zn  Zn125  1  0.18790086  0.68496993  0.68143787  1
  Zn  Zn126  1  0.68667634  0.18724058  0.18670061  1
  Zn  Zn127  1  0.68906703  0.18817138  0.68571303  1
  Zn  Zn128  1  0.68606093  0.68843714  0.18730242  1
  Zn  Zn129  1  0.68761698  0.68795007  0.68481692  1
  Zn  Zn130  1  0.31188049  0.31292009  0.31242287  1
  Zn  Zn131  1  0.31203689  0.30940598  0.81359043  1
  Zn  Zn132  1  0.31210462  0.81098789  0.31097738  1
  Zn  Zn133  1  0.31289544  0.81081236  0.81124486  1
  Zn  Zn134  1  0.81124738  0.31346023  0.31071915  1
  Zn  Zn135  1  0.81210418  0.31253401  0.80964107  1
  Zn  Zn136  1  0.81065773  0.81223192  0.31275642  1
  Zn  Zn137  1  0.81448160  0.81316722  0.81214596  1
  Zn  Zn138  1  0.18510457  0.43374670  0.44566918  1
  Zn  Zn139  1  0.18743234  0.43896334  0.94079502  1
  Zn  Zn140  1  0.19082419  0.93461905  0.43789788  1
  Zn  Zn141  1  0.18494666  0.93734713  0.93764346  1
  Zn  Zn142  1  0.68859152  0.43847997  0.43642447  1
  Zn  Zn143  1  0.68565182  0.43832091  0.93686921  1
  Zn  Zn144  1  0.68910249  0.93772213  0.43705626  1
  Zn  Zn145  1  0.68452931  0.93817580  0.93604438  1
  Zn  Zn146  1  0.31202495  0.06444830  0.06091808  1
  Zn  Zn147  1  0.31601904  0.05868348  0.56406833  1
  Zn  Zn148  1  0.31136503  0.56165282  0.06315323  1
  Zn  Zn149  1  0.30843195  0.55950981  0.56232078  1
  Zn  Zn150  1  0.81063999  0.06363526  0.06237056  1
  Zn  Zn151  1  0.81183713  0.06267317  0.56196467  1
  Zn  Zn152  1  0.81017247  0.56365703  0.06225229  1
  Zn  Zn153  1  0.81370441  0.56333719  0.56157471  1
  Zn  Zn154  1  0.43411054  0.43726759  0.18939758  1
  Zn  Zn155  1  0.43563321  0.43462938  0.68764131  1
  Zn  Zn156  1  0.43732007  0.93691186  0.18636262  1
  Zn  Zn157  1  0.43561402  0.94473882  0.68456367  1
  Zn  Zn158  1  0.93937544  0.43734276  0.19083823  1
  Zn  Zn159  1  0.93829520  0.43728445  0.69017698  1
  Zn  Zn160  1  0.93727399  0.93764465  0.18770016  1
  Zn  Zn161  1  0.93827784  0.93777540  0.68597769  1
  Zn  Zn162  1  0.06143697  0.06229163  0.31366862  1
  Zn  Zn163  1  0.06956585  0.06171359  0.81083945  1
  Zn  Zn164  1  0.05480248  0.56380555  0.31563416  1
  Zn  Zn165  1  0.06439959  0.56352320  0.81093116  1
  Zn  Zn166  1  0.56404068  0.06154905  0.31469340  1
  Zn  Zn167  1  0.56601978  0.06074390  0.81420924  1
  Zn  Zn168  1  0.55795371  0.56387321  0.31095781  1
  Zn  Zn169  1  0.56110857  0.55976189  0.81167404  1
  Zn  Zn170  1  0.43917385  0.18850792  0.43550999  1
  Zn  Zn171  1  0.43736337  0.19064941  0.94401609  1
  Zn  Zn172  1  0.43750099  0.68422662  0.43390332  1
  Zn  Zn173  1  0.43576331  0.68970243  0.93614091  1
  Zn  Zn174  1  0.93882182  0.18451202  0.43725222  1
  Zn  Zn175  1  0.93732938  0.18894022  0.93751782  1
  Zn  Zn176  1  0.94373600  0.68318678  0.43602979  1
  Zn  Zn177  1  0.93710593  0.68837047  0.93633350  1
  Zn  Zn178  1  0.06286743  0.31580266  0.06301183  1
  Zn  Zn179  1  0.06366812  0.31465679  0.56320610  1
  Zn  Zn180  1  0.06117900  0.81215308  0.06305846  1
  Zn  Zn181  1  0.06295842  0.81251309  0.56168235  1
  Zn  Zn182  1  0.56053232  0.31281043  0.06069368  1
  Zn  Zn183  1  0.56417196  0.30966322  0.56054289  1
  Zn  Zn184  1  0.56136212  0.81470747  0.06341592  1
  Zn  Zn185  1  0.56330378  0.81274607  0.56151187  1
  O  O186  1  0.11945837  0.12051689  0.12119793  1
  O  O187  1  0.11958253  0.12828311  0.61678380  1
  O  O188  1  0.11870946  0.61901540  0.12037463  1
  O  O189  1  0.11974935  0.61773388  0.62203374  1
  O  O190  1  0.63162384  0.11284142  0.11754224  1
  O  O191  1  0.62697368  0.12590530  0.61302096  1
  O  O192  1  0.61801295  0.62015521  0.11864736  1
  O  O193  1  0.62524862  0.61469091  0.61753396  1
  O  O194  1  0.38205014  0.37945604  0.38001983  1
  O  O195  1  0.38572218  0.37896100  0.87588874  1
  O  O196  1  0.38239092  0.87841326  0.38028454  1
  O  O197  1  0.38749347  0.86810980  0.88203038  1
  O  O198  1  0.87307165  0.38976771  0.36850697  1
  O  O199  1  0.87814928  0.38124606  0.88024997  1
  O  O200  1  0.87518054  0.88098298  0.38038745  1
  O  O201  1  0.87998246  0.88205291  0.88102052  1
  O  O202  1  0.25668266  0.00324024  0.36908779  1
  O  O203  1  0.24575432  0.01878571  0.88229354  1
  O  O204  1  0.26078893  0.48919663  0.37789238  1
  O  O205  1  0.25812826  0.50742153  0.87686927  1
  O  O206  1  0.75566364  0.00564057  0.36728385  1
  O  O207  1  0.75589290  0.00565839  0.87061204  1
  O  O208  1  0.75627118  0.50221059  0.36840823  1
  O  O209  1  0.75343654  0.50562111  0.86962215  1
  O  O210  1  0.23785142  0.49147331  0.11878929  1
  O  O211  1  0.25283209  0.49050759  0.63135282  1
  O  O212  1  0.24368059  0.99542022  0.12883112  1
  O  O213  1  0.24956998  0.98527910  0.62164322  1
  O  O214  1  0.74278906  0.49519900  0.12897949  1
  O  O215  1  0.74074841  0.49268524  0.62761577  1
  O  O216  1  0.74221060  0.99557352  0.12804895  1
  O  O217  1  0.74997206  0.99334675  0.63286238  1
  O  O218  1  0.00409658  0.36583633  0.25488038  1
  O  O219  1  -0.00185866  0.36764798  0.75864384  1
  O  O220  1  0.01235963  0.87471428  0.24866464  1
  O  O221  1  -0.00102088  0.86615005  0.75520262  1
  O  O222  1  0.50466833  0.36753645  0.25685540  1
  O  O223  1  0.51162508  0.38167627  0.76130912  1
  O  O224  1  0.49858230  0.86848799  0.25872484  1
  O  O225  1  0.50368310  0.86777667  0.75706497  1
  O  O226  1  0.50077594  0.14079695  0.25641175  1
  O  O227  1  0.50707689  0.13259082  0.75541349  1
  O  O228  1  0.49260124  0.63092367  0.24259925  1
  O  O229  1  0.49363581  0.63336750  0.75163658  1
  O  O230  1  0.99390018  0.13038830  0.24384087  1
  O  O231  1  0.99690834  0.12987217  0.74341548  1
  O  O232  1  0.98996321  0.62672313  0.24097779  1
  O  O233  1  0.99159319  0.63577419  0.75194171  1
  O  O234  1  0.36929410  0.25515835  0.01201580  1
  O  O235  1  0.37265284  0.25775582  0.50107151  1
  O  O236  1  0.36933453  0.75566123  0.00672432  1
  O  O237  1  0.37735485  0.76017256  0.49875757  1
  O  O238  1  0.86887634  0.25631833  0.00531627  1
  O  O239  1  0.86096077  0.24492683  0.49902766  1
  O  O240  1  0.86792664  0.75622899  0.00414100  1
  O  O241  1  0.87067994  0.75389712  0.50425530  1
  O  O242  1  0.13089898  0.23977757  0.49231682  1
  O  O243  1  0.12804107  0.24515928  0.99745241  1
  O  O244  1  0.12369992  0.75055577  0.48353171  1
  O  O245  1  0.13113219  0.74362102  1.00098567  1
  O  O246  1  0.63490986  0.24353677  0.49250595  1
  O  O247  1  0.63032169  0.24548807  0.99549441  1
  O  O248  1  0.63079945  0.73956735  0.50064345  1
  O  O249  1  0.62868827  0.74554359  0.99482585  1
  O  O250  1  0.48939016  0.26033644  0.13473823  1
  O  O251  1  0.48869123  0.24753657  0.61981505  1
  O  O252  1  0.49269390  0.74526415  0.12848639  1
  O  O253  1  0.49954879  0.74990399  0.63873119  1
  O  O254  1  0.99414682  0.24547663  0.12940528  1
  O  O255  1  0.99850172  0.24016238  0.62959481  1
  O  O256  1  0.99118957  0.74401779  0.12571012  1
  O  O257  1  0.99336468  0.75044453  0.63454167  1
  O  O258  1  0.00836651  0.24852285  0.37103977  1
  O  O259  1  0.00401447  0.25549742  0.87151982  1
  O  O260  1  0.01213110  0.75468232  0.37093594  1
  O  O261  1  -0.00185906  0.75696438  0.86597728  1
  O  O262  1  0.50485862  0.26095071  0.36574273  1
  O  O263  1  0.50717339  0.26344350  0.88505252  1
  O  O264  1  0.50086497  0.75916929  0.36795237  1
  O  O265  1  0.50491771  0.75776517  0.86692701  1
  O  O266  1  0.24354731  0.12808448  0.49487894  1
  O  O267  1  0.24318886  0.13271425  0.99500240  1
  O  O268  1  0.24687170  0.62621206  0.49928641  1
  O  O269  1  0.24522329  0.63110422  0.99623319  1
  O  O270  1  0.74321071  0.13383559  0.49406718  1
  O  O271  1  0.74533216  0.13174022  0.99416786  1
  O  O272  1  0.74001282  0.63008630  0.49990944  1
  O  O273  1  0.74281544  0.63130810  0.99413652  1
  O  O274  1  0.25020235  0.36934705  0.01190994  1
  O  O275  1  0.26412836  0.36584763  0.49917111  1
  O  O276  1  0.25483321  0.87133676  0.00477824  1
  O  O277  1  0.26092067  0.87039301  0.50444357  1
  O  O278  1  0.75367180  0.37098404  0.00461881  1
  O  O279  1  0.74075650  0.36542654  0.50920216  1
  O  O280  1  0.75460819  0.87079714  0.00304366  1
  O  O281  1  0.75511725  0.86868528  0.50517706  1
  O  O282  1  0.11560469  0.50148764  0.23666250  1
  O  O283  1  0.12701703  0.49535391  0.74889132  1
  O  O284  1  0.12987088  0.99356065  0.24554138  1
  O  O285  1  0.13694142  0.99632057  0.74766412  1
  O  O286  1  0.62818629  0.49563925  0.24361973  1
  O  O287  1  0.62995660  0.49219969  0.74198666  1
  O  O288  1  0.63001851  1.00024456  0.24026132  1
  O  O289  1  0.63475209  0.99120179  0.75083912  1
  O  O290  1  0.36952409  0.00154829  0.25405037  1
  O  O291  1  0.36884369  0.00704903  0.74764131  1
  O  O292  1  0.37838143  0.50748028  0.25933397  1
  O  O293  1  0.37911195  0.50999629  0.75756503  1
  O  O294  1  0.86891870  0.00626713  0.25310175  1
  O  O295  1  0.87056639  0.00587653  0.75637603  1
  O  O296  1  0.86851343  0.50539003  0.25462418  1
  O  O297  1  0.86851599  0.50612489  0.75591024  1
  O  O298  1  0.12592583  0.35864716  0.37639994  1
  O  O299  1  0.11556900  0.36904352  0.88013827  1
  O  O300  1  0.12390051  0.87155482  0.36478150  1
  O  O301  1  0.11675636  0.87115143  0.87362160  1
  O  O302  1  0.61795770  0.37097520  0.36878866  1
  O  O303  1  0.61945187  0.37142427  0.86767989  1
  O  O304  1  0.61357803  0.87417278  0.37337232  1
  O  O305  1  0.61617147  0.86843658  0.86952662  1
  O  O306  1  0.36679872  0.14219906  0.12833585  1
  O  O307  1  0.38031675  0.13840075  0.61687304  1
  O  O308  1  0.37956303  0.62812274  0.13204983  1
  O  O309  1  0.37993191  0.62517559  0.63686651  1
  O  O310  1  0.87918635  0.13154442  0.12934112  1
  O  O311  1  0.88488780  0.12620197  0.63006320  1
  O  O312  1  0.87770994  0.63038226  0.12802726  1
  O  O313  1  0.87546971  0.63214879  0.63252426  1
  O  O314  1  0.25457508  0.25901916  0.12216891  1
  O  O315  1  0.26510645  0.24887596  0.61708199  1
  O  O316  1  0.25415859  0.75633754  0.11920620  1
  O  O317  1  0.25396512  0.76071633  0.62056586  1
  O  O318  1  0.75473868  0.25636317  0.11963293  1
  O  O319  1  0.75128816  0.25826908  0.61589377  1
  O  O320  1  0.75359662  0.75583411  0.11762392  1
  O  O321  1  0.75625497  0.75596495  0.61965460  1
  O  O322  1  0.24365233  0.24326451  0.37977261  1
  O  O323  1  0.24304051  0.24435060  0.88488883  1
  O  O324  1  0.23403453  0.75741728  0.37440141  1
  O  O325  1  0.24973346  0.74340848  0.88291483  1
  O  O326  1  0.74534075  0.24674345  0.37992166  1
  O  O327  1  0.74458228  0.24618292  0.88073131  1
  O  O328  1  0.74590292  0.74651154  0.38244616  1
  O  O329  1  0.74434180  0.74545971  0.87951280  1
  O  O330  1  0.00393658  0.12072721  0.00589089  1
  O  O331  1  0.00878742  0.12519054  0.50912813  1
  O  O332  1  0.00329816  0.62063935  0.00481315  1
  O  O333  1  0.00529145  0.61047933  0.50020502  1
  O  O334  1  0.50706285  0.11203495  -0.00871981  1
  O  O335  1  0.51660291  0.12642291  0.49327643  1
  O  O336  1  0.50402387  0.62139832  0.00482483  1
  O  O337  1  0.51041691  0.62346798  0.50388104  1
  O  O338  1  0.49365117  0.37231061  0.48827353  1
  O  O339  1  0.50072397  0.38318346  0.99011210  1
  O  O340  1  0.49337757  0.87411013  0.48993640  1
  O  O341  1  0.49541020  0.88115249  0.99254915  1
  O  O342  1  0.99810149  0.38702173  0.49785986  1
  O  O343  1  0.99162540  0.38116771  0.99557274  1
  O  O344  1  0.99068872  0.87972224  0.50083933  1
  O  O345  1  0.99360290  0.88153017  0.99586823  1
  O  O346  1  0.49621089  0.48612227  0.37442946  1
  O  O347  1  0.49641705  0.49166662  0.88060788  1
  O  O348  1  0.49509853  0.98939527  0.37489282  1
  O  O349  1  0.50848839  0.98684552  0.88661751  1
  O  O350  1  0.99094887  0.49617600  0.38357648  1
  O  O351  1  0.99198592  0.49641260  0.88122542  1
  O  O352  1  0.99099662  0.99826543  0.37751244  1
  O  O353  1  0.99498603  0.99685487  0.88061847  1
  O  O354  1  0.00440336  0.00674859  0.11995850  1
  O  O355  1  0.00418839  0.01343754  0.62455004  1
  O  O356  1  0.00497357  0.50534699  0.11878372  1
  O  O357  1  -0.00785667  0.49986768  0.61100103  1
  O  O358  1  0.51146236  -0.00751357  0.11500159  1
  O  O359  1  0.50710676  0.00607275  0.61924517  1
  O  O360  1  0.50429983  0.50431148  0.11989108  1
  O  O361  1  0.51327118  0.49757786  0.62342758  1
  O  O362  1  0.24365959  0.36963431  0.23781108  1
  O  O363  1  0.24707480  0.37505019  0.75097153  1
  O  O364  1  0.24158275  0.88102959  0.24364436  1
  O  O365  1  0.25121115  0.87242808  0.73848621  1
  O  O366  1  0.74242256  0.38042195  0.24272120  1
  O  O367  1  0.74058721  0.38105318  0.74266399  1
  O  O368  1  0.74818651  0.88247826  0.24207431  1
  O  O369  1  0.74614195  0.87881618  0.74563067  1
  O  O370  1  0.25088479  0.11752263  0.25724200  1
  O  O371  1  0.24663025  0.12986252  0.76971408  1
  O  O372  1  0.26349959  0.62954447  0.24423484  1
  O  O373  1  0.26282879  0.62803465  0.75687420  1
  O  O374  1  0.75548070  0.12095137  0.25463031  1
  O  O375  1  0.75544644  0.12053227  0.75557597  1
  O  O376  1  0.75435604  0.61799316  0.24888565  1
  O  O377  1  0.75357459  0.62031908  0.75514955  1
  O  O378  1  0.36989034  0.11783325  0.37419615  1
  O  O379  1  0.35824546  0.13564397  0.88104760  1
  O  O380  1  0.38158901  0.61151062  0.36563455  1
  O  O381  1  0.37154415  0.62001737  0.86825901  1
  O  O382  1  0.86966901  0.11952973  0.36853227  1
  O  O383  1  0.87038454  0.12041132  0.87001866  1
  O  O384  1  0.87353756  0.61443280  0.36651540  1
  O  O385  1  0.86706800  0.62030399  0.87028884  1
  O  O386  1  0.13017670  0.38468993  0.12677670  1
  O  O387  1  0.13025363  0.37729116  0.62732269  1
  O  O388  1  0.12955717  0.88045125  0.13234065  1
  O  O389  1  0.13642844  0.87582793  0.62380977  1
  O  O390  1  0.62930555  0.38114800  0.12844964  1
  O  O391  1  0.63097526  0.38018000  0.63117205  1
  O  O392  1  0.63126832  0.88607588  0.12421535  1
  O  O393  1  0.63306773  0.87464665  0.63132991  1
  O  O394  1  0.11889726  0.24576738  0.26138493  1
  O  O395  1  0.11638513  0.25106530  0.75890621  1
  O  O396  1  0.12375365  0.75998191  0.25740382  1
  O  O397  1  0.11169749  0.75037385  0.75098965  1
  O  O398  1  0.61880774  0.25620304  0.25231182  1
  O  O399  1  0.63361675  0.26327462  0.75592562  1
  O  O400  1  0.61527658  0.75262188  0.25020641  1
  O  O401  1  0.61759700  0.75368664  0.75459482  1
  O  O402  1  0.38323493  0.25016148  0.24438476  1
  O  O403  1  0.37398977  0.24516235  0.73548602  1
  O  O404  1  0.37971517  0.74169285  0.24520882  1
  O  O405  1  0.38551318  0.73982367  0.75116079  1
  O  O406  1  0.87944768  0.24466023  0.24446871  1
  O  O407  1  0.88154346  0.24265456  0.74824147  1
  O  O408  1  0.87342248  0.74407018  0.24178767  1
  O  O409  1  0.88215343  0.74640423  0.74495036  1
  O  O410  1  0.37915573  0.48785273  0.49127616  1
  O  O411  1  0.38208503  0.49888670  0.99400124  1
  O  O412  1  0.37795627  0.98790209  0.49156207  1
  O  O413  1  0.38778399  0.99317379  1.01100711  1
  O  O414  1  0.88412029  0.50599343  0.48967671  1
  O  O415  1  0.87764409  0.49585581  0.99476159  1
  O  O416  1  0.87308034  0.99391078  0.49223382  1
  O  O417  1  0.87979456  0.99628945  0.99537913  1
  O  O418  1  0.11798527  0.00560653  0.00736072  1
  O  O419  1  0.12545508  0.01364619  0.49929106  1
  O  O420  1  0.11702136  0.50712786  0.00933160  1
  O  O421  1  0.10826238  0.49818325  0.49829461  1
  O  O422  1  0.61809186  0.00427428  0.00668899  1
  O  O423  1  0.62782378  0.01218825  0.49960920  1
  O  O424  1  0.61978924  0.50698270  0.00471828  1
  O  O425  1  0.62447046  0.50662484  0.50756613  1
  O  O426  1  0.36447609  0.36829653  0.12595265  1
  O  O427  1  0.38036997  0.36243764  0.61451651  1
  O  O428  1  0.36838510  0.86794445  0.12044290  1
  O  O429  1  0.37031541  0.87263108  0.61331257  1
  O  O430  1  0.86872712  0.37116363  0.11980291  1
  O  O431  1  0.85829131  0.37452236  0.63206141  1
  O  O432  1  0.86906299  0.87120070  0.11848501  1
  O  O433  1  0.86905369  0.86974878  0.61926524  1
  O  O434  1  0.12984981  0.13160920  0.38302884  1
  O  O435  1  0.13212715  0.13309062  0.88349117  1
  O  O436  1  0.12222852  0.63987204  0.36918763  1
  O  O437  1  0.13172001  0.62726867  0.88331764  1
  O  O438  1  0.63311830  0.13134327  0.37977967  1
  O  O439  1  0.63383025  0.13045659  0.88249481  1
  O  O440  1  0.62471694  0.62361322  0.38657761  1
  O  O441  1  0.62884450  0.62976756  0.87962743  1
