# generated using pymatgen
data_V93Zn93O256
_symmetry_space_group_name_H-M   'P 1'
_cell_length_a   17.05530788
_cell_length_b   17.05630247
_cell_length_c   17.06273338
_cell_angle_alpha   89.93572796
_cell_angle_beta   89.97266219
_cell_angle_gamma   90.06020514
_symmetry_Int_Tables_number   1
_chemical_formula_structural   V93Zn93O256
_chemical_formula_sum   'V93 Zn93 O256'
_cell_volume   4963.55106869
_cell_formula_units_Z   1
loop_
 _symmetry_equiv_pos_site_id
 _symmetry_equiv_pos_as_xyz
  1  'x, y, z'
loop_
 _atom_site_type_symbol
 _atom_site_label
 _atom_site_symmetry_multiplicity
 _atom_site_fract_x
 _atom_site_fract_y
 _atom_site_fract_z
 _atom_site_occupancy
  V  V0  1  0.62469848  0.24965861  0.37414613  1
  V  V1  1  0.12445566  0.11717302  0.00273388  1
  V  V2  1  0.12399277  0.00244193  0.62393323  1
  V  V3  1  0.37438180  0.49918246  0.87306954  1
  V  V4  1  0.87522600  0.37431602  -0.00107540  1
  V  V5  1  0.62810077  0.74938517  0.37744332  1
  V  V6  1  0.24917400  0.87610856  0.62529123  1
  V  V7  1  0.87681654  0.37782116  0.49956127  1
  V  V8  1  0.37542765  0.25189097  0.62381842  1
  V  V9  1  -0.00003753  0.37698144  0.37328907  1
  V  V10  1  0.50042658  0.24911872  0.75018832  1
  V  V11  1  0.87575725  0.12602499  0.74986088  1
  V  V12  1  0.75075352  0.12536731  0.37553889  1
  V  V13  1  0.37428401  -0.00064539  0.37415250  1
  V  V14  1  0.24989838  0.00062489  0.75018097  1
  V  V15  1  0.12537293  0.62636616  -0.00308824  1
  V  V16  1  0.74925564  0.37515142  0.12489838  1
  V  V17  1  0.37434846  0.37678973  0.49895079  1
  V  V18  1  0.00700913  0.62236421  0.61916112  1
  V  V19  1  0.62512618  0.87497890  0.75135342  1
  V  V20  1  0.24917919  0.37436576  0.12358456  1
  V  V21  1  0.50195480  0.62539300  0.62566485  1
  V  V22  1  0.62500576  0.00035938  0.62595189  1
  V  V23  1  0.49888603  -0.00012222  0.50006728  1
  V  V24  1  0.00368851  0.11781794  0.12439649  1
  V  V25  1  0.00008319  0.37525894  0.87424656  1
  V  V26  1  0.00810447  0.87604261  0.37011615  1
  V  V27  1  0.75106288  0.87527380  0.62559540  1
  V  V28  1  0.37497938  0.62411643  0.75008068  1
  V  V29  1  0.00547562  0.75347834  0.24814052  1
  V  V30  1  0.12502409  0.74249359  0.37833228  1
  V  V31  1  0.74804521  -0.00076794  0.25053051  1
  V  V32  1  0.87467861  0.75113799  0.62579413  1
  V  V33  1  0.62259762  -0.00146384  0.12647838  1
  V  V34  1  0.49982624  0.75037946  0.75066193  1
  V  V35  1  0.37423258  0.12451452  0.75002192  1
  V  V36  1  0.49990413  0.49871130  -0.00001838  1
  V  V37  1  0.00213630  0.00186161  0.50008788  1
  V  V38  1  0.62375467  0.12254790  0.00098683  1
  V  V39  1  0.87490119  -0.00099902  0.87643815  1
  V  V40  1  0.00003281  0.75125311  0.75106998  1
  V  V41  1  0.62260206  0.87447232  0.25163646  1
  V  V42  1  0.50034281  0.12515507  0.62531165  1
  V  V43  1  0.62138858  0.62347420  0.00361538  1
  V  V44  1  0.87448375  0.12487403  0.24916812  1
  V  V45  1  0.24796745  0.24703373  -0.00222150  1
  V  V46  1  0.49989678  0.37338644  0.87433449  1
  V  V47  1  0.24299496  0.87779802  0.12850209  1
  V  V48  1  0.62585988  0.12531658  0.50062770  1
  V  V49  1  0.62451274  0.24920959  0.87535723  1
  V  V50  1  0.74962956  0.12393271  0.87568031  1
  V  V51  1  -0.00385197  0.62688100  0.12516272  1
  V  V52  1  0.87562407  -0.00021638  0.37512609  1
  V  V53  1  0.37462658  0.37287717  -0.00251662  1
  V  V54  1  0.74889970  0.62111925  0.87277099  1
  V  V55  1  0.62421430  0.74888913  0.87665620  1
  V  V56  1  0.37388244  -0.00448871  0.87813687  1
  V  V57  1  0.12427467  0.49923141  0.12271832  1
  V  V58  1  0.23641928  -0.00421310  0.24789825  1
  V  V59  1  0.24953335  0.62547893  0.87483610  1
  V  V60  1  0.75113085  0.50174152  0.25012962  1
  V  V61  1  0.63400292  0.49983407  0.62937485  1
  V  V62  1  0.87463488  0.24849186  0.12358269  1
  V  V63  1  0.12493639  0.37367309  0.24787685  1
  V  V64  1  0.49359966  0.74154561  0.25134635  1
  V  V65  1  0.87226249  0.62011426  0.74972859  1
  V  V66  1  0.49819600  0.87411604  0.87785415  1
  V  V67  1  0.50217030  0.49983401  0.49985115  1
  V  V68  1  0.87513747  0.87600992  0.50054298  1
  V  V69  1  0.49518829  -0.00637894  0.00269668  1
  V  V70  1  0.37426912  0.12282474  0.24906113  1
  V  V71  1  0.00029554  0.25060843  0.24847641  1
  V  V72  1  -0.00039675  0.87566639  0.87508751  1
  V  V73  1  0.75130859  0.25202388  0.50053079  1
  V  V74  1  0.49935412  0.24903001  0.24965466  1
  V  V75  1  0.74970134  0.24868824  0.00027452  1
  V  V76  1  0.62790530  0.62595009  0.50207567  1
  V  V77  1  0.37512079  0.75065899  0.62461748  1
  V  V78  1  0.24501344  0.74321741  0.50092331  1
  V  V79  1  0.74963317  0.00049649  0.75119712  1
  V  V80  1  0.87287937  0.50042990  0.87342647  1
  V  V81  1  0.12578774  0.37935797  0.74631877  1
  V  V82  1  0.37436133  0.87615026  0.50080090  1
  V  V83  1  0.25688483  0.75612658  0.00009401  1
  V  V84  1  0.12353539  0.87648816  0.75107197  1
  V  V85  1  0.37512204  0.24738967  0.12465447  1
  V  V86  1  0.63221199  0.37834081  0.74992884  1
  V  V87  1  0.24782113  0.12777032  0.37580962  1
  V  V88  1  0.25617236  0.50920450  0.24905039  1
  V  V89  1  0.00007060  0.24964573  0.74759286  1
  V  V90  1  -0.00046634  0.49992886  -0.00052467  1
  V  V91  1  0.87353729  0.87260681  0.00206587  1
  V  V92  1  0.50153974  0.37425077  0.37473020  1
  Zn  Zn93  1  0.87537538  0.50457641  0.37496803  1
  Zn  Zn94  1  0.87383995  0.25001509  0.62435816  1
  Zn  Zn95  1  0.24672026  0.12249767  0.87487875  1
  Zn  Zn96  1  0.12553362  0.75115739  0.87541805  1
  Zn  Zn97  1  0.75554471  0.37730321  0.62826620  1
  Zn  Zn98  1  0.00370292  -0.00423499  0.00374808  1
  Zn  Zn99  1  0.49811324  0.12281434  0.12532314  1
  Zn  Zn100  1  0.12385008  0.13078396  0.50185814  1
  Zn  Zn101  1  0.62309970  0.49760172  0.12614495  1
  Zn  Zn102  1  0.75374665  0.62395478  0.37697625  1
  Zn  Zn103  1  0.74794573  0.74867161  0.00503934  1
  Zn  Zn104  1  0.74956203  0.87195941  0.12520428  1
  Zn  Zn105  1  0.24963497  0.50043845  0.74756793  1
  Zn  Zn106  1  0.12507669  0.24864252  0.87334983  1
  Zn  Zn107  1  0.12608496  0.25147681  0.37718209  1
  Zn  Zn108  1  0.00001977  0.12635545  0.62264702  1
  Zn  Zn109  1  0.49029566  0.61579086  0.13462900  1
  Zn  Zn110  1  0.62500755  0.37471095  0.24851603  1
  Zn  Zn111  1  0.49799405  0.87415030  0.37624215  1
  Zn  Zn112  1  0.24792238  0.25224059  0.50115785  1
  Zn  Zn113  1  0.13541487  0.50613467  0.61320835  1
  Zn  Zn114  1  0.25361429  0.62579516  0.37516273  1
  Zn  Zn115  1  0.37345642  0.74812933  0.12445125  1
  Zn  Zn116  1  0.87447371  0.62753524  0.25476671  1
  Zn  Zn117  1  0.25059444  0.37749509  0.62477452  1
  Zn  Zn118  1  0.75152697  0.74949211  0.50050835  1
  Zn  Zn119  1  0.38457881  0.50845154  0.36509742  1
  Zn  Zn120  1  0.00787604  0.50718036  0.49192409  1
  Zn  Zn121  1  0.87137091  0.75128241  0.12837155  1
  Zn  Zn122  1  0.18710985  0.18557295  0.18794760  1
  Zn  Zn123  1  0.18793571  0.18975368  0.68557527  1
  Zn  Zn124  1  0.18239838  0.69155274  0.18329058  1
  Zn  Zn125  1  0.18828384  0.69054141  0.69020864  1
  Zn  Zn126  1  0.68554725  0.18627409  0.18704883  1
  Zn  Zn127  1  0.68933038  0.19015687  0.68680412  1
  Zn  Zn128  1  0.68630249  0.68702867  0.18694676  1
  Zn  Zn129  1  0.68887707  0.68846382  0.68911899  1
  Zn  Zn130  1  0.31444171  0.31557724  0.31173387  1
  Zn  Zn131  1  0.31101244  0.31166982  0.81105536  1
  Zn  Zn132  1  0.30879288  0.81619249  0.31393389  1
  Zn  Zn133  1  0.31161789  0.81210517  0.81317395  1
  Zn  Zn134  1  0.81313326  0.31425126  0.31196893  1
  Zn  Zn135  1  0.81375987  0.31055308  0.81413442  1
  Zn  Zn136  1  0.81550093  0.81243174  0.31145516  1
  Zn  Zn137  1  0.81191907  0.80916800  0.81482205  1
  Zn  Zn138  1  0.18557300  0.43978625  0.43534477  1
  Zn  Zn139  1  0.18684086  0.43746796  0.93380058  1
  Zn  Zn140  1  0.18786722  0.93748042  0.43767725  1
  Zn  Zn141  1  0.18861973  0.93479891  0.93920096  1
  Zn  Zn142  1  0.68814582  0.43783386  0.43664257  1
  Zn  Zn143  1  0.68752047  0.43822533  0.93763322  1
  Zn  Zn144  1  0.68779573  0.93688278  0.43829421  1
  Zn  Zn145  1  0.68667872  0.93639751  0.93946663  1
  Zn  Zn146  1  0.31101784  0.05945792  0.06447842  1
  Zn  Zn147  1  0.31169163  0.06394797  0.56192763  1
  Zn  Zn148  1  0.31482616  0.56682257  0.06246792  1
  Zn  Zn149  1  0.31496046  0.56057115  0.56283495  1
  Zn  Zn150  1  0.81195122  0.05882926  0.06379130  1
  Zn  Zn151  1  0.81485906  0.06346580  0.56370090  1
  Zn  Zn152  1  0.80976161  0.56172342  0.06121069  1
  Zn  Zn153  1  0.81645817  0.56343590  0.55994751  1
  Zn  Zn154  1  0.43745054  0.43321385  0.18440024  1
  Zn  Zn155  1  0.44192461  0.43797127  0.68629835  1
  Zn  Zn156  1  0.42819653  0.92994187  0.18507448  1
  Zn  Zn157  1  0.43718990  0.93737913  0.68922701  1
  Zn  Zn158  1  0.93440799  0.43874947  0.18717826  1
  Zn  Zn159  1  0.93924323  0.43865102  0.68592167  1
  Zn  Zn160  1  0.93703529  0.93648375  0.18850814  1
  Zn  Zn161  1  0.93782132  0.93971915  0.68789451  1
  Zn  Zn162  1  0.06187198  0.06568009  0.31392406  1
  Zn  Zn163  1  0.06279058  0.06347514  0.81541471  1
  Zn  Zn164  1  0.06670176  0.56292094  0.30884690  1
  Zn  Zn165  1  0.06137881  0.56265710  0.81017559  1
  Zn  Zn166  1  0.56032942  0.06324815  0.31391216  1
  Zn  Zn167  1  0.56067533  0.06167761  0.81445680  1
  Zn  Zn168  1  0.56986725  0.56116663  0.31518785  1
  Zn  Zn169  1  0.56178847  0.56111303  0.81307632  1
  Zn  Zn170  1  0.43595202  0.18763746  0.43681630  1
  Zn  Zn171  1  0.43704289  0.18221029  0.93737460  1
  Zn  Zn172  1  0.43568962  0.68517504  0.43598409  1
  Zn  Zn173  1  0.43629755  0.68524334  0.93806316  1
  Zn  Zn174  1  0.93831124  0.19026037  0.43747479  1
  Zn  Zn175  1  0.93940469  0.18646437  0.93636766  1
  Zn  Zn176  1  0.93552453  0.69077401  0.43658833  1
  Zn  Zn177  1  0.93750146  0.68973989  0.93738580  1
  Zn  Zn178  1  0.06256767  0.30881635  0.06222519  1
  Zn  Zn179  1  0.06466786  0.31452502  0.56087666  1
  Zn  Zn180  1  0.06684412  0.81330731  0.06148425  1
  Zn  Zn181  1  0.06171998  0.81366745  0.56200485  1
  Zn  Zn182  1  0.56244893  0.31164051  0.06382030  1
  Zn  Zn183  1  0.56347868  0.31376531  0.56293505  1
  Zn  Zn184  1  0.56097849  0.81076825  0.06639560  1
  Zn  Zn185  1  0.56262987  0.81354980  0.56277130  1
  O  O186  1  0.11335788  0.13238862  0.11590341  1
  O  O187  1  0.12258846  0.11688723  0.62321772  1
  O  O188  1  0.11365883  0.61948271  0.11737465  1
  O  O189  1  0.10903450  0.62820738  0.63308876  1
  O  O190  1  0.62166651  0.11684916  0.11885600  1
  O  O191  1  0.62040433  0.11966102  0.62062955  1
  O  O192  1  0.61895173  0.62331646  0.11177113  1
  O  O193  1  0.62151619  0.61890921  0.62392633  1
  O  O194  1  0.38312941  0.37971194  0.38312342  1
  O  O195  1  0.38083646  0.37799755  0.87846341  1
  O  O196  1  0.37554875  0.88247397  0.38350404  1
  O  O197  1  0.38187970  0.88819534  0.86711675  1
  O  O198  1  0.88426774  0.37645540  0.38132926  1
  O  O199  1  0.87926810  0.38063912  0.87971776  1
  O  O200  1  0.88373976  0.88083128  0.38033494  1
  O  O201  1  0.87910061  0.87916726  0.88181431  1
  O  O202  1  0.25430734  0.00623095  0.36769044  1
  O  O203  1  0.25920563  -0.00101055  0.86994386  1
  O  O204  1  0.24653579  0.50024140  0.35470739  1
  O  O205  1  0.25760026  0.50663987  0.87283126  1
  O  O206  1  0.75529496  0.00597166  0.37070855  1
  O  O207  1  0.75343703  0.00516663  0.86985014  1
  O  O208  1  0.75106813  0.50056810  0.36313636  1
  O  O209  1  0.75627707  0.51294094  0.88033240  1
  O  O210  1  0.24452673  0.49403858  0.13005520  1
  O  O211  1  0.25028542  0.49626067  0.63050002  1
  O  O212  1  0.25500653  0.98638452  0.13263699  1
  O  O213  1  0.24532641  0.99506838  0.63059067  1
  O  O214  1  0.74906003  0.49299155  0.13143978  1
  O  O215  1  0.73717751  0.49923127  0.62140872  1
  O  O216  1  0.74124432  0.99766907  0.13358135  1
  O  O217  1  0.74445950  0.99556252  0.63176183  1
  O  O218  1  0.00336807  0.37058976  0.25375129  1
  O  O219  1  0.00511198  0.36870840  0.75440509  1
  O  O220  1  -0.00572007  0.86707927  0.26060572  1
  O  O221  1  0.00356392  0.87087949  0.75499842  1
  O  O222  1  0.50032330  0.36715703  0.25663827  1
  O  O223  1  0.50940983  0.36792005  0.75562745  1
  O  O224  1  0.51077654  0.86745305  0.25382608  1
  O  O225  1  0.50621230  0.86989125  0.75592241  1
  O  O226  1  0.49221180  0.13065685  0.24892566  1
  O  O227  1  0.49540523  0.12937338  0.74489870  1
  O  O228  1  0.50928521  0.63827618  0.25249873  1
  O  O229  1  0.49548274  0.63156618  0.74594130  1
  O  O230  1  0.99424079  0.12983537  0.24309082  1
  O  O231  1  0.99466734  0.13499859  0.75178204  1
  O  O232  1  1.00057558  0.63223991  0.23929001  1
  O  O233  1  0.98991183  0.63162927  0.74357004  1
  O  O234  1  0.36731323  0.25189438  0.00340665  1
  O  O235  1  0.37749565  0.26071629  0.50534675  1
  O  O236  1  0.35989560  0.74802782  -0.00491368  1
  O  O237  1  0.36757574  0.75701623  0.50654655  1
  O  O238  1  0.86916773  0.25431553  0.00325867  1
  O  O239  1  0.86993262  0.26015567  0.50025521  1
  O  O240  1  0.87396374  0.76217186  0.00099390  1
  O  O241  1  0.87346817  0.75930789  0.50753238  1
  O  O242  1  0.13026320  0.24902297  0.49543494  1
  O  O243  1  0.13460853  0.24253416  0.99838788  1
  O  O244  1  0.13431163  0.75820883  0.49142575  1
  O  O245  1  0.13447950  0.74289297  0.99641616  1
  O  O246  1  0.62998050  0.24396173  0.49467173  1
  O  O247  1  0.62982167  0.24346364  0.99440471  1
  O  O248  1  0.62569514  0.74623034  0.49308185  1
  O  O249  1  0.62121689  0.74009748  0.99387239  1
  O  O250  1  0.49240305  0.24759009  0.13032592  1
  O  O251  1  0.49669322  0.24358483  0.63068169  1
  O  O252  1  0.50036647  0.75095492  0.14418472  1
  O  O253  1  0.49573080  0.74562960  0.63124974  1
  O  O254  1  0.99264650  0.24147672  0.12896083  1
  O  O255  1  0.99805296  0.25010266  0.63809293  1
  O  O256  1  1.00278186  0.74297705  0.13247151  1
  O  O257  1  0.99418946  0.74297039  0.63082692  1
  O  O258  1  -0.00050561  0.26057074  0.36574536  1
  O  O259  1  -0.00073548  0.25712435  0.86443969  1
  O  O260  1  0.00713423  0.75703095  0.36978372  1
  O  O261  1  0.00146953  0.75742795  0.86809777  1
  O  O262  1  0.50514231  0.25345922  0.36946361  1
  O  O263  1  0.50508507  0.25333142  0.87071927  1
  O  O264  1  0.51227675  0.75134869  0.36881339  1
  O  O265  1  0.50378679  0.75480138  0.86987963  1
  O  O266  1  0.25068597  0.12624820  0.48684347  1
  O  O267  1  0.24212886  0.13178768  1.00239609  1
  O  O268  1  0.25200658  0.64172106  0.50567445  1
  O  O269  1  0.24342247  0.63207628  0.99365294  1
  O  O270  1  0.74557906  0.12985012  0.49473364  1
  O  O271  1  0.74434005  0.12862084  0.99516158  1
  O  O272  1  0.74264344  0.62917522  0.50015007  1
  O  O273  1  0.73940685  0.62585882  0.99164512  1
  O  O274  1  0.25397171  0.36613678  0.00292810  1
  O  O275  1  0.26532518  0.37572605  0.49747587  1
  O  O276  1  0.24551673  0.86700600  0.01146208  1
  O  O277  1  0.25573644  0.86887663  0.50691625  1
  O  O278  1  0.75586507  0.36843959  0.00325063  1
  O  O279  1  0.76129279  0.37030218  0.49819456  1
  O  O280  1  0.75959644  0.87236861  0.00058087  1
  O  O281  1  0.75693898  0.87562703  0.50806444  1
  O  O282  1  0.13327290  0.49288070  0.24057254  1
  O  O283  1  0.12407406  0.48929327  0.74704012  1
  O  O284  1  0.13777285  1.00506396  0.25300253  1
  O  O285  1  0.13026999  0.99592294  0.74509434  1
  O  O286  1  0.63626568  0.49612782  0.24652138  1
  O  O287  1  0.61833449  0.48959116  0.74176129  1
  O  O288  1  0.62718868  0.99271305  0.24802801  1
  O  O289  1  0.62943082  0.99519997  0.74588009  1
  O  O290  1  0.36770470  0.00450762  0.25631783  1
  O  O291  1  0.37030940  0.00517589  0.75688389  1
  O  O292  1  0.35918748  0.49397014  0.24560733  1
  O  O293  1  0.37808888  0.50643291  0.75599398  1
  O  O294  1  0.86855636  0.00525915  0.25603089  1
  O  O295  1  0.86829259  0.00506611  0.75639738  1
  O  O296  1  0.86394505  0.50292178  0.25014665  1
  O  O297  1  0.88120035  0.51255871  0.75669603  1
  O  O298  1  0.11500769  0.37315269  0.36570063  1
  O  O299  1  0.11732987  0.37314328  0.86603293  1
  O  O300  1  0.11231103  0.86796273  0.37839555  1
  O  O301  1  0.11729648  0.87640836  0.86813861  1
  O  O302  1  0.61866296  0.36605126  0.37483666  1
  O  O303  1  0.62037813  0.36974540  0.86886848  1
  O  O304  1  0.62304625  0.86823065  0.36883493  1
  O  O305  1  0.61918884  0.86941957  0.87002204  1
  O  O306  1  0.37509464  0.13016161  0.13121318  1
  O  O307  1  0.38144795  0.13039741  0.63005227  1
  O  O308  1  0.38102773  0.63498873  0.11906621  1
  O  O309  1  0.38285039  0.63172544  0.63021015  1
  O  O310  1  0.88139077  0.12952079  0.12929266  1
  O  O311  1  0.87829160  0.12772020  0.63451460  1
  O  O312  1  0.88901983  0.62640680  0.12110118  1
  O  O313  1  0.88101847  0.63018828  0.63394374  1
  O  O314  1  0.25458697  0.25386876  0.11557023  1
  O  O315  1  0.26106689  0.25491276  0.62269789  1
  O  O316  1  0.24841538  0.75746841  0.11755727  1
  O  O317  1  0.25447551  0.75696260  0.61951273  1
  O  O318  1  0.75544843  0.25303835  0.11899368  1
  O  O319  1  0.75186944  0.25488535  0.61594724  1
  O  O320  1  0.75340191  0.75343078  0.12291376  1
  O  O321  1  0.75648075  0.75838574  0.62614387  1
  O  O322  1  0.25182636  0.23837694  0.37288700  1
  O  O323  1  0.25120362  0.24612428  0.88804277  1
  O  O324  1  0.24061958  0.75211659  0.38322191  1
  O  O325  1  0.24745039  0.74529296  0.88167791  1
  O  O326  1  0.74551029  0.24396942  0.37971981  1
  O  O327  1  0.74421114  0.24340801  0.88140714  1
  O  O328  1  0.73807842  0.75065799  0.37575286  1
  O  O329  1  0.74279915  0.73812572  0.87802636  1
  O  O330  1  0.00700989  0.12446775  0.00773315  1
  O  O331  1  0.00139168  0.11705405  0.49996460  1
  O  O332  1  0.00449440  0.62024668  0.00524321  1
  O  O333  1  -0.00580284  0.62896602  0.51693103  1
  O  O334  1  0.50601515  0.11224648  0.00091019  1
  O  O335  1  0.50568245  0.11994745  0.50584694  1
  O  O336  1  0.51039645  0.61654337  -0.00658472  1
  O  O337  1  0.50829056  0.62077078  0.50762574  1
  O  O338  1  0.49467364  0.37923532  0.49449448  1
  O  O339  1  0.49448544  0.37724053  0.99313164  1
  O  O340  1  0.49306983  0.88236924  0.50078024  1
  O  O341  1  0.50612280  0.88610631  0.99457196  1
  O  O342  1  0.99136372  0.37257576  0.48859254  1
  O  O343  1  0.99469779  0.37910436  0.99530467  1
  O  O344  1  0.99409121  0.88127753  0.49117962  1
  O  O345  1  0.99278606  0.87649462  0.99499523  1
  O  O346  1  0.50386441  0.49273288  0.38173279  1
  O  O347  1  0.49430458  0.49217383  0.87978619  1
  O  O348  1  0.49293861  0.99958241  0.38327866  1
  O  O349  1  0.49362167  0.99437993  0.88255955  1
  O  O350  1  0.99949617  0.48806598  0.36992931  1
  O  O351  1  0.99301735  0.49538280  0.88101032  1
  O  O352  1  0.99557770  0.99324902  0.37768075  1
  O  O353  1  0.99150316  0.99341180  0.87667631  1
  O  O354  1  -0.00536851  0.01444562  0.12503530  1
  O  O355  1  0.00652239  0.00042844  0.61816530  1
  O  O356  1  0.00394746  0.50699789  0.11932416  1
  O  O357  1  -0.00011818  0.51782250  0.62585556  1
  O  O358  1  0.50210846  -0.00249984  0.11716953  1
  O  O359  1  0.50534191  0.00556958  0.62106901  1
  O  O360  1  0.50254774  0.49825015  0.11590766  1
  O  O361  1  0.51135606  0.50661213  0.61991757  1
  O  O362  1  0.24426769  0.38060428  0.24150774  1
  O  O363  1  0.23836472  0.37589675  0.75076008  1
  O  O364  1  0.24958187  0.88218061  0.24098019  1
  O  O365  1  0.24441683  0.88066525  0.74435376  1
  O  O366  1  0.75040294  0.38232635  0.24254598  1
  O  O367  1  0.73600191  0.36872345  0.75041579  1
  O  O368  1  0.73886420  0.88092118  0.25216766  1
  O  O369  1  0.74454697  0.88059235  0.74680369  1
  O  O370  1  0.25494247  0.11719379  0.25561798  1
  O  O371  1  0.25634827  0.11864410  0.75177997  1
  O  O372  1  0.24258437  0.61020782  0.24363806  1
  O  O373  1  0.25773960  0.62595988  0.75635873  1
  O  O374  1  0.75482814  0.11978065  0.25598517  1
  O  O375  1  0.75408516  0.12036885  0.75646981  1
  O  O376  1  0.75110367  0.61433569  0.24958917  1
  O  O377  1  0.76093955  0.63059605  0.76028516  1
  O  O378  1  0.36671210  0.11932497  0.36935145  1
  O  O379  1  0.37446708  0.11232735  0.86804674  1
  O  O380  1  0.36636494  0.61759829  0.38275058  1
  O  O381  1  0.37005294  0.61865852  0.86882785  1
  O  O382  1  0.87047298  0.11982289  0.36871202  1
  O  O383  1  0.86845442  0.11953381  0.87072526  1
  O  O384  1  0.87203838  0.62236471  0.37340339  1
  O  O385  1  0.86842997  0.62160043  0.86915815  1
  O  O386  1  0.12909544  0.37956824  0.12721501  1
  O  O387  1  0.12519087  0.37692858  0.63726950  1
  O  O388  1  0.14166133  0.87055383  0.12582398  1
  O  O389  1  0.12963161  0.88172490  0.63141538  1
  O  O390  1  0.63476086  0.37493340  0.12587641  1
  O  O391  1  0.62557431  0.38308354  0.63341444  1
  O  O392  1  0.62527340  0.88018429  0.13666076  1
  O  O393  1  0.63003023  0.88106028  0.63186275  1
  O  O394  1  0.11780624  0.25667137  0.24908837  1
  O  O395  1  0.11624254  0.25792611  0.75165486  1
  O  O396  1  0.11257231  0.74778694  0.25975716  1
  O  O397  1  0.11822615  0.75953145  0.75200144  1
  O  O398  1  0.61844080  0.24948266  0.25682266  1
  O  O399  1  0.61944904  0.25630874  0.75595197  1
  O  O400  1  0.61882681  0.75717892  0.25908231  1
  O  O401  1  0.61907219  0.75524773  0.75624315  1
  O  O402  1  0.37940967  0.24427247  0.24370174  1
  O  O403  1  0.38163573  0.24492988  0.74530489  1
  O  O404  1  0.39415594  0.75473988  0.26239327  1
  O  O405  1  0.38064496  0.74530916  0.74432312  1
  O  O406  1  0.87936566  0.24384925  0.24331655  1
  O  O407  1  0.88348076  0.24541324  0.74995131  1
  O  O408  1  0.88956788  0.74783631  0.24871192  1
  O  O409  1  0.88024241  0.74160423  0.74595379  1
  O  O410  1  0.38544139  0.48942553  0.50277250  1
  O  O411  1  0.37937306  0.49165807  0.99266035  1
  O  O412  1  0.37960847  0.99565624  0.49583167  1
  O  O413  1  0.38423411  1.00603243  0.98994838  1
  O  O414  1  0.88209013  0.48961942  0.49745812  1
  O  O415  1  0.88037462  0.49370604  0.99407904  1
  O  O416  1  0.88103474  0.99545126  0.49396596  1
  O  O417  1  0.87549555  0.99004936  0.99394623  1
  O  O418  1  0.12459094  0.01335408  -0.00299544  1
  O  O419  1  0.11901902  0.00028113  0.50677687  1
  O  O420  1  0.11896096  0.50464819  0.00384340  1
  O  O421  1  0.11912958  0.49615590  0.50248287  1
  O  O422  1  0.61629319  0.00330881  0.00549567  1
  O  O423  1  0.62034964  0.00565122  0.50644534  1
  O  O424  1  0.61852811  0.50781751  -0.00105568  1
  O  O425  1  0.62106147  0.50473363  0.50911973  1
  O  O426  1  0.36857650  0.36679423  0.11585137  1
  O  O427  1  0.37998037  0.36914609  0.61566533  1
  O  O428  1  0.35704848  0.86277418  0.12929973  1
  O  O429  1  0.36933702  0.87019997  0.62188831  1
  O  O430  1  0.87013633  0.36807419  0.11744353  1
  O  O431  1  0.87495662  0.37477109  0.61421083  1
  O  O432  1  0.87394360  0.87536654  0.11422139  1
  O  O433  1  0.87027182  0.87142690  0.62129770  1
  O  O434  1  0.13650477  0.12811813  0.37589216  1
  O  O435  1  0.12672932  0.12931379  0.88625780  1
  O  O436  1  0.12877557  0.63852813  0.37281116  1
  O  O437  1  0.13071084  0.62527127  0.87948759  1
  O  O438  1  0.63102528  0.12921411  0.38155202  1
  O  O439  1  0.62978173  0.12937091  0.88030225  1
  O  O440  1  0.62839598  0.63476798  0.38415743  1
  O  O441  1  0.63150611  0.62795664  0.87987725  1
