# generated using pymatgen
data_V93Zn93O256
_symmetry_space_group_name_H-M   'P 1'
_cell_length_a   17.05389512
_cell_length_b   17.05262433
_cell_length_c   17.05272823
_cell_angle_alpha   90.03972800
_cell_angle_beta   90.05155629
_cell_angle_gamma   89.98699352
_symmetry_Int_Tables_number   1
_chemical_formula_structural   V93Zn93O256
_chemical_formula_sum   'V93 Zn93 O256'
_cell_volume   4959.16310022
_cell_formula_units_Z   1
loop_
 _symmetry_equiv_pos_site_id
 _symmetry_equiv_pos_as_xyz
  1  'x, y, z'
loop_
 _atom_site_type_symbol
 _atom_site_label
 _atom_site_symmetry_multiplicity
 _atom_site_fract_x
 _atom_site_fract_y
 _atom_site_fract_z
 _atom_site_occupancy
  V  V0  1  0.49927078  0.62453392  0.62318074  1
  V  V1  1  0.75250585  0.25107333  0.50013616  1
  V  V2  1  0.87421266  0.87586921  0.00177538  1
  V  V3  1  0.49860693  0.49995962  0.49557707  1
  V  V4  1  0.87588562  0.75047957  0.12626751  1
  V  V5  1  0.12285842  0.87386825  0.75191674  1
  V  V6  1  0.62328809  0.00105430  0.62486453  1
  V  V7  1  0.62793947  0.24970423  0.37531075  1
  V  V8  1  -0.00594771  -0.00232862  0.48700305  1
  V  V9  1  0.75038524  0.62490616  0.87478574  1
  V  V10  1  0.00164304  0.25101825  0.25048290  1
  V  V11  1  0.87660786  0.88050784  0.48986708  1
  V  V12  1  0.75074550  0.62553027  0.37538814  1
  V  V13  1  0.36914536  0.75077226  0.61834109  1
  V  V14  1  -0.00129950  0.87423430  0.87608818  1
  V  V15  1  0.62432439  0.75131287  0.87502653  1
  V  V16  1  0.74890596  0.50064029  0.74982215  1
  V  V17  1  0.62438508  0.75081160  0.37556526  1
  V  V18  1  0.74871276  0.00058839  0.75080698  1
  V  V19  1  0.75032231  0.37582256  0.62445054  1
  V  V20  1  0.37392832  0.87477505  0.00001445  1
  V  V21  1  0.00113912  0.37107792  0.86623610  1
  V  V22  1  0.87425003  0.75167838  0.62597355  1
  V  V23  1  0.00117996  0.75325507  0.25755072  1
  V  V24  1  0.87765294  0.50070077  0.37521690  1
  V  V25  1  0.24709145  0.86982941  0.61920662  1
  V  V26  1  -0.00148455  0.75065674  0.75098915  1
  V  V27  1  0.37451413  0.37300290  -0.00144714  1
  V  V28  1  0.87338877  0.00118583  0.87650912  1
  V  V29  1  0.36781048  0.12530424  0.25411013  1
  V  V30  1  0.88118398  0.12934088  0.75055005  1
  V  V31  1  0.12745624  0.12545281  0.49302052  1
  V  V32  1  0.74942380  0.87612585  0.12699232  1
  V  V33  1  0.12578922  0.12548108  0.00005589  1
  V  V34  1  0.62474044  0.12510565  0.49942818  1
  V  V35  1  0.49890313  0.74977649  0.24924878  1
  V  V36  1  0.25152702  0.37231288  0.62263819  1
  V  V37  1  0.62756577  0.37501519  0.24873137  1
  V  V38  1  0.49739809  0.87669014  0.37804103  1
  V  V39  1  0.37208974  0.62212760  0.75004457  1
  V  V40  1  0.75055942  0.49963342  0.24902390  1
  V  V41  1  0.49925545  0.24890018  0.74755355  1
  V  V42  1  0.24885921  0.87403717  0.12625676  1
  V  V43  1  0.50142015  0.24920083  0.24982055  1
  V  V44  1  0.24875545  -0.00112733  0.75029186  1
  V  V45  1  0.87602527  0.62605480  0.25082260  1
  V  V46  1  0.11804833  0.00017837  0.62588042  1
  V  V47  1  0.12610428  0.62427508  -0.00010517  1
  V  V48  1  0.62545310  0.87718949  0.25071328  1
  V  V49  1  0.12556128  0.49995806  0.62352314  1
  V  V50  1  0.12941982  0.49906319  0.12614311  1
  V  V51  1  0.88124543  0.25091363  0.62935702  1
  V  V52  1  0.49975611  0.75123133  0.75104570  1
  V  V53  1  0.24895205  0.62384257  0.87443034  1
  V  V54  1  0.24906415  0.74867328  0.00033630  1
  V  V55  1  0.00133411  0.62519351  0.12563390  1
  V  V56  1  0.87606139  0.12240060  0.25767028  1
  V  V57  1  0.12773514  0.37740524  0.24905659  1
  V  V58  1  0.87596630  0.37439909  -0.00016504  1
  V  V59  1  0.62422862  0.12582615  -0.00003990  1
  V  V60  1  0.37526590  0.37542179  0.49713373  1
  V  V61  1  0.49837983  -0.00112048  0.00019719  1
  V  V62  1  0.36823246  0.00321066  0.37501557  1
  V  V63  1  0.37506115  0.74822212  0.12591310  1
  V  V64  1  -0.00076824  -0.00056245  0.00188549  1
  V  V65  1  0.62494199  0.62529392  0.50002922  1
  V  V66  1  -0.00020056  0.62545244  0.62367786  1
  V  V67  1  0.62467546  0.37518007  0.74844789  1
  V  V68  1  0.75029475  0.75148032  0.50114877  1
  V  V69  1  0.50054555  0.62518580  0.12394993  1
  V  V70  1  0.13057527  0.75075984  0.38117540  1
  V  V71  1  0.49956971  0.37503928  0.87285342  1
  V  V72  1  0.75375908  0.00100470  0.25709001  1
  V  V73  1  0.50127391  0.49989335  -0.00160033  1
  V  V74  1  0.25720207  0.62123865  0.38055839  1
  V  V75  1  0.74961846  0.12598889  0.87701302  1
  V  V76  1  0.00110113  0.49953486  -0.00136818  1
  V  V77  1  0.87414782  0.25138048  0.12402430  1
  V  V78  1  0.62531922  0.24937054  0.87386140  1
  V  V79  1  0.87489957  0.50012860  0.87484202  1
  V  V80  1  0.62472966  0.62443491  0.00021509  1
  V  V81  1  0.50035266  0.12481472  0.12548741  1
  V  V82  1  0.37455716  0.12419894  0.74804246  1
  V  V83  1  0.74966406  0.75037280  0.00082941  1
  V  V84  1  0.12570305  -0.00065864  0.12592913  1
  V  V85  1  0.12154272  0.24898297  0.86626111  1
  V  V86  1  0.00280816  0.37707196  0.37645296  1
  V  V87  1  0.74892149  0.87597297  0.62598109  1
  V  V88  1  0.12264263  0.87460504  0.25523603  1
  V  V89  1  0.24854874  0.12457655  0.87470129  1
  V  V90  1  0.00063638  0.12476834  0.12546906  1
  V  V91  1  0.37531343  0.24978466  0.12383644  1
  V  V92  1  0.49668183  0.37872816  0.37268250  1
  Zn  Zn93  1  0.49633598  0.00133508  0.50122396  1
  Zn  Zn94  1  0.36790801  0.87540794  0.49701139  1
  Zn  Zn95  1  0.49755713  0.12456439  0.62406682  1
  Zn  Zn96  1  0.87676831  0.37579255  0.50098063  1
  Zn  Zn97  1  0.75588233  0.12285289  0.37822241  1
  Zn  Zn98  1  0.62740788  0.49887866  0.12375982  1
  Zn  Zn99  1  0.74834273  0.25166512  0.00018252  1
  Zn  Zn100  1  0.62256305  0.87714998  0.75213514  1
  Zn  Zn101  1  0.37550052  0.24782019  0.62232923  1
  Zn  Zn102  1  0.24904522  0.49665965  0.75032547  1
  Zn  Zn103  1  0.25314366  0.37479216  0.12534832  1
  Zn  Zn104  1  0.37783921  0.61715888  0.25345719  1
  Zn  Zn105  1  0.62637118  0.50026662  0.62397975  1
  Zn  Zn106  1  0.12310706  0.74866321  0.87618189  1
  Zn  Zn107  1  0.37295794  0.49779791  0.87383504  1
  Zn  Zn108  1  0.12448408  0.37003497  0.74539730  1
  Zn  Zn109  1  0.00049877  0.50269923  0.49908662  1
  Zn  Zn110  1  0.62598399  0.00179435  0.12644849  1
  Zn  Zn111  1  0.13273104  0.24439373  0.36979930  1
  Zn  Zn112  1  0.00129752  0.13043866  0.62671185  1
  Zn  Zn113  1  0.37309162  -0.00242396  0.87481027  1
  Zn  Zn114  1  0.24867127  0.25055130  -0.00059391  1
  Zn  Zn115  1  0.25854178  0.23794055  0.49259747  1
  Zn  Zn116  1  0.24707928  0.00243375  0.25351038  1
  Zn  Zn117  1  0.26355340  0.49727718  0.25635016  1
  Zn  Zn118  1  0.87358992  0.62566400  0.75022648  1
  Zn  Zn119  1  0.13178028  0.63212856  0.50289340  1
  Zn  Zn120  1  0.74921015  0.37691748  0.12254689  1
  Zn  Zn121  1  0.49784422  0.87522094  0.87517509  1
  Zn  Zn122  1  0.18935808  0.19107676  0.18442229  1
  Zn  Zn123  1  0.18976134  0.18658678  0.68238554  1
  Zn  Zn124  1  0.19132098  0.68545066  0.19285085  1
  Zn  Zn125  1  0.18527178  0.68777134  0.68929771  1
  Zn  Zn126  1  0.68912706  0.18669441  0.18729208  1
  Zn  Zn127  1  0.69129334  0.18807358  0.68741914  1
  Zn  Zn128  1  0.68598708  0.68766487  0.18782065  1
  Zn  Zn129  1  0.68601147  0.68703848  0.68785127  1
  Zn  Zn130  1  0.31063701  0.31006661  0.31378998  1
  Zn  Zn131  1  0.31058599  0.30891696  0.81141331  1
  Zn  Zn132  1  0.31049670  0.80964623  0.31178673  1
  Zn  Zn133  1  0.31054171  0.81143693  0.81293659  1
  Zn  Zn134  1  0.81402107  0.31259738  0.31265521  1
  Zn  Zn135  1  0.81149872  0.31304205  0.81248121  1
  Zn  Zn136  1  0.81155045  0.81226221  0.31255481  1
  Zn  Zn137  1  0.81145436  0.81352977  0.81199329  1
  Zn  Zn138  1  0.18913370  0.44032933  0.43838576  1
  Zn  Zn139  1  0.18838825  0.43706386  0.93491393  1
  Zn  Zn140  1  0.18361234  0.93959150  0.43802359  1
  Zn  Zn141  1  0.18707581  0.93724576  0.93787251  1
  Zn  Zn142  1  0.68769934  0.43759210  0.43665604  1
  Zn  Zn143  1  0.68852237  0.43597259  0.93726025  1
  Zn  Zn144  1  0.68843622  0.93774433  0.43861984  1
  Zn  Zn145  1  0.68469564  0.93742626  0.93803439  1
  Zn  Zn146  1  0.31173921  0.06218533  0.06450045  1
  Zn  Zn147  1  0.30959384  0.05605986  0.56309328  1
  Zn  Zn148  1  0.31530677  0.56126180  0.06252075  1
  Zn  Zn149  1  0.31245714  0.55986163  0.55976629  1
  Zn  Zn150  1  0.81087785  0.06361295  0.06667644  1
  Zn  Zn151  1  0.81259394  0.06344156  0.56389762  1
  Zn  Zn152  1  0.81290187  0.56198436  0.06282605  1
  Zn  Zn153  1  0.81464248  0.56164238  0.56172190  1
  Zn  Zn154  1  0.44047819  0.43931843  0.18417171  1
  Zn  Zn155  1  0.43877234  0.43761886  0.68301044  1
  Zn  Zn156  1  0.43577171  0.93797648  0.18825761  1
  Zn  Zn157  1  0.43563320  0.93697511  0.68677679  1
  Zn  Zn158  1  0.93969910  0.43848572  0.18816967  1
  Zn  Zn159  1  0.93535750  0.43979719  0.68734391  1
  Zn  Zn160  1  0.93756732  0.93794405  0.19079166  1
  Zn  Zn161  1  0.93423766  0.93725645  0.68688728  1
  Zn  Zn162  1  0.06061428  0.06058485  0.31164005  1
  Zn  Zn163  1  0.06174142  0.06077072  0.81424115  1
  Zn  Zn164  1  0.06745908  0.56578395  0.31359043  1
  Zn  Zn165  1  0.06305195  0.56061624  0.80956896  1
  Zn  Zn166  1  0.56154207  0.06170170  0.31289272  1
  Zn  Zn167  1  0.56049012  0.06271486  0.81392744  1
  Zn  Zn168  1  0.56369540  0.56217720  0.31042805  1
  Zn  Zn169  1  0.56220448  0.56182930  0.81322848  1
  Zn  Zn170  1  0.44011402  0.18865132  0.43534762  1
  Zn  Zn171  1  0.43746449  0.18668731  0.93430911  1
  Zn  Zn172  1  0.43709709  0.68896738  0.43780451  1
  Zn  Zn173  1  0.43604693  0.68691938  0.93744120  1
  Zn  Zn174  1  0.94477412  0.18970921  0.44186598  1
  Zn  Zn175  1  0.93954237  0.18801746  0.93761260  1
  Zn  Zn176  1  0.93780819  0.69070903  0.44012259  1
  Zn  Zn177  1  0.93698680  0.68696331  0.93816587  1
  Zn  Zn178  1  0.06154786  0.31180211  0.05865089  1
  Zn  Zn179  1  0.06317628  0.31277363  0.56179977  1
  Zn  Zn180  1  0.06277561  0.81157361  0.06506804  1
  Zn  Zn181  1  0.05741069  0.81561650  0.56188794  1
  Zn  Zn182  1  0.56199673  0.31261004  0.06255884  1
  Zn  Zn183  1  0.56292409  0.31081625  0.56403550  1
  Zn  Zn184  1  0.56280533  0.81337981  0.06340235  1
  Zn  Zn185  1  0.56057535  0.81248215  0.56364918  1
  O  O186  1  0.11966857  0.12007439  0.12125293  1
  O  O187  1  0.12144486  0.11378235  0.62054285  1
  O  O188  1  0.12134188  0.61673800  0.12124383  1
  O  O189  1  0.11824431  0.61913132  0.62374782  1
  O  O190  1  0.61790201  0.12539769  0.11875545  1
  O  O191  1  0.62717212  0.11669189  0.61706261  1
  O  O192  1  0.61877041  0.62587822  0.11698512  1
  O  O193  1  0.61702426  0.62556697  0.61709931  1
  O  O194  1  0.38946909  0.36931269  0.38267882  1
  O  O195  1  0.38087770  0.37307211  0.88183051  1
  O  O196  1  0.38210910  0.88090855  0.37457427  1
  O  O197  1  0.37586484  0.87681705  0.88343904  1
  O  O198  1  0.88841857  0.38084640  0.37243111  1
  O  O199  1  0.88273009  0.37887463  0.87944099  1
  O  O200  1  0.86815574  0.87163452  0.39095579  1
  O  O201  1  0.87832856  0.88151770  0.88231326  1
  O  O202  1  0.26410906  -0.00687462  0.37326948  1
  O  O203  1  0.24850021  0.00640934  0.86748003  1
  O  O204  1  0.24453035  0.51644405  0.37326482  1
  O  O205  1  0.25294815  0.50700946  0.86960742  1
  O  O206  1  0.74689773  0.00183749  0.36129590  1
  O  O207  1  0.75459443  0.00566848  0.87177128  1
  O  O208  1  0.75656215  0.50649087  0.36960683  1
  O  O209  1  0.75534871  0.50530506  0.87005140  1
  O  O210  1  0.23672101  0.49787423  0.12350617  1
  O  O211  1  0.24280325  0.49145423  0.62517162  1
  O  O212  1  0.24232140  0.99282309  0.12761537  1
  O  O213  1  0.23728481  0.99057665  0.63134911  1
  O  O214  1  0.74906849  0.49817400  0.13324944  1
  O  O215  1  0.74949836  0.49449809  0.63085810  1
  O  O216  1  0.74849804  0.99407007  0.13644770  1
  O  O217  1  0.74056298  0.99637892  0.63055207  1
  O  O218  1  0.00866730  0.37140639  0.25642234  1
  O  O219  1  0.00138888  0.38017714  0.76340516  1
  O  O220  1  0.01022860  0.86456609  0.24392948  1
  O  O221  1  0.00264346  0.87087993  0.75634044  1
  O  O222  1  0.50622518  0.36946019  0.25669793  1
  O  O223  1  0.50417344  0.37001545  0.75304226  1
  O  O224  1  0.50473495  0.87073619  0.25889437  1
  O  O225  1  0.49908999  0.86241640  0.75118861  1
  O  O226  1  0.49301336  0.13042190  0.24495299  1
  O  O227  1  0.48958793  0.12897096  0.74986810  1
  O  O228  1  0.50172534  0.63316351  0.24366801  1
  O  O229  1  0.49220307  0.63237874  0.74475391  1
  O  O230  1  0.99454337  0.12951388  0.24487270  1
  O  O231  1  0.98449664  0.11792651  0.74912064  1
  O  O232  1  0.99611365  0.63337740  0.24450645  1
  O  O233  1  0.99848938  0.63062579  0.73932743  1
  O  O234  1  0.37725064  0.25819559  0.00391335  1
  O  O235  1  0.37784418  0.26112398  0.50167152  1
  O  O236  1  0.36887089  0.75496054  0.00596325  1
  O  O237  1  0.38032788  0.75359354  0.51569262  1
  O  O238  1  0.87683045  0.25418389  0.01008591  1
  O  O239  1  0.87003701  0.25053609  0.50964889  1
  O  O240  1  0.86963610  0.75586802  0.00668337  1
  O  O241  1  0.86956818  0.75877604  0.50665566  1
  O  O242  1  0.11899667  0.22981972  0.50344590  1
  O  O243  1  0.12586976  0.24257108  0.99039607  1
  O  O244  1  0.11521123  0.75325205  0.48490522  1
  O  O245  1  0.13052053  0.74225296  1.00073198  1
  O  O246  1  0.63132684  0.24239361  0.49675761  1
  O  O247  1  0.62401855  0.24358088  0.99186401  1
  O  O248  1  0.62976006  0.74559387  0.49514517  1
  O  O249  1  0.63078807  0.74519042  0.99522960  1
  O  O250  1  0.49453905  0.24430202  0.13092191  1
  O  O251  1  0.49780166  0.24570564  0.63295028  1
  O  O252  1  0.49532395  0.74540943  0.12955592  1
  O  O253  1  0.49154276  0.74544373  0.63310035  1
  O  O254  1  0.99289214  0.24487416  0.12985817  1
  O  O255  1  0.98547006  0.25143553  0.62231419  1
  O  O256  1  0.99514615  0.74442812  0.13417650  1
  O  O257  1  0.99504006  0.74395992  0.63119044  1
  O  O258  1  0.00731303  0.26089481  0.36894682  1
  O  O259  1  0.00915356  0.25992060  0.88022775  1
  O  O260  1  0.00831162  0.74254317  0.36196090  1
  O  O261  1  -0.00081646  0.75668190  0.87010322  1
  O  O262  1  0.50792169  0.25939472  0.36951307  1
  O  O263  1  0.50585623  0.25470881  0.86676053  1
  O  O264  1  0.50444109  0.75822385  0.37052439  1
  O  O265  1  0.50439294  0.74901492  0.86540032  1
  O  O266  1  0.23092065  0.11999665  0.50738106  1
  O  O267  1  0.24325708  0.12431341  0.99323017  1
  O  O268  1  0.24988201  0.62342720  0.48718454  1
  O  O269  1  0.24560303  0.62888115  0.99471095  1
  O  O270  1  0.74126899  0.12998352  0.49823890  1
  O  O271  1  0.74338526  0.12624530  0.99489031  1
  O  O272  1  0.74560816  0.63151151  0.49491963  1
  O  O273  1  0.74556082  0.63127095  0.99509062  1
  O  O274  1  0.26350054  0.37420628  -0.00018165  1
  O  O275  1  0.26246878  0.38100410  0.50690625  1
  O  O276  1  0.25304244  0.86904126  0.00640647  1
  O  O277  1  0.24709914  0.88009837  0.51591746  1
  O  O278  1  0.75962232  0.37172458  0.00147126  1
  O  O279  1  0.75157619  0.36885758  0.50566008  1
  O  O280  1  0.75496320  0.87033165  0.00637928  1
  O  O281  1  0.75525684  0.87092660  0.50680007  1
  O  O282  1  0.12276974  0.49222315  0.23917807  1
  O  O283  1  0.12711156  0.49636941  0.73532846  1
  O  O284  1  0.12492241  0.99127974  0.24564872  1
  O  O285  1  0.12730505  0.99465533  0.74293007  1
  O  O286  1  0.63294046  0.49341085  0.24924057  1
  O  O287  1  0.63054694  0.49378036  0.74796624  1
  O  O288  1  0.63354103  0.99540554  0.24806276  1
  O  O289  1  0.62894621  1.00132661  0.74108709  1
  O  O290  1  0.37367726  0.00848653  0.25710748  1
  O  O291  1  0.36859134  0.00766457  0.75069771  1
  O  O292  1  0.37582353  0.50344524  0.24545242  1
  O  O293  1  0.37554758  0.51339532  0.74754029  1
  O  O294  1  0.86757410  0.01137362  0.24404462  1
  O  O295  1  0.86802363  0.00723582  0.75636086  1
  O  O296  1  0.87168396  0.50746948  0.25487750  1
  O  O297  1  0.86684476  0.50238836  0.75748165  1
  O  O298  1  0.11692321  0.38156708  0.36420104  1
  O  O299  1  0.11845141  0.36681584  0.87267502  1
  O  O300  1  0.13229241  0.86778236  0.36226915  1
  O  O301  1  0.11617877  0.87419976  0.86999951  1
  O  O302  1  0.61701258  0.36904655  0.36995097  1
  O  O303  1  0.61948003  0.36904408  0.86818561  1
  O  O304  1  0.61716725  0.87090978  0.37116822  1
  O  O305  1  0.62058597  0.86693403  0.87296116  1
  O  O306  1  0.38131980  0.12945820  0.13324000  1
  O  O307  1  0.37308452  0.12368661  0.63562814  1
  O  O308  1  0.38365229  0.63288638  0.12229243  1
  O  O309  1  0.37783786  0.63169459  0.63078152  1
  O  O310  1  0.88118109  0.13361394  0.13296692  1
  O  O311  1  0.87399552  0.13355537  0.63452835  1
  O  O312  1  0.88095532  0.63119813  0.13070776  1
  O  O313  1  0.88334853  0.63215684  0.62612984  1
  O  O314  1  0.25946909  0.25417103  0.11944820  1
  O  O315  1  0.25054653  0.26058718  0.61477412  1
  O  O316  1  0.25449011  0.75358043  0.11963092  1
  O  O317  1  0.25745272  0.75882834  0.63262318  1
  O  O318  1  0.76390725  0.25162880  0.12413202  1
  O  O319  1  0.75882908  0.25622515  0.61982127  1
  O  O320  1  0.75633166  0.75538513  0.12109706  1
  O  O321  1  0.75344029  0.75509295  0.61983029  1
  O  O322  1  0.24251039  0.25810632  0.38382103  1
  O  O323  1  0.23974256  0.24295876  0.87753511  1
  O  O324  1  0.23889258  0.73940080  0.36970797  1
  O  O325  1  0.24643891  0.74272126  0.88221373  1
  O  O326  1  0.74501446  0.24885158  0.38154160  1
  O  O327  1  0.74310585  0.24368172  0.87648605  1
  O  O328  1  0.74393447  0.74494640  0.38101989  1
  O  O329  1  0.74523060  0.74555873  0.88121627  1
  O  O330  1  0.00509855  0.11839233  0.00591045  1
  O  O331  1  0.00761366  0.11469407  0.50625165  1
  O  O332  1  0.00551595  0.61973346  0.00590141  1
  O  O333  1  0.00253841  0.62685932  0.51420525  1
  O  O334  1  0.50315348  0.11743862  0.00449716  1
  O  O335  1  0.51330642  0.12462972  0.50221349  1
  O  O336  1  0.50554780  0.62036414  0.00315473  1
  O  O337  1  0.50384742  0.61785067  0.50168891  1
  O  O338  1  0.49671440  0.38069203  0.49301406  1
  O  O339  1  0.49301302  0.37875066  0.99265261  1
  O  O340  1  0.49842054  0.87554631  0.48711636  1
  O  O341  1  0.49363515  0.88356058  1.00144701  1
  O  O342  1  1.00145287  0.37679328  0.48656125  1
  O  O343  1  0.99576112  0.38119972  0.99013493  1
  O  O344  1  0.98739150  0.88567280  0.50699826  1
  O  O345  1  0.99360566  0.87973385  0.99747218  1
  O  O346  1  0.50808695  0.48948916  0.38387073  1
  O  O347  1  0.49662622  0.49295579  0.87994300  1
  O  O348  1  0.49125833  0.99008088  0.37479491  1
  O  O349  1  0.49720739  0.99865517  0.88824448  1
  O  O350  1  0.99660052  0.49389053  0.37393618  1
  O  O351  1  0.99576357  0.49281476  0.87979624  1
  O  O352  1  1.00086148  1.00017800  0.38803033  1
  O  O353  1  0.99295174  0.99415225  0.88258672  1
  O  O354  1  0.00543137  0.00500670  0.12113326  1
  O  O355  1  0.01101700  -0.00128918  0.62237761  1
  O  O356  1  0.00897276  0.50528866  0.11943097  1
  O  O357  1  0.00618793  0.50876124  0.62520375  1
  O  O358  1  0.50058714  0.00518021  0.11582942  1
  O  O359  1  0.51078021  0.00097890  0.62321891  1
  O  O360  1  0.50568631  0.50746620  0.11508848  1
  O  O361  1  0.50344665  0.50594778  0.61324864  1
  O  O362  1  0.23870870  0.37814491  0.24733929  1
  O  O363  1  0.25102586  0.37505335  0.73555298  1
  O  O364  1  0.23874757  0.87407873  0.24269442  1
  O  O365  1  0.24279282  0.87927406  0.74272577  1
  O  O366  1  0.74551889  0.38171955  0.24977370  1
  O  O367  1  0.74387316  0.38085706  0.74522324  1
  O  O368  1  0.74679634  0.88205955  0.24670701  1
  O  O369  1  0.74688551  0.88263514  0.74418731  1
  O  O370  1  0.26408473  0.12461037  0.24516106  1
  O  O371  1  0.25631000  0.11928876  0.75330003  1
  O  O372  1  0.25281790  0.62106920  0.26252684  1
  O  O373  1  0.25878687  0.62521014  0.75454621  1
  O  O374  1  0.75893269  0.11809076  0.25125577  1
  O  O375  1  0.75835745  0.11926503  0.75719494  1
  O  O376  1  0.75612748  0.62207080  0.25618530  1
  O  O377  1  0.74999182  0.61983233  0.75708245  1
  O  O378  1  0.38436581  0.11551718  0.36498587  1
  O  O379  1  0.36778941  0.12340360  0.86389949  1
  O  O380  1  0.36087551  0.63438664  0.37442835  1
  O  O381  1  0.36901013  0.62455467  0.86474522  1
  O  O382  1  0.87755498  0.13525504  0.36041854  1
  O  O383  1  0.87054864  0.12093459  0.87001499  1
  O  O384  1  0.87047266  0.62237019  0.37010511  1
  O  O385  1  0.86837944  0.61823634  0.87494280  1
  O  O386  1  0.12263386  0.38275787  0.13192167  1
  O  O387  1  0.13288708  0.38075643  0.62376819  1
  O  O388  1  0.12883481  0.87948930  0.13348084  1
  O  O389  1  0.12888193  0.88038495  0.63119983  1
  O  O390  1  0.62759499  0.37565462  0.13304597  1
  O  O391  1  0.63212625  0.37574771  0.63133980  1
  O  O392  1  0.63211626  0.87558417  0.13316874  1
  O  O393  1  0.62955014  0.88533369  0.62468586  1
  O  O394  1  0.11948660  0.26039552  0.24719783  1
  O  O395  1  0.12858977  0.24786412  0.76214434  1
  O  O396  1  0.11788374  0.75646232  0.25580020  1
  O  O397  1  0.11621955  0.75668244  0.75269553  1
  O  O398  1  0.62106966  0.25408810  0.25518766  1
  O  O399  1  0.62045227  0.25460913  0.75425842  1
  O  O400  1  0.62036227  0.75701527  0.25690662  1
  O  O401  1  0.61388810  0.75028488  0.75450944  1
  O  O402  1  0.38157852  0.24354757  0.24587889  1
  O  O403  1  0.37950007  0.23901864  0.74761363  1
  O  O404  1  0.38267972  0.74872166  0.24231541  1
  O  O405  1  0.38153047  0.74112826  0.74228478  1
  O  O406  1  0.88164273  0.24394980  0.24135912  1
  O  O407  1  0.86712810  0.23984430  0.74184319  1
  O  O408  1  0.88260060  0.74662469  0.24672511  1
  O  O409  1  0.88031332  0.74940228  0.74379936  1
  O  O410  1  0.38908631  0.48915106  0.50313749  1
  O  O411  1  0.38205996  0.48907460  0.99836401  1
  O  O412  1  0.37774887  0.99800532  0.49104879  1
  O  O413  1  0.38310331  0.99459967  1.00033981  1
  O  O414  1  0.87936620  0.49688426  0.49114909  1
  O  O415  1  0.88173046  0.49505365  0.99474013  1
  O  O416  1  0.88244497  0.99274437  0.50877459  1
  O  O417  1  0.87941450  0.99580806  0.99721129  1
  O  O418  1  0.11821659  0.00486633  0.00605709  1
  O  O419  1  0.11547931  0.00594750  0.50667514  1
  O  O420  1  0.12041199  0.50342106  0.00780463  1
  O  O421  1  0.12192913  0.50236873  0.51394706  1
  O  O422  1  0.61512501  0.00608333  0.00273331  1
  O  O423  1  0.62548456  0.00859438  0.50777523  1
  O  O424  1  0.61954451  0.50661213  -0.00125319  1
  O  O425  1  0.61624831  0.50657786  0.50060467  1
  O  O426  1  0.37829425  0.36784621  0.11345961  1
  O  O427  1  0.36863173  0.37366203  0.61493560  1
  O  O428  1  0.36870152  0.86898864  0.12030205  1
  O  O429  1  0.36425758  0.86766992  0.62596155  1
  O  O430  1  0.87925441  0.36551512  0.12012208  1
  O  O431  1  0.86929987  0.36735018  0.62524288  1
  O  O432  1  0.87002962  0.86977642  0.12129618  1
  O  O433  1  0.86666192  0.86974950  0.61963292  1
  O  O434  1  0.12026295  0.12280999  0.38955962  1
  O  O435  1  0.12721692  0.13064728  0.87955917  1
  O  O436  1  0.13408610  0.63392127  0.37844138  1
  O  O437  1  0.12995118  0.62444313  0.88168795  1
  O  O438  1  0.62568991  0.13064871  0.38441798  1
  O  O439  1  0.62983693  0.13005988  0.87971560  1
  O  O440  1  0.63064724  0.63158396  0.38020773  1
  O  O441  1  0.63055582  0.63130788  0.88058185  1
