# generated using pymatgen
data_V93Zn93O256
_symmetry_space_group_name_H-M   'P 1'
_cell_length_a   17.05988221
_cell_length_b   17.05552634
_cell_length_c   17.06326237
_cell_angle_alpha   89.98354414
_cell_angle_beta   90.04879031
_cell_angle_gamma   90.03125456
_symmetry_Int_Tables_number   1
_chemical_formula_structural   V93Zn93O256
_chemical_formula_sum   'V93 Zn93 O256'
_cell_volume   4964.81400612
_cell_formula_units_Z   1
loop_
 _symmetry_equiv_pos_site_id
 _symmetry_equiv_pos_as_xyz
  1  'x, y, z'
loop_
 _atom_site_type_symbol
 _atom_site_label
 _atom_site_symmetry_multiplicity
 _atom_site_fract_x
 _atom_site_fract_y
 _atom_site_fract_z
 _atom_site_occupancy
  V  V0  1  0.62366731  0.50100755  0.12701350  1
  V  V1  1  0.37329594  0.25027569  0.12576567  1
  V  V2  1  0.62594611  0.12379171  0.49986925  1
  V  V3  1  0.87454426  0.87358933  0.49812652  1
  V  V4  1  0.50038324  0.49833710  0.50149994  1
  V  V5  1  0.50053145  0.62385754  0.62691563  1
  V  V6  1  0.00034350  0.37487904  0.37545647  1
  V  V7  1  0.75902544  0.37148872  0.12543024  1
  V  V8  1  0.37262760  0.74904602  0.62336409  1
  V  V9  1  0.62573664  -0.00042284  0.62693772  1
  V  V10  1  0.37431166  0.75026314  0.12372198  1
  V  V11  1  0.24661091  -0.00504799  0.74747702  1
  V  V12  1  0.37576775  0.62469116  0.74978191  1
  V  V13  1  0.75196916  0.37260800  0.62607282  1
  V  V14  1  0.62509741  0.87566937  0.75034226  1
  V  V15  1  0.62392887  0.74915856  0.37660473  1
  V  V16  1  0.12597496  0.75607373  0.86830751  1
  V  V17  1  0.62636338  0.37261626  0.75212786  1
  V  V18  1  0.24642697  0.86972906  0.62287672  1
  V  V19  1  0.25047342  0.62574406  0.87305894  1
  V  V20  1  0.87304176  0.50016339  0.37761320  1
  V  V21  1  0.37617697  0.49961798  0.87583808  1
  V  V22  1  0.37056767  0.86977607  0.49876710  1
  V  V23  1  0.74927121  0.50519390  0.25353852  1
  V  V24  1  0.49995041  0.49993387  0.00137010  1
  V  V25  1  0.49972866  -0.00186703  0.50061499  1
  V  V26  1  0.24714539  0.00078807  0.24893508  1
  V  V27  1  0.25004357  0.24940564  -0.00027019  1
  V  V28  1  0.87582886  -0.00013888  0.37305177  1
  V  V29  1  0.50129041  0.75004607  0.75088780  1
  V  V30  1  0.00156186  0.62545949  0.62343875  1
  V  V31  1  0.25103618  0.75179073  -0.00209336  1
  V  V32  1  0.12549728  0.37638910  0.24979820  1
  V  V33  1  0.74916163  0.75031979  0.50145109  1
  V  V34  1  0.12602825  0.62627271  -0.00120878  1
  V  V35  1  0.62565249  0.75035144  0.87437145  1
  V  V36  1  -0.00136034  0.86507294  0.36904279  1
  V  V37  1  0.12062387  0.12242901  -0.00160209  1
  V  V38  1  0.13786781  0.74687427  0.37482005  1
  V  V39  1  -0.00278707  0.12414569  0.62418681  1
  V  V40  1  0.00094090  0.50063973  0.50055891  1
  V  V41  1  0.75899502  0.00308478  0.75793753  1
  V  V42  1  0.62480379  0.24913034  0.37628327  1
  V  V43  1  0.62461022  0.62607770  0.00059227  1
  V  V44  1  0.49800814  0.62608878  0.12636417  1
  V  V45  1  0.25030911  0.24811445  0.49982059  1
  V  V46  1  0.49818044  0.12623259  0.12598653  1
  V  V47  1  0.88066164  0.74826958  0.13091698  1
  V  V48  1  0.49958887  0.00001154  -0.00014520  1
  V  V49  1  0.36950371  0.50474775  0.37584828  1
  V  V50  1  0.74810629  0.00017595  0.25049642  1
  V  V51  1  0.62378544  0.87580366  0.25052276  1
  V  V52  1  0.75018838  0.75212679  0.00084584  1
  V  V53  1  0.12611551  -0.00536297  0.62250964  1
  V  V54  1  0.24983183  0.37590337  0.12546382  1
  V  V55  1  0.37611446  0.24667486  0.62580868  1
  V  V56  1  0.12791673  0.50063695  0.12396814  1
  V  V57  1  0.00242998  0.50450550  0.00061773  1
  V  V58  1  0.49892438  0.75010406  0.24879384  1
  V  V59  1  0.37577109  0.37310370  0.50063609  1
  V  V60  1  0.87554911  0.37352760  0.50257211  1
  V  V61  1  0.24976065  0.49849711  0.74914456  1
  V  V62  1  0.25017598  0.37346231  0.62641310  1
  V  V63  1  0.24862457  0.12404272  0.37327054  1
  V  V64  1  0.00325654  0.75663973  0.74774428  1
  V  V65  1  0.62713288  0.12887066  -0.00149180  1
  V  V66  1  0.75141511  0.62516660  0.87566620  1
  V  V67  1  0.11820847  0.86781595  0.24762486  1
  V  V68  1  -0.00471065  0.87861222  0.87942488  1
  V  V69  1  0.74816146  0.87459103  0.12590236  1
  V  V70  1  0.24812511  0.87548304  0.12285306  1
  V  V71  1  0.87552354  0.13331149  0.24633819  1
  V  V72  1  0.12505156  0.12283272  0.49711388  1
  V  V73  1  0.50073008  0.37361001  0.37644741  1
  V  V74  1  0.24869170  0.12360297  0.87346340  1
  V  V75  1  0.00032683  -0.00204799  0.49677377  1
  V  V76  1  0.87577440  0.75069904  0.62347400  1
  V  V77  1  0.75009861  0.12519108  0.37524385  1
  V  V78  1  0.62499084  0.62552935  0.50150706  1
  V  V79  1  0.12337929  0.25028086  0.37270250  1
  V  V80  1  0.12611173  0.25103496  0.87256231  1
  V  V81  1  0.50169928  0.37169433  0.87718037  1
  V  V82  1  0.87525872  0.50126277  0.87579276  1
  V  V83  1  0.62539264  0.49851111  0.62635746  1
  V  V84  1  0.62310651  0.37510271  0.25221714  1
  V  V85  1  0.11693107  0.00044039  0.11912121  1
  V  V86  1  0.49835980  0.87495837  0.37556624  1
  V  V87  1  0.00340221  0.37755457  0.87146151  1
  V  V88  1  -0.00428261  0.13083954  0.12154790  1
  V  V89  1  0.37463204  -0.00076034  0.87414198  1
  V  V90  1  0.37284141  0.12478451  0.24978260  1
  V  V91  1  0.49986394  0.12457079  0.62622259  1
  V  V92  1  0.13732534  0.62853958  0.49436013  1
  Zn  Zn93  1  0.88264745  0.63185454  0.25908249  1
  Zn  Zn94  1  0.75120202  0.87633174  0.62617158  1
  Zn  Zn95  1  0.88117989  0.37350835  0.00777242  1
  Zn  Zn96  1  0.87478611  0.62740859  0.75092628  1
  Zn  Zn97  1  0.49942322  0.87410403  0.87531186  1
  Zn  Zn98  1  0.87331507  0.88022613  -0.00008427  1
  Zn  Zn99  1  0.75205099  0.50102653  0.75180350  1
  Zn  Zn100  1  0.00681762  0.63500886  0.13351069  1
  Zn  Zn101  1  0.37642324  0.12444289  0.74877467  1
  Zn  Zn102  1  0.76031862  0.24752015  0.00220114  1
  Zn  Zn103  1  0.62339238  0.00083802  0.12572463  1
  Zn  Zn104  1  0.76434994  0.12672440  0.88248425  1
  Zn  Zn105  1  -0.06057083  0.04127269  -0.06215168  1
  Zn  Zn106  1  0.49831156  0.24960138  0.25100538  1
  Zn  Zn107  1  0.49981081  0.24565261  0.75302671  1
  Zn  Zn108  1  0.75255413  0.24715634  0.50135871  1
  Zn  Zn109  1  0.24772557  0.50810131  0.25664829  1
  Zn  Zn110  1  0.37486247  0.87559798  -0.00020945  1
  Zn  Zn111  1  0.36771375  0.62869371  0.25769840  1
  Zn  Zn112  1  0.37319745  -0.00066209  0.37486367  1
  Zn  Zn113  1  0.88165440  0.12612556  0.76048363  1
  Zn  Zn114  1  0.12650793  0.37462949  0.74648849  1
  Zn  Zn115  1  0.63295692  0.24940870  0.87739143  1
  Zn  Zn116  1  0.12690681  0.49968383  0.62344660  1
  Zn  Zn117  1  0.75048396  0.62580851  0.37749211  1
  Zn  Zn118  1  0.00097726  0.24952148  0.74744181  1
  Zn  Zn119  1  -0.00455920  0.25578983  0.24436889  1
  Zn  Zn120  1  0.37546163  0.37453744  0.00181866  1
  Zn  Zn121  1  0.87632882  0.24767643  0.62792028  1
  Zn  Zn122  1  0.18432260  0.18878928  0.18643627  1
  Zn  Zn123  1  0.18605033  0.18433224  0.68746647  1
  Zn  Zn124  1  0.19012003  0.68646257  0.18747153  1
  Zn  Zn125  1  0.18687797  0.68623443  0.68529682  1
  Zn  Zn126  1  0.68484077  0.18809506  0.18817334  1
  Zn  Zn127  1  0.68817950  0.18613334  0.68978994  1
  Zn  Zn128  1  0.68799772  0.68924542  0.18755727  1
  Zn  Zn129  1  0.68975075  0.68709454  0.68855528  1
  Zn  Zn130  1  0.31171452  0.31486196  0.31200091  1
  Zn  Zn131  1  0.31462681  0.31119506  0.81159387  1
  Zn  Zn132  1  0.31184062  0.81432525  0.30790827  1
  Zn  Zn133  1  0.31351485  0.81395392  0.80905667  1
  Zn  Zn134  1  0.80989781  0.31459538  0.31403230  1
  Zn  Zn135  1  0.81646829  0.30771316  0.81375626  1
  Zn  Zn136  1  0.80942434  0.81191609  0.31246566  1
  Zn  Zn137  1  0.81391345  0.81334340  0.81009343  1
  Zn  Zn138  1  0.18611880  0.43757135  0.44072774  1
  Zn  Zn139  1  0.18907984  0.43681317  0.93757511  1
  Zn  Zn140  1  0.18692819  0.93448934  0.43520155  1
  Zn  Zn141  1  0.18464256  0.93657922  0.93621784  1
  Zn  Zn142  1  0.68756468  0.43660510  0.44005888  1
  Zn  Zn143  1  0.68761317  0.43886717  0.94057314  1
  Zn  Zn144  1  0.68756212  0.93689308  0.43745103  1
  Zn  Zn145  1  0.68679554  0.93805436  0.93761093  1
  Zn  Zn146  1  0.30956021  0.06305049  0.06251190  1
  Zn  Zn147  1  0.31397869  0.05937454  0.56088436  1
  Zn  Zn148  1  0.31279821  0.56377588  0.06291109  1
  Zn  Zn149  1  0.31455454  0.55936683  0.56336546  1
  Zn  Zn150  1  0.80998485  0.06044161  0.06625238  1
  Zn  Zn151  1  0.81171415  0.05838523  0.56358645  1
  Zn  Zn152  1  0.81195985  0.56258328  0.06305428  1
  Zn  Zn153  1  0.81234034  0.56186778  0.56338027  1
  Zn  Zn154  1  0.43503944  0.43784714  0.19117278  1
  Zn  Zn155  1  0.43759765  0.43473423  0.68943066  1
  Zn  Zn156  1  0.43485289  0.93790432  0.18667061  1
  Zn  Zn157  1  0.43623045  0.93636059  0.68729715  1
  Zn  Zn158  1  0.94299130  0.45313499  0.19538176  1
  Zn  Zn159  1  0.93725900  0.44050025  0.68910040  1
  Zn  Zn160  1  0.93344445  0.94067460  0.18401540  1
  Zn  Zn161  1  0.93925704  0.93577033  0.68654079  1
  Zn  Zn162  1  0.05977893  0.06018328  0.30754692  1
  Zn  Zn163  1  0.06855661  0.06144675  0.80601496  1
  Zn  Zn164  1  0.06298918  0.56461839  0.31174785  1
  Zn  Zn165  1  0.06503083  0.56572260  0.80914024  1
  Zn  Zn166  1  0.56031482  0.06215330  0.31348391  1
  Zn  Zn167  1  0.56574300  0.06258927  0.81310145  1
  Zn  Zn168  1  0.55828675  0.56330157  0.31459090  1
  Zn  Zn169  1  0.56401253  0.56035328  0.81342368  1
  Zn  Zn170  1  0.43742409  0.18573235  0.43723392  1
  Zn  Zn171  1  0.43702624  0.18670389  0.93884124  1
  Zn  Zn172  1  0.43845576  0.68754735  0.43941739  1
  Zn  Zn173  1  0.43772767  0.68739462  0.93810610  1
  Zn  Zn174  1  0.93672446  0.18926903  0.43757504  1
  Zn  Zn175  1  0.93432634  0.20406073  0.94005529  1
  Zn  Zn176  1  0.93930033  0.68557579  0.43871416  1
  Zn  Zn177  1  0.93607259  0.69150930  0.94074741  1
  Zn  Zn178  1  0.06416153  0.31327574  0.05941646  1
  Zn  Zn179  1  0.06464699  0.31124612  0.56160052  1
  Zn  Zn180  1  0.06385114  0.81238163  0.05808043  1
  Zn  Zn181  1  0.06410537  0.80961779  0.55591889  1
  Zn  Zn182  1  0.56515200  0.31202034  0.06605397  1
  Zn  Zn183  1  0.56339387  0.30895324  0.56316372  1
  Zn  Zn184  1  0.56263773  0.81393199  0.06226394  1
  Zn  Zn185  1  0.56115043  0.81316631  0.56474946  1
  O  O186  1  0.11751856  0.11730853  0.11961616  1
  O  O187  1  0.11839999  0.11569160  0.61619454  1
  O  O188  1  0.12373935  0.62049458  0.11543627  1
  O  O189  1  0.11475424  0.62734162  0.61502057  1
  O  O190  1  0.61727482  0.12288521  0.11761661  1
  O  O191  1  0.62002606  0.11959013  0.61951565  1
  O  O192  1  0.61861222  0.62109792  0.12018331  1
  O  O193  1  0.61975552  0.61872920  0.62208497  1
  O  O194  1  0.38190531  0.37946140  0.38258439  1
  O  O195  1  0.38641992  0.38036395  0.87622139  1
  O  O196  1  0.37917102  0.87452327  0.38302800  1
  O  O197  1  0.37577366  0.88771658  0.87657692  1
  O  O198  1  0.87935739  0.38020217  0.38240842  1
  O  O199  1  0.88603499  0.38732302  0.87585799  1
  O  O200  1  0.88134142  0.87903854  0.37655426  1
  O  O201  1  0.89186478  0.86917115  0.87539604  1
  O  O202  1  0.24860012  0.00591179  0.36703679  1
  O  O203  1  0.25442954  0.00196419  0.86707022  1
  O  O204  1  0.26544526  0.49099032  0.37813111  1
  O  O205  1  0.25647534  0.50606120  0.87027112  1
  O  O206  1  0.75560622  0.00519610  0.36969218  1
  O  O207  1  0.74670198  0.00201291  0.86087707  1
  O  O208  1  0.75288524  0.50045401  0.36911475  1
  O  O209  1  0.76070864  0.50490719  0.87842042  1
  O  O210  1  0.24289077  0.49223552  0.12019158  1
  O  O211  1  0.25185312  0.49132723  0.63206289  1
  O  O212  1  0.23861436  0.99573368  0.12918749  1
  O  O213  1  0.24707241  0.99147913  0.62968943  1
  O  O214  1  0.74306522  0.49593385  0.13515847  1
  O  O215  1  0.74462626  0.48938648  0.62771494  1
  O  O216  1  0.74521912  0.99172630  0.13494571  1
  O  O217  1  0.74318584  0.99806623  0.63573295  1
  O  O218  1  0.00610181  0.37603979  0.25682050  1
  O  O219  1  0.00431969  0.37875685  0.76162855  1
  O  O220  1  0.00906808  0.88403729  0.25783995  1
  O  O221  1  -0.00171923  0.86242673  0.75696621  1
  O  O222  1  0.50670337  0.37389837  0.25816159  1
  O  O223  1  0.50950038  0.37471979  0.76024723  1
  O  O224  1  0.50377669  0.87048938  0.25506503  1
  O  O225  1  0.50583523  0.86796616  0.75135031  1
  O  O226  1  0.49168231  0.12483039  0.24387521  1
  O  O227  1  0.49932999  0.12541448  0.74208869  1
  O  O228  1  0.49776563  0.63308590  0.24309133  1
  O  O229  1  0.49570760  0.62875013  0.74565364  1
  O  O230  1  0.99140803  0.12740970  0.24201240  1
  O  O231  1  1.00159148  0.12062428  0.73509870  1
  O  O232  1  0.98643661  0.59385399  0.23570156  1
  O  O233  1  0.99979641  0.63503665  0.73911897  1
  O  O234  1  0.36735081  0.24987420  0.00722544  1
  O  O235  1  0.36921704  0.25385871  0.50510821  1
  O  O236  1  0.36866717  0.75310902  0.00376268  1
  O  O237  1  0.38210851  0.76176366  0.50727387  1
  O  O238  1  0.87261481  0.26227630  0.00929992  1
  O  O239  1  0.87261176  0.25800142  0.50540650  1
  O  O240  1  0.86727197  0.75634324  0.01000642  1
  O  O241  1  0.86976309  0.75484192  0.50376540  1
  O  O242  1  0.13151433  0.24265554  0.49260106  1
  O  O243  1  0.13089375  0.24273459  0.99216855  1
  O  O244  1  0.12018817  0.74025937  0.48661639  1
  O  O245  1  0.13132816  0.74492998  0.98962353  1
  O  O246  1  0.62781842  0.24138638  0.49415646  1
  O  O247  1  0.62854864  0.23945212  1.00221797  1
  O  O248  1  0.62835415  0.74551838  0.49686307  1
  O  O249  1  0.62939466  0.74471538  0.99452961  1
  O  O250  1  0.49189522  0.24381734  0.12703972  1
  O  O251  1  0.49366299  0.24223189  0.62574146  1
  O  O252  1  0.49479415  0.74641704  0.12904166  1
  O  O253  1  0.49413810  0.74296079  0.63175366  1
  O  O254  1  1.00868112  0.23515632  0.12591012  1
  O  O255  1  1.00289768  0.23573280  0.62340561  1
  O  O256  1  0.98482450  0.75266243  0.11948338  1
  O  O257  1  0.99757841  0.74515475  0.62951599  1
  O  O258  1  0.00675986  0.25769970  0.37420674  1
  O  O259  1  0.00862138  0.26426587  0.87423462  1
  O  O260  1  0.00181064  0.76243542  0.37454025  1
  O  O261  1  0.00715571  0.75577266  0.86687199  1
  O  O262  1  0.50640569  0.25592350  0.37533462  1
  O  O263  1  0.50289260  0.26178711  0.87618658  1
  O  O264  1  0.50462899  0.75592066  0.36946333  1
  O  O265  1  0.50695345  0.74992984  0.86864305  1
  O  O266  1  0.24453857  0.12798781  0.49388395  1
  O  O267  1  0.24208645  0.12946036  0.99314045  1
  O  O268  1  0.23573742  0.61975715  0.50672348  1
  O  O269  1  0.24567309  0.63175660  0.99152946  1
  O  O270  1  0.74401032  0.12320990  0.49344397  1
  O  O271  1  0.73837467  0.12441405  1.00324930  1
  O  O272  1  0.74186261  0.63140663  0.50159470  1
  O  O273  1  0.74313376  0.63084751  0.99538398  1
  O  O274  1  0.25148396  0.36694593  0.00596781  1
  O  O275  1  0.25594925  0.36720143  0.50631004  1
  O  O276  1  0.24964248  0.86920446  0.00533268  1
  O  O277  1  0.26148040  0.88122993  0.50860008  1
  O  O278  1  0.74848592  0.38094130  0.01981547  1
  O  O279  1  0.75533757  0.37437130  0.51136613  1
  O  O280  1  0.74671933  0.86879871  0.00782109  1
  O  O281  1  0.75692604  0.86861866  0.50105042  1
  O  O282  1  0.12737847  0.49236456  0.24247037  1
  O  O283  1  0.13546278  0.50026931  0.74627651  1
  O  O284  1  0.12883421  0.99098915  0.24030126  1
  O  O285  1  0.13982568  1.00046407  0.73949237  1
  O  O286  1  0.63089960  0.49607952  0.24830657  1
  O  O287  1  0.62656122  0.48846532  0.74533015  1
  O  O288  1  0.62993759  0.99342018  0.25056673  1
  O  O289  1  0.63334828  0.99483232  0.74560474  1
  O  O290  1  0.36509625  0.00612985  0.25035360  1
  O  O291  1  0.36671691  0.00113213  0.75807525  1
  O  O292  1  0.37425152  0.50190142  0.26343671  1
  O  O293  1  0.37115495  0.50576311  0.75613230  1
  O  O294  1  0.86794747  0.00869913  0.25539754  1
  O  O295  1  0.86126369  -0.00123611  0.74544528  1
  O  O296  1  0.85928971  0.49823422  0.26045540  1
  O  O297  1  0.87554708  0.50532656  0.76418347  1
  O  O298  1  0.11988784  0.37037241  0.37074066  1
  O  O299  1  0.11862650  0.37080504  0.87306927  1
  O  O300  1  0.11721547  0.86749886  0.36724881  1
  O  O301  1  0.11722715  0.86162327  0.87652985  1
  O  O302  1  0.62014225  0.36974791  0.37254992  1
  O  O303  1  0.61838492  0.37708795  0.86873518  1
  O  O304  1  0.61810554  0.86878881  0.37080382  1
  O  O305  1  0.62285567  0.86743152  0.86837386  1
  O  O306  1  0.37745529  0.13036692  0.13014948  1
  O  O307  1  0.38190177  0.12895259  0.62342681  1
  O  O308  1  0.38312976  0.63362908  0.12250743  1
  O  O309  1  0.38104474  0.62884407  0.63024436  1
  O  O310  1  0.88440941  0.11890176  0.13647010  1
  O  O311  1  0.88927740  0.12201451  0.62200541  1
  O  O312  1  0.87280768  0.64186444  0.12220679  1
  O  O313  1  0.88676904  0.63127846  0.62362082  1
  O  O314  1  0.25315626  0.25517896  0.11898433  1
  O  O315  1  0.25524862  0.25212049  0.61881806  1
  O  O316  1  0.25379887  0.75670855  0.11667417  1
  O  O317  1  0.25726501  0.76087865  0.63291885  1
  O  O318  1  0.74594391  0.26985631  0.13096205  1
  O  O319  1  0.75058857  0.26229933  0.62494674  1
  O  O320  1  0.75598221  0.75570813  0.11985783  1
  O  O321  1  0.75730187  0.75213778  0.61964797  1
  O  O322  1  0.24390462  0.24448467  0.38065778  1
  O  O323  1  0.24641622  0.24341909  0.87926920  1
  O  O324  1  0.23652195  0.75613154  0.37139326  1
  O  O325  1  0.24407709  0.74653818  0.87549769  1
  O  O326  1  0.74275109  0.24293147  0.37725344  1
  O  O327  1  0.74920270  0.24572526  0.88171808  1
  O  O328  1  0.74169284  0.74825186  0.38250147  1
  O  O329  1  0.74552201  0.74543733  0.88011297  1
  O  O330  1  0.00466949  0.12452191  0.00587576  1
  O  O331  1  0.00569071  0.11736760  0.50395112  1
  O  O332  1  0.00658312  0.61725530  -0.00005155  1
  O  O333  1  0.00580648  0.62035476  0.50882285  1
  O  O334  1  0.50565290  0.11769915  0.00527477  1
  O  O335  1  0.50592722  0.11749575  0.50487642  1
  O  O336  1  0.50613364  0.61987385  0.00549027  1
  O  O337  1  0.50582407  0.61900538  0.50914929  1
  O  O338  1  0.49579394  0.37944376  0.49731574  1
  O  O339  1  0.50195275  0.38113823  0.99205624  1
  O  O340  1  0.49183063  0.87901203  0.49588606  1
  O  O341  1  0.49863093  0.88787510  0.99790657  1
  O  O342  1  0.99558014  0.38082694  0.49641867  1
  O  O343  1  1.00441892  0.38714393  0.98814989  1
  O  O344  1  0.99459433  0.87888718  0.48849601  1
  O  O345  1  1.00080700  0.87029873  0.98192475  1
  O  O346  1  0.49437920  0.49201916  0.38348825  1
  O  O347  1  0.49635359  0.49198604  0.88078897  1
  O  O348  1  0.49731221  0.99213301  0.38230812  1
  O  O349  1  0.49062126  1.00105343  0.88304542  1
  O  O350  1  0.99344367  0.49269240  0.38248827  1
  O  O351  1  0.99645806  0.49818737  0.88186314  1
  O  O352  1  0.99521216  0.99068471  0.37851323  1
  O  O353  1  1.00987451  0.98228030  0.86670145  1
  O  O354  1  0.01129555  0.01041204  0.13071594  1
  O  O355  1  0.00624707  0.00276941  0.61688349  1
  O  O356  1  0.00819249  0.49510541  0.10828585  1
  O  O357  1  0.00103959  0.51082411  0.62043302  1
  O  O358  1  0.49777244  0.00637438  0.11449894  1
  O  O359  1  0.50532432  0.00425997  0.62020739  1
  O  O360  1  0.50421405  0.50499728  0.12115987  1
  O  O361  1  0.50502196  0.50377037  0.62145724  1
  O  O362  1  0.24281659  0.37846008  0.24250449  1
  O  O363  1  0.25132032  0.38132959  0.74439886  1
  O  O364  1  0.23814050  0.88050454  0.24237033  1
  O  O365  1  0.25712921  0.88503146  0.73635711  1
  O  O366  1  0.74319783  0.38518046  0.24410337  1
  O  O367  1  0.74254917  0.37704328  0.74375510  1
  O  O368  1  0.74242062  0.88034610  0.24663414  1
  O  O369  1  0.74486489  0.88587166  0.74916931  1
  O  O370  1  0.25232296  0.12040192  0.25401187  1
  O  O371  1  0.25226501  0.11262946  0.75470823  1
  O  O372  1  0.25562509  0.62062038  0.24608470  1
  O  O373  1  0.25683110  0.61982016  0.75403216  1
  O  O374  1  0.75625968  0.12052014  0.25431229  1
  O  O375  1  0.75253371  0.11149032  0.75149056  1
  O  O376  1  0.74940141  0.61382197  0.25292901  1
  O  O377  1  0.75341175  0.62153520  0.75914481  1
  O  O378  1  0.36657562  0.12307025  0.36887867  1
  O  O379  1  0.36827954  0.11353641  0.87479272  1
  O  O380  1  0.38445064  0.60993339  0.37802624  1
  O  O381  1  0.37013144  0.62019716  0.86909711  1
  O  O382  1  0.87079420  0.11896654  0.36773540  1
  O  O383  1  0.88266695  0.12200980  0.87731339  1
  O  O384  1  0.87142783  0.61674390  0.37669838  1
  O  O385  1  0.87076492  0.61721917  0.87762655  1
  O  O386  1  0.13029594  0.38021480  0.12910085  1
  O  O387  1  0.13415206  0.37748526  0.62536963  1
  O  O388  1  0.12554991  0.88080243  0.12957292  1
  O  O389  1  0.13744048  0.87914517  0.61287890  1
  O  O390  1  0.63092260  0.38351800  0.13319853  1
  O  O391  1  0.63155933  0.37839366  0.63267647  1
  O  O392  1  0.63008611  0.87608878  0.13329261  1
  O  O393  1  0.62630662  0.88118459  0.63227944  1
  O  O394  1  0.12268989  0.25806455  0.25642970  1
  O  O395  1  0.12254857  0.25155107  0.75756243  1
  O  O396  1  0.12541735  0.76265817  0.25361261  1
  O  O397  1  0.11624614  0.74316954  0.75868350  1
  O  O398  1  0.62187862  0.25653030  0.25881196  1
  O  O399  1  0.62306985  0.26252695  0.75239012  1
  O  O400  1  0.61899682  0.75586926  0.25596463  1
  O  O401  1  0.62075006  0.75475735  0.75482394  1
  O  O402  1  0.37455438  0.24292941  0.24377498  1
  O  O403  1  0.37817781  0.24521861  0.74178684  1
  O  O404  1  0.38195675  0.75078028  0.24229772  1
  O  O405  1  0.38144522  0.74337593  0.74483680  1
  O  O406  1  0.87543394  0.23703544  0.25685893  1
  O  O407  1  0.88314760  0.24437497  0.74483234  1
  O  O408  1  0.86798896  0.74775567  0.23596137  1
  O  O409  1  0.88552600  0.74798062  0.74259357  1
  O  O410  1  0.38209347  0.49250755  0.49596525  1
  O  O411  1  0.38248497  0.49873273  0.99301622  1
  O  O412  1  0.38175000  0.98767140  0.49854452  1
  O  O413  1  0.38164459  1.00099117  0.99161341  1
  O  O414  1  0.88034227  0.49357514  0.49648683  1
  O  O415  1  0.88516647  0.49891271  0.99295593  1
  O  O416  1  0.88023005  0.99313707  0.49213537  1
  O  O417  1  0.87671178  0.99107308  1.01169513  1
  O  O418  1  0.12926330  0.00554675  0.01094307  1
  O  O419  1  0.11967428  0.00372962  0.50209212  1
  O  O420  1  0.11965970  0.50711289  0.00151473  1
  O  O421  1  0.11742863  0.50972161  0.50018598  1
  O  O422  1  0.61391334  0.00814958  0.00059053  1
  O  O423  1  0.61981525  0.00391573  0.50575023  1
  O  O424  1  0.61903741  0.50737700  0.00664838  1
  O  O425  1  0.61926634  0.50441954  0.50716828  1
  O  O426  1  0.36863553  0.36862179  0.12430538  1
  O  O427  1  0.37126149  0.36762381  0.61953232  1
  O  O428  1  0.36613378  0.86889121  0.12286091  1
  O  O429  1  0.36798703  0.86955600  0.61696962  1
  O  O430  1  0.86020865  0.38811314  0.13151234  1
  O  O431  1  0.86666677  0.37696551  0.62185356  1
  O  O432  1  0.86688697  0.86329448  0.12792831  1
  O  O433  1  0.87616701  0.86791970  0.61555752  1
  O  O434  1  0.12849979  0.12883231  0.37761359  1
  O  O435  1  0.12928702  0.12930124  0.87902278  1
  O  O436  1  0.11670134  0.63580655  0.38219643  1
  O  O437  1  0.13105093  0.63507964  0.87882701  1
  O  O438  1  0.63026802  0.12855188  0.38008932  1
  O  O439  1  0.62482826  0.12694544  0.88887399  1
  O  O440  1  0.62318899  0.63169277  0.38441312  1
  O  O441  1  0.63066157  0.62955257  0.88072663  1
