# generated using pymatgen
data_V93Zn93O256
_symmetry_space_group_name_H-M   'P 1'
_cell_length_a   17.06206086
_cell_length_b   17.06527979
_cell_length_c   17.06595417
_cell_angle_alpha   90.01274323
_cell_angle_beta   90.01427604
_cell_angle_gamma   89.98933756
_symmetry_Int_Tables_number   1
_chemical_formula_structural   V93Zn93O256
_chemical_formula_sum   'V93 Zn93 O256'
_cell_volume   4969.07375625
_cell_formula_units_Z   1
loop_
 _symmetry_equiv_pos_site_id
 _symmetry_equiv_pos_as_xyz
  1  'x, y, z'
loop_
 _atom_site_type_symbol
 _atom_site_label
 _atom_site_symmetry_multiplicity
 _atom_site_fract_x
 _atom_site_fract_y
 _atom_site_fract_z
 _atom_site_occupancy
  V  V0  1  -0.00396940  0.62902561  0.62377216  1
  V  V1  1  0.37712699  0.62517603  0.25032208  1
  V  V2  1  0.24919046  -0.00279340  0.24788773  1
  V  V3  1  0.49972146  0.37477377  0.87480187  1
  V  V4  1  0.37404553  0.49981674  0.87454189  1
  V  V5  1  0.49951091  0.74993959  0.74835936  1
  V  V6  1  0.87589527  0.75174703  0.12518149  1
  V  V7  1  0.62403606  0.12128602  0.50222716  1
  V  V8  1  0.37498678  0.62598145  0.75007740  1
  V  V9  1  0.12543609  0.74839933  0.37522479  1
  V  V10  1  0.87297370  0.63047300  0.74617563  1
  V  V11  1  0.62526623  0.87999649  0.74590071  1
  V  V12  1  0.88478495  0.13170389  0.25328031  1
  V  V13  1  0.87478535  0.87156508  0.50233297  1
  V  V14  1  0.37382847  0.24806931  0.12424342  1
  V  V15  1  0.74940506  0.49679119  0.24317105  1
  V  V16  1  0.50438602  -0.00149617  0.50379820  1
  V  V17  1  0.62530142  0.37611037  0.74971736  1
  V  V18  1  0.12231064  0.87465080  0.75021105  1
  V  V19  1  -0.00121479  0.49850540  0.49730002  1
  V  V20  1  0.37421875  0.37425085  0.49901784  1
  V  V21  1  0.12574073  -0.00004462  0.62318448  1
  V  V22  1  0.24897051  0.49967064  0.74944413  1
  V  V23  1  0.50043818  0.12474535  0.12608511  1
  V  V24  1  0.75049902  0.75275897  -0.00003440  1
  V  V25  1  0.87214737  0.12652727  0.75056970  1
  V  V26  1  0.37605826  0.24929302  0.62785178  1
  V  V27  1  0.62574963  0.24946037  0.87722755  1
  V  V28  1  0.37699215  0.87255309  0.00221810  1
  V  V29  1  0.25071770  0.12253764  0.37902003  1
  V  V30  1  0.86689283  0.37627644  0.00437324  1
  V  V31  1  0.25146141  -0.00040753  0.74998013  1
  V  V32  1  0.75298163  0.87572330  0.62519261  1
  V  V33  1  0.37652560  -0.00194261  0.37608411  1
  V  V34  1  0.25152803  0.74866493  -0.00012837  1
  V  V35  1  0.12280375  0.37393770  0.75049866  1
  V  V36  1  0.12044356  0.75460433  0.87369907  1
  V  V37  1  0.87250921  0.37652430  0.49927990  1
  V  V38  1  0.25001965  0.74748563  0.49953693  1
  V  V39  1  0.75053655  0.87640816  0.12528239  1
  V  V40  1  0.75130456  0.00047710  0.25137305  1
  V  V41  1  0.37404615  0.49702833  0.37470948  1
  V  V42  1  -0.00071873  0.74956701  0.24979427  1
  V  V43  1  0.50183789  -0.00049927  0.00054316  1
  V  V44  1  0.24896610  0.62446477  0.87367386  1
  V  V45  1  0.62613385  0.75114144  0.87376727  1
  V  V46  1  0.37699492  0.87298759  0.50093121  1
  V  V47  1  0.12548288  0.87506489  0.24986234  1
  V  V48  1  0.87586294  0.00000351  0.37631983  1
  V  V49  1  0.88656677  0.88292673  -0.00634916  1
  V  V50  1  0.74708572  0.37656896  0.62541902  1
  V  V51  1  0.74970440  0.12494557  0.37612723  1
  V  V52  1  0.62673848  0.87516135  0.25066185  1
  V  V53  1  0.50204505  0.62443400  0.12541657  1
  V  V54  1  0.37513206  0.37446928  -0.00092979  1
  V  V55  1  0.24752645  0.50071215  0.24844136  1
  V  V56  1  0.24822097  0.24642449  0.50179159  1
  V  V57  1  0.62723084  0.37405242  0.24373764  1
  V  V58  1  0.24010445  0.24293880  -0.00341457  1
  V  V59  1  0.75479391  0.74868031  0.50415121  1
  V  V60  1  0.87332523  0.50240319  0.87369872  1
  V  V61  1  0.62540217  0.62601564  -0.00011995  1
  V  V62  1  0.00058253  -0.00269407  0.50169001  1
  V  V63  1  0.37590165  0.12358428  0.24992625  1
  V  V64  1  0.25069990  0.87409608  0.62471581  1
  V  V65  1  0.74745903  0.25007244  0.50016077  1
  V  V66  1  0.49765172  0.37290497  0.37452907  1
  V  V67  1  0.62503324  0.75061469  0.37561791  1
  V  V68  1  0.50207865  0.87444013  0.37559114  1
  V  V69  1  0.87306562  0.25441096  0.12906432  1
  V  V70  1  0.75018805  0.62660433  0.87367311  1
  V  V71  1  0.00031240  0.50266033  0.00052111  1
  V  V72  1  -0.00201101  0.12490683  0.62211988  1
  V  V73  1  0.00422323  0.12478851  0.11727690  1
  V  V74  1  0.12312862  0.49939075  0.62448438  1
  V  V75  1  0.74791048  0.00221404  0.74797043  1
  V  V76  1  0.62392516  0.62337343  0.50061580  1
  V  V77  1  0.50024719  0.50052399  -0.00052964  1
  V  V78  1  -0.00058472  0.37382507  0.87356582  1
  V  V79  1  0.37451542  0.00240828  0.87533335  1
  V  V80  1  0.87422478  0.49970451  0.37334005  1
  V  V81  1  0.50388822  0.11921242  0.62744452  1
  V  V82  1  0.62307024  0.24938253  0.37440666  1
  V  V83  1  0.62983124  0.12392884  0.00118267  1
  V  V84  1  0.87303444  0.25101458  0.62419682  1
  V  V85  1  -0.00199075  0.75434192  0.74912834  1
  V  V86  1  -0.00060502  0.87418810  0.37524613  1
  V  V87  1  0.50025348  0.49900146  0.50007019  1
  V  V88  1  0.49916267  0.24907067  0.75123905  1
  V  V89  1  0.24716150  0.37834874  0.12201630  1
  V  V90  1  0.12376783  0.62506869  -0.00139859  1
  V  V91  1  0.24881900  0.37392199  0.62546446  1
  V  V92  1  0.87402754  0.62551507  0.24909128  1
  Zn  Zn93  1  0.37453877  0.74794423  0.62521553  1
  Zn  Zn94  1  0.75193091  0.12523726  0.87735712  1
  Zn  Zn95  1  0.37236554  0.12563838  0.75333101  1
  Zn  Zn96  1  0.11653469  0.24710596  0.36575691  1
  Zn  Zn97  1  0.49722727  0.25056496  0.25064347  1
  Zn  Zn98  1  0.62373077  0.49971229  0.62592305  1
  Zn  Zn99  1  0.50112916  0.75106274  0.24964732  1
  Zn  Zn100  1  0.88630500  -0.00110029  0.87432967  1
  Zn  Zn101  1  0.24816780  0.87268690  0.12481547  1
  Zn  Zn102  1  0.05739135  0.04964246  -0.04526608  1
  Zn  Zn103  1  0.49793017  0.62228899  0.62502568  1
  Zn  Zn104  1  -0.00045990  0.25233051  0.74583171  1
  Zn  Zn105  1  0.63009660  0.49420719  0.12057735  1
  Zn  Zn106  1  0.74935826  0.62476418  0.37412188  1
  Zn  Zn107  1  0.62699847  0.00044118  0.12564016  1
  Zn  Zn108  1  0.24864873  0.62241904  0.37572330  1
  Zn  Zn109  1  0.11985217  -0.00159885  0.11887164  1
  Zn  Zn110  1  0.12532387  0.62320780  0.49902292  1
  Zn  Zn111  1  0.00111954  0.62686545  0.12481822  1
  Zn  Zn112  1  0.12374339  0.12463769  0.49890385  1
  Zn  Zn113  1  0.50316585  0.87589511  0.87520242  1
  Zn  Zn114  1  0.12310365  0.50200927  0.12579570  1
  Zn  Zn115  1  0.11776580  0.23997130  0.87499888  1
  Zn  Zn116  1  0.74765818  0.25482998  0.00413623  1
  Zn  Zn117  1  0.37452334  0.75011887  0.12658918  1
  Zn  Zn118  1  -0.00388097  0.36239450  0.36039230  1
  Zn  Zn119  1  0.11754120  0.36754549  0.24921128  1
  Zn  Zn120  1  0.23354329  0.11605783  0.87884680  1
  Zn  Zn121  1  0.74786561  0.50253160  0.74705054  1
  Zn  Zn122  1  0.18687702  0.18645409  0.18753835  1
  Zn  Zn123  1  0.18578989  0.18547900  0.69066630  1
  Zn  Zn124  1  0.18695606  0.68752844  0.18465741  1
  Zn  Zn125  1  0.18490316  0.68633778  0.68561648  1
  Zn  Zn126  1  0.69125883  0.18830395  0.18847312  1
  Zn  Zn127  1  0.68500125  0.19028889  0.68741296  1
  Zn  Zn128  1  0.68901313  0.68730608  0.18770428  1
  Zn  Zn129  1  0.68610562  0.69023324  0.68455512  1
  Zn  Zn130  1  0.28686722  0.29989524  0.30089002  1
  Zn  Zn131  1  0.31094352  0.31159035  0.81352011  1
  Zn  Zn132  1  0.31362238  0.81123443  0.31437992  1
  Zn  Zn133  1  0.31152479  0.81405893  0.81481120  1
  Zn  Zn134  1  0.81086506  0.31376563  0.31308916  1
  Zn  Zn135  1  0.80958459  0.31236275  0.81424893  1
  Zn  Zn136  1  0.81169832  0.81151286  0.31491221  1
  Zn  Zn137  1  0.81301239  0.81349262  0.81355466  1
  Zn  Zn138  1  0.18365367  0.43328566  0.43407937  1
  Zn  Zn139  1  0.18522162  0.43574203  0.93660011  1
  Zn  Zn140  1  0.18781196  0.93543386  0.43725462  1
  Zn  Zn141  1  0.19074910  0.93234184  0.93814728  1
  Zn  Zn142  1  0.68728046  0.43747926  0.43211809  1
  Zn  Zn143  1  0.68638441  0.44090339  0.93360525  1
  Zn  Zn144  1  0.68734376  0.93804077  0.43828907  1
  Zn  Zn145  1  0.69378095  0.93925131  0.93375576  1
  Zn  Zn146  1  0.31134320  0.06082229  0.06243507  1
  Zn  Zn147  1  0.31733736  0.06152758  0.56481967  1
  Zn  Zn148  1  0.31352833  0.56414254  0.06186974  1
  Zn  Zn149  1  0.31385855  0.56242801  0.56420672  1
  Zn  Zn150  1  0.81642646  0.06292676  0.06783709  1
  Zn  Zn151  1  0.81055912  0.05997684  0.56422648  1
  Zn  Zn152  1  0.81372646  0.56504018  0.06273871  1
  Zn  Zn153  1  0.81115319  0.56179477  0.56310569  1
  Zn  Zn154  1  0.43752034  0.43640664  0.18720396  1
  Zn  Zn155  1  0.43809381  0.43751374  0.68619339  1
  Zn  Zn156  1  0.44001478  0.93845356  0.18717529  1
  Zn  Zn157  1  0.43662586  0.93604210  0.68759784  1
  Zn  Zn158  1  0.93674257  0.43828234  0.18668753  1
  Zn  Zn159  1  0.93440178  0.44086225  0.68607429  1
  Zn  Zn160  1  0.93715382  0.94021853  0.18594411  1
  Zn  Zn161  1  0.93493018  0.93853371  0.68705991  1
  Zn  Zn162  1  0.06511306  0.06247055  0.31440427  1
  Zn  Zn163  1  0.05882341  0.06274719  0.79907686  1
  Zn  Zn164  1  0.06229225  0.56275766  0.31325791  1
  Zn  Zn165  1  0.06095740  0.56407848  0.81162031  1
  Zn  Zn166  1  0.56283889  0.06125790  0.31364326  1
  Zn  Zn167  1  0.56184524  0.06250283  0.81524626  1
  Zn  Zn168  1  0.56402506  0.55935759  0.31405333  1
  Zn  Zn169  1  0.56281433  0.56259650  0.81217845  1
  Zn  Zn170  1  0.43640569  0.18656266  0.43902935  1
  Zn  Zn171  1  0.43712226  0.18696785  0.94071874  1
  Zn  Zn172  1  0.43803427  0.68638195  0.43575232  1
  Zn  Zn173  1  0.43913092  0.68794238  0.93490972  1
  Zn  Zn174  1  0.93622836  0.18664366  0.44014490  1
  Zn  Zn175  1  0.93218619  0.19220630  0.93813726  1
  Zn  Zn176  1  0.93607110  0.68542504  0.43488653  1
  Zn  Zn177  1  0.93553062  0.69139114  0.93579717  1
  Zn  Zn178  1  0.05674897  0.31129202  0.06731936  1
  Zn  Zn179  1  0.05985003  0.31120808  0.55636056  1
  Zn  Zn180  1  0.06431687  0.81354551  0.06434062  1
  Zn  Zn181  1  0.06399014  0.81195173  0.56349194  1
  Zn  Zn182  1  0.56006593  0.30923606  0.06308046  1
  Zn  Zn183  1  0.56167566  0.31006117  0.56337080  1
  Zn  Zn184  1  0.56317962  0.81209884  0.06469406  1
  Zn  Zn185  1  0.56598667  0.81137892  0.56461988  1
  O  O186  1  0.10647547  0.12885516  0.13328028  1
  O  O187  1  0.11677911  0.11695260  0.62452888  1
  O  O188  1  0.12113604  0.62319842  0.11400280  1
  O  O189  1  0.11368107  0.61737840  0.62383510  1
  O  O190  1  0.62043121  0.12487207  0.11679534  1
  O  O191  1  0.61104859  0.13270683  0.61876436  1
  O  O192  1  0.61652758  0.62373616  0.11891762  1
  O  O193  1  0.62272081  0.62439649  0.61146049  1
  O  O194  1  0.37893464  0.37953770  0.38129111  1
  O  O195  1  0.38033826  0.38077043  0.87921193  1
  O  O196  1  0.38249034  0.87889969  0.38126253  1
  O  O197  1  0.37688862  0.88381302  0.88548177  1
  O  O198  1  0.87565600  0.38207277  0.38248550  1
  O  O199  1  0.88204918  0.38132239  0.88127912  1
  O  O200  1  0.88059675  0.88051088  0.38130163  1
  O  O201  1  0.87083647  0.87467883  0.89078442  1
  O  O202  1  0.25666093  0.00196314  0.36885789  1
  O  O203  1  0.25977580  -0.00212692  0.86880534  1
  O  O204  1  0.25599942  0.50016517  0.36508662  1
  O  O205  1  0.25419629  0.50419464  0.86907148  1
  O  O206  1  0.75720651  0.00538979  0.37200298  1
  O  O207  1  0.75827142  0.00331911  0.85987620  1
  O  O208  1  0.75626081  0.50237437  0.36386698  1
  O  O209  1  0.75600440  0.50986985  0.87145301  1
  O  O210  1  0.25006539  0.49348972  0.12870376  1
  O  O211  1  0.24410848  0.49387780  0.62999802  1
  O  O212  1  0.25177588  0.99841784  0.14065041  1
  O  O213  1  0.24699527  0.99329462  0.62938848  1
  O  O214  1  0.74903170  0.50453106  0.13803775  1
  O  O215  1  0.74571582  0.49184545  0.62664831  1
  O  O216  1  0.74978390  0.99442181  0.13458213  1
  O  O217  1  0.75061465  0.98983907  0.63645871  1
  O  O218  1  0.00534622  0.38027129  0.24878126  1
  O  O219  1  0.00185882  0.37770791  0.75834035  1
  O  O220  1  0.00385888  0.87029141  0.25630200  1
  O  O221  1  0.00472369  0.86137548  0.73925848  1
  O  O222  1  0.50722481  0.37381378  0.25681818  1
  O  O223  1  0.50426034  0.36918637  0.75604692  1
  O  O224  1  0.50721442  0.87419325  0.25700036  1
  O  O225  1  0.50919018  0.86826934  0.75013497  1
  O  O226  1  0.49344095  0.12512712  0.24472468  1
  O  O227  1  0.49955306  0.12983163  0.74330224  1
  O  O228  1  0.49353088  0.62231202  0.24243612  1
  O  O229  1  0.49489092  0.63454103  0.75052606  1
  O  O230  1  0.98832565  0.12373687  0.24908191  1
  O  O231  1  0.98638117  0.12995773  0.73857115  1
  O  O232  1  0.99267767  0.63124006  0.24846092  1
  O  O233  1  0.99270207  0.63215468  0.74269431  1
  O  O234  1  0.36652285  0.25626114  0.00422124  1
  O  O235  1  0.36869862  0.25449907  0.50908689  1
  O  O236  1  0.37154432  0.75772253  -0.00245168  1
  O  O237  1  0.36640608  0.75436279  0.50004324  1
  O  O238  1  0.87194251  0.26133602  0.00765222  1
  O  O239  1  0.86499676  0.25608651  0.50581756  1
  O  O240  1  0.86937895  0.75888822  0.00449609  1
  O  O241  1  0.86313139  0.75544916  0.49280334  1
  O  O242  1  0.14255101  0.24662523  0.50728728  1
  O  O243  1  0.13807628  0.25715817  0.99991084  1
  O  O244  1  0.13481920  0.74993634  0.49439088  1
  O  O245  1  0.12883405  0.74612028  0.99085269  1
  O  O246  1  0.62901170  0.24287510  0.49378241  1
  O  O247  1  0.62567073  0.24115987  0.99663379  1
  O  O248  1  0.63256781  0.74264531  0.49557527  1
  O  O249  1  0.63026081  0.74563223  0.99401692  1
  O  O250  1  0.49060157  0.24247181  0.12725384  1
  O  O251  1  0.49419806  0.24231619  0.63164460  1
  O  O252  1  0.49811591  0.73653910  0.12745487  1
  O  O253  1  0.49927507  0.74839131  0.63818204  1
  O  O254  1  0.98675732  0.23842463  0.12373332  1
  O  O255  1  0.99020326  0.24421967  0.62197229  1
  O  O256  1  0.99357602  0.74973911  0.13315643  1
  O  O257  1  1.00698754  0.73753684  0.63392233  1
  O  O258  1  0.00945315  0.25736423  0.40171869  1
  O  O259  1  -0.00251450  0.26465440  0.87358684  1
  O  O260  1  0.00464226  0.75535260  0.36994904  1
  O  O261  1  0.01136894  0.74218940  0.86257164  1
  O  O262  1  0.50490230  0.25439931  0.37389621  1
  O  O263  1  0.50423508  0.25555485  0.87167611  1
  O  O264  1  0.50737388  0.75704603  0.37408039  1
  O  O265  1  0.50687234  0.75232708  0.86373754  1
  O  O266  1  0.25187742  0.13031900  0.49842043  1
  O  O267  1  0.25290299  0.14083105  1.00091110  1
  O  O268  1  0.24935265  0.63543745  0.49960327  1
  O  O269  1  0.24503968  0.62888583  0.99245981  1
  O  O270  1  0.74471376  0.12922658  0.49585836  1
  O  O271  1  0.73916935  0.12302836  1.00038713  1
  O  O272  1  0.74280209  0.63277904  0.49946674  1
  O  O273  1  0.74553535  0.63202571  0.99431148  1
  O  O274  1  0.25522911  0.37049296  0.00592932  1
  O  O275  1  0.25504546  0.36685778  0.50662006  1
  O  O276  1  0.26269510  0.86615142  0.00163848  1
  O  O277  1  0.25629914  0.86603895  0.50394886  1
  O  O278  1  0.76349941  0.37940902  -0.00566627  1
  O  O279  1  0.75256322  0.36990987  0.50401558  1
  O  O280  1  0.75531552  0.86991436  0.00646705  1
  O  O281  1  0.75285306  0.86923314  0.50729412  1
  O  O282  1  0.13965214  0.50405586  0.24702844  1
  O  O283  1  0.12949657  0.49512514  0.74493516  1
  O  O284  1  0.13542885  0.99368702  0.25110903  1
  O  O285  1  0.13180977  0.99232845  0.74142630  1
  O  O286  1  0.63253736  0.49171451  0.24914425  1
  O  O287  1  0.62635543  0.49251898  0.74795109  1
  O  O288  1  0.63353975  0.99347774  0.25092620  1
  O  O289  1  0.63362692  0.98968857  0.75734209  1
  O  O290  1  0.36853613  0.00232137  0.25672946  1
  O  O291  1  0.37052633  -0.00267597  0.76074259  1
  O  O292  1  0.36919857  0.50835333  0.25339149  1
  O  O293  1  0.36898904  0.50447886  0.75552531  1
  O  O294  1  0.87063380  0.00886749  0.25791803  1
  O  O295  1  0.86646114  0.01109317  0.74750016  1
  O  O296  1  0.86696153  0.50475411  0.25300923  1
  O  O297  1  0.87390120  0.51389471  0.75569792  1
  O  O298  1  0.11921155  0.37011661  0.37020812  1
  O  O299  1  0.11262094  0.37583419  0.86912560  1
  O  O300  1  0.11845779  0.86871469  0.36959042  1
  O  O301  1  0.13233376  0.86004043  0.86682576  1
  O  O302  1  0.61765724  0.36864661  0.36692834  1
  O  O303  1  0.61809582  0.37010036  0.87078687  1
  O  O304  1  0.62096670  0.86995941  0.37070021  1
  O  O305  1  0.62739679  0.86889449  0.86328686  1
  O  O306  1  0.38031782  0.12800577  0.12969287  1
  O  O307  1  0.38699345  0.13067514  0.62839863  1
  O  O308  1  0.38507790  0.62426694  0.13265353  1
  O  O309  1  0.37729330  0.62825139  0.63452302  1
  O  O310  1  0.88443171  0.13196898  0.13492553  1
  O  O311  1  0.87673993  0.13044573  0.63071197  1
  O  O312  1  0.87739163  0.63416161  0.13058129  1
  O  O313  1  0.88415936  0.62046303  0.63487405  1
  O  O314  1  0.25462185  0.25832428  0.11197089  1
  O  O315  1  0.25664974  0.25376073  0.62138401  1
  O  O316  1  0.25473649  0.75103519  0.11569973  1
  O  O317  1  0.24882252  0.75519537  0.61563076  1
  O  O318  1  0.76683656  0.24334162  0.12146554  1
  O  O319  1  0.75316335  0.25638627  0.61857960  1
  O  O320  1  0.75596879  0.75619551  0.11962477  1
  O  O321  1  0.74624785  0.75985697  0.61272339  1
  O  O322  1  0.26008627  0.23943415  0.39409964  1
  O  O323  1  0.24805099  0.25082730  0.88937344  1
  O  O324  1  0.24503170  0.74886368  0.38508554  1
  O  O325  1  0.24122512  0.74314683  0.87869842  1
  O  O326  1  0.74364639  0.24410276  0.38173842  1
  O  O327  1  0.74081090  0.24687430  0.88046108  1
  O  O328  1  0.74284868  0.74990268  0.38710759  1
  O  O329  1  0.74454636  0.74489272  0.87969207  1
  O  O330  1  -0.00645436  0.12818645  0.01340312  1
  O  O331  1  -0.00052388  0.11354560  0.50695880  1
  O  O332  1  0.00338162  0.61651292  -0.00400327  1
  O  O333  1  -0.00248716  0.61726121  0.50894102  1
  O  O334  1  0.50925423  0.11997714  0.00601234  1
  O  O335  1  0.50353276  0.11912295  0.50833568  1
  O  O336  1  0.50474904  0.62085621  0.00593844  1
  O  O337  1  0.50823268  0.61932819  0.50016992  1
  O  O338  1  0.49417932  0.37844007  0.49483829  1
  O  O339  1  0.49505574  0.38013426  0.99452524  1
  O  O340  1  0.49748696  0.87811150  0.49673957  1
  O  O341  1  0.49346499  0.87928592  0.99858427  1
  O  O342  1  0.99045336  0.39114652  0.50816163  1
  O  O343  1  0.99257477  0.38416538  0.99179090  1
  O  O344  1  0.99464002  0.87739763  0.49590256  1
  O  O345  1  0.98493974  0.87092478  1.00465043  1
  O  O346  1  0.49372897  0.49287918  0.38079553  1
  O  O347  1  0.49363500  0.49503115  0.88007213  1
  O  O348  1  0.49499840  0.99354414  0.38236802  1
  O  O349  1  0.49154933  0.99669677  0.88179990  1
  O  O350  1  0.99325394  0.50343250  0.38739337  1
  O  O351  1  0.99397391  0.49406540  0.88171389  1
  O  O352  1  0.99520016  0.99339710  0.38143785  1
  O  O353  1  0.99795440  1.00231959  0.87141769  1
  O  O354  1  -0.00084472  0.01893120  0.12998563  1
  O  O355  1  0.00505612  0.00366335  0.62046010  1
  O  O356  1  0.00070223  0.50284149  0.10942404  1
  O  O357  1  0.00270566  0.50982545  0.61803934  1
  O  O358  1  0.50362942  0.00697559  0.11809104  1
  O  O359  1  0.49412547  0.01081664  0.62030993  1
  O  O360  1  0.50072242  0.50978997  0.11784499  1
  O  O361  1  0.50275356  0.50127449  0.61575160  1
  O  O362  1  0.26004089  0.39133629  0.23535453  1
  O  O363  1  0.24422969  0.38052417  0.74514564  1
  O  O364  1  0.24614898  0.88266059  0.25197452  1
  O  O365  1  0.24376270  0.87873192  0.74407868  1
  O  O366  1  0.73864027  0.38444889  0.25572075  1
  O  O367  1  0.74314349  0.37658104  0.74395352  1
  O  O368  1  0.74704443  0.88053304  0.24607055  1
  O  O369  1  0.74612484  0.88031095  0.74345521  1
  O  O370  1  0.25687455  0.11309551  0.25677384  1
  O  O371  1  0.25295125  0.11539065  0.75483970  1
  O  O372  1  0.26095278  0.61695568  0.24752016  1
  O  O373  1  0.25389456  0.61928565  0.75436745  1
  O  O374  1  0.75863083  0.11954550  0.25788509  1
  O  O375  1  0.75519215  0.11781050  0.74597955  1
  O  O376  1  0.75499576  0.61672007  0.25246003  1
  O  O377  1  0.75818179  0.62931781  0.75334629  1
  O  O378  1  0.37094171  0.11641140  0.37115740  1
  O  O379  1  0.37434764  0.11024907  0.87762081  1
  O  O380  1  0.37515300  0.61700090  0.36485143  1
  O  O381  1  0.36881908  0.61896783  0.86986734  1
  O  O382  1  0.86968768  0.12047720  0.37071208  1
  O  O383  1  0.87227194  0.12869534  0.86061421  1
  O  O384  1  0.87220836  0.61787849  0.36652236  1
  O  O385  1  0.86971561  0.62236983  0.86636424  1
  O  O386  1  0.13768377  0.37796837  0.12486914  1
  O  O387  1  0.12900390  0.38027297  0.63013823  1
  O  O388  1  0.12815350  0.87693142  0.13571003  1
  O  O389  1  0.13131981  0.88025109  0.63023707  1
  O  O390  1  0.61685911  0.37539070  0.13884004  1
  O  O391  1  0.63010371  0.37336565  0.63162385  1
  O  O392  1  0.63235509  0.87649267  0.13223708  1
  O  O393  1  0.63661162  0.87046494  0.63749543  1
  O  O394  1  0.17116322  0.26426522  0.26414971  1
  O  O395  1  0.12055804  0.25895107  0.75278819  1
  O  O396  1  0.12037621  0.75455759  0.25560240  1
  O  O397  1  0.11759603  0.75323325  0.75567479  1
  O  O398  1  0.62507848  0.25745008  0.25610238  1
  O  O399  1  0.61816590  0.25574285  0.75753643  1
  O  O400  1  0.62574751  0.75646118  0.25768820  1
  O  O401  1  0.61842057  0.75746131  0.75396953  1
  O  O402  1  0.37070389  0.24076567  0.24183433  1
  O  O403  1  0.38121818  0.24864786  0.74644122  1
  O  O404  1  0.37751189  0.73730998  0.25019228  1
  O  O405  1  0.38388071  0.74613678  0.75237221  1
  O  O406  1  0.86844215  0.24062009  0.24483199  1
  O  O407  1  0.87246720  0.24218384  0.74220104  1
  O  O408  1  0.87930260  0.74614005  0.24593368  1
  O  O409  1  0.88465408  0.74009618  0.75699380  1
  O  O410  1  0.37898333  0.49407184  0.49485349  1
  O  O411  1  0.38010707  0.49528018  0.99315508  1
  O  O412  1  0.38243992  0.99202331  0.49519050  1
  O  O413  1  0.37928812  0.99181020  0.99437116  1
  O  O414  1  0.87987914  0.49707938  0.49437694  1
  O  O415  1  0.88187216  0.49620302  0.99475615  1
  O  O416  1  0.87984086  0.99259756  0.49541151  1
  O  O417  1  0.87096135  0.98589675  1.00045297  1
  O  O418  1  0.13970314  -0.00005870  0.00861587  1
  O  O419  1  0.11874195  -0.00180901  0.50647279  1
  O  O420  1  0.11481426  0.50604303  -0.00294950  1
  O  O421  1  0.11500459  0.50069167  0.50564027  1
  O  O422  1  0.62108402  0.00824644  -0.00106377  1
  O  O423  1  0.61701036  0.00816270  0.49472933  1
  O  O424  1  0.61877053  0.50717922  0.00057963  1
  O  O425  1  0.61982628  0.50889359  0.49709036  1
  O  O426  1  0.36706817  0.37054648  0.11815715  1
  O  O427  1  0.36838024  0.36989566  0.61990789  1
  O  O428  1  0.37590949  0.87313374  0.11320816  1
  O  O429  1  0.36866841  0.87124211  0.61857047  1
  O  O430  1  0.88167449  0.36719374  0.11376133  1
  O  O431  1  0.86712725  0.37143404  0.61966771  1
  O  O432  1  0.86971743  0.87091603  0.11704792  1
  O  O433  1  0.86182976  0.87779381  0.61866813  1
  O  O434  1  0.13543138  0.12676571  0.37976494  1
  O  O435  1  0.11913092  0.12523151  0.87607439  1
  O  O436  1  0.12813816  0.63314429  0.37867247  1
  O  O437  1  0.13010998  0.63335631  0.87778965  1
  O  O438  1  0.63039295  0.13016151  0.38055139  1
  O  O439  1  0.62483879  0.13076963  0.88601517  1
  O  O440  1  0.62537545  0.63054664  0.38579192  1
  O  O441  1  0.63032247  0.63113550  0.88024670  1
