# generated using pymatgen
data_V93Zn93O256
_symmetry_space_group_name_H-M   'P 1'
_cell_length_a   17.04045309
_cell_length_b   17.04468111
_cell_length_c   17.04546308
_cell_angle_alpha   90.00117524
_cell_angle_beta   89.96960306
_cell_angle_gamma   89.96685751
_symmetry_Int_Tables_number   1
_chemical_formula_structural   V93Zn93O256
_chemical_formula_sum   'V93 Zn93 O256'
_cell_volume   4950.83769337
_cell_formula_units_Z   1
loop_
 _symmetry_equiv_pos_site_id
 _symmetry_equiv_pos_as_xyz
  1  'x, y, z'
loop_
 _atom_site_type_symbol
 _atom_site_label
 _atom_site_symmetry_multiplicity
 _atom_site_fract_x
 _atom_site_fract_y
 _atom_site_fract_z
 _atom_site_occupancy
  V  V0  1  -0.00114119  0.62519833  0.12480183  1
  V  V1  1  -0.00459837  0.49943127  0.00121520  1
  V  V2  1  0.87489937  0.37529877  0.49856188  1
  V  V3  1  0.87308272  0.62624180  0.25145651  1
  V  V4  1  0.25021915  0.74950025  0.50145730  1
  V  V5  1  0.75176751  0.62806545  0.87128784  1
  V  V6  1  0.12611151  0.24929475  0.87510507  1
  V  V7  1  0.12593590  -0.00133897  0.62517724  1
  V  V8  1  -0.00161019  0.87538594  0.37588577  1
  V  V9  1  0.25062809  0.50017798  0.75077459  1
  V  V10  1  0.12532441  0.37491847  0.75042294  1
  V  V11  1  0.50629738  0.11994115  0.62452272  1
  V  V12  1  0.37871735  0.87438563  0.49947485  1
  V  V13  1  0.12437268  0.62464516  0.50119919  1
  V  V14  1  0.62029879  0.75401472  0.37637999  1
  V  V15  1  0.62505914  0.37627836  0.24818539  1
  V  V16  1  0.12621136  0.37718174  0.24874569  1
  V  V17  1  -0.00291301  0.75128677  0.25091930  1
  V  V18  1  0.25088627  0.12376565  0.87561183  1
  V  V19  1  0.12399858  0.74949617  0.87667211  1
  V  V20  1  0.37710346  0.24747389  0.62475855  1
  V  V21  1  0.12392462  0.87614199  0.25113826  1
  V  V22  1  0.00079521  0.37581875  0.37449052  1
  V  V23  1  0.87381829  0.87566045  0.50107950  1
  V  V24  1  0.37520489  0.37370000  -0.00040584  1
  V  V25  1  0.50081629  0.49813386  0.49879000  1
  V  V26  1  0.87412262  0.50229428  0.37408398  1
  V  V27  1  0.87338697  0.87601599  -0.00028604  1
  V  V28  1  0.74473373  0.75305232  -0.00359151  1
  V  V29  1  0.87028128  0.00814917  0.37522074  1
  V  V30  1  0.25143996  0.24875063  0.49942151  1
  V  V31  1  -0.00285895  0.62558431  0.62922791  1
  V  V32  1  -0.00215996  0.12601416  0.12783343  1
  V  V33  1  0.50513008  0.74819274  0.75614433  1
  V  V34  1  -0.00526353  0.37499851  0.88008091  1
  V  V35  1  0.24836628  0.87408698  0.12669496  1
  V  V36  1  0.12428027  0.87439902  0.75041033  1
  V  V37  1  0.62565421  0.50047257  0.12420197  1
  V  V38  1  0.87345925  0.74673202  0.63116088  1
  V  V39  1  0.37660172  0.12328177  0.75000175  1
  V  V40  1  0.00113511  0.00004921  0.50050142  1
  V  V41  1  -0.00181482  0.87536386  0.87606474  1
  V  V42  1  0.74846053  0.75041700  0.50019145  1
  V  V43  1  0.25154001  0.37414571  0.62501092  1
  V  V44  1  0.50180223  0.37373478  0.37408518  1
  V  V45  1  0.25143608  0.62241001  0.37317320  1
  V  V46  1  0.74854793  0.00783690  0.25343375  1
  V  V47  1  0.87542349  0.25495929  0.11735800  1
  V  V48  1  0.62588695  0.50026993  0.62364295  1
  V  V49  1  0.12677050  0.24809127  0.37539735  1
  V  V50  1  0.37764985  0.37402027  0.49925982  1
  V  V51  1  0.24838173  0.62422240  0.87603572  1
  V  V52  1  0.62542019  0.37253669  0.74986928  1
  V  V53  1  0.62786614  0.12577948  -0.00197264  1
  V  V54  1  0.50477804  -0.00480463  0.50104322  1
  V  V55  1  0.50151868  0.12219240  0.12378175  1
  V  V56  1  0.25117390  0.37446242  0.12372533  1
  V  V57  1  0.87302213  0.75153231  0.12471517  1
  V  V58  1  0.62377512  0.87664423  0.25175013  1
  V  V59  1  0.75409540  0.37648648  0.11701726  1
  V  V60  1  0.50087755  0.24949037  0.25025560  1
  V  V61  1  0.25037857  -0.00056950  0.25129390  1
  V  V62  1  -0.00083504  0.50026682  0.50147902  1
  V  V63  1  0.75123508  0.37618649  0.62366331  1
  V  V64  1  0.24855622  0.74945001  0.00082262  1
  V  V65  1  0.49836118  0.75338589  0.25365915  1
  V  V66  1  0.00303014  0.12439027  0.62480868  1
  V  V67  1  0.74290403  0.88097922  0.62575995  1
  V  V68  1  0.62391261  0.62894489  -0.00379853  1
  V  V69  1  0.37754776  -0.00442776  0.87685738  1
  V  V70  1  0.62869421  0.12243246  0.49450357  1
  V  V71  1  0.50168956  0.37457308  0.87351335  1
  V  V72  1  0.75236509  0.50407730  0.74936662  1
  V  V73  1  0.62324391  0.87983758  0.75609105  1
  V  V74  1  0.75076653  0.24582536  0.49153553  1
  V  V75  1  0.37570440  0.74901937  0.62584310  1
  V  V76  1  0.87520226  0.50224570  0.87144741  1
  V  V77  1  0.24982804  0.87442954  0.62595329  1
  V  V78  1  0.37386941  0.49923480  0.87442417  1
  V  V79  1  0.00055511  0.25079452  0.74922962  1
  V  V80  1  0.12482785  0.49971400  0.62554203  1
  V  V81  1  0.62489350  0.62573682  0.49922407  1
  V  V82  1  0.87381720  0.12188156  0.75053256  1
  V  V83  1  0.12468438  0.12481727  -0.00010134  1
  V  V84  1  0.37417295  0.74804914  0.12658610  1
  V  V85  1  -0.00171841  -0.00007387  0.00049136  1
  V  V86  1  0.87694544  0.25068535  0.62362264  1
  V  V87  1  0.37595865  0.12347384  0.24988794  1
  V  V88  1  0.12334293  0.74994406  0.37648730  1
  V  V89  1  -0.00345138  0.74701493  0.75149671  1
  V  V90  1  0.38049213  -0.00586431  0.37553198  1
  V  V91  1  0.49980072  0.62451424  0.62523889  1
  V  V92  1  0.50062079  0.50046859  -0.00011311  1
  Zn  Zn93  1  0.86864978  0.13069943  0.25309185  1
  Zn  Zn94  1  0.37779351  0.62244927  0.25155542  1
  Zn  Zn95  1  0.50377199  0.86753064  0.88232020  1
  Zn  Zn96  1  0.62797976  -0.00136124  0.12241337  1
  Zn  Zn97  1  -0.00282963  0.25044947  0.24998738  1
  Zn  Zn98  1  0.37537629  0.24833559  0.12321620  1
  Zn  Zn99  1  0.37580022  0.49879611  0.37258780  1
  Zn  Zn100  1  0.12488922  0.50142749  0.12349509  1
  Zn  Zn101  1  0.87082532  0.00097167  0.87483165  1
  Zn  Zn102  1  0.74887455  0.62530173  0.37307777  1
  Zn  Zn103  1  0.37673414  0.87457406  0.00048729  1
  Zn  Zn104  1  0.12291146  0.62486214  0.00211542  1
  Zn  Zn105  1  0.74947841  0.50200391  0.24927433  1
  Zn  Zn106  1  0.75355004  0.25341214  -0.00595623  1
  Zn  Zn107  1  0.25378540  0.50088349  0.24780236  1
  Zn  Zn108  1  0.50219994  -0.00499037  0.00067832  1
  Zn  Zn109  1  0.50059466  0.62500786  0.12626323  1
  Zn  Zn110  1  0.74862952  0.87713233  0.12465996  1
  Zn  Zn111  1  0.25207288  0.24869250  -0.00024185  1
  Zn  Zn112  1  0.25211756  0.12368040  0.37571375  1
  Zn  Zn113  1  0.25053929  -0.00176503  0.75076041  1
  Zn  Zn114  1  0.50224977  0.24743249  0.74990339  1
  Zn  Zn115  1  0.74264402  0.00518334  0.74778676  1
  Zn  Zn116  1  0.37595489  0.62518707  0.75067142  1
  Zn  Zn117  1  0.74927870  0.12618070  0.87371098  1
  Zn  Zn118  1  0.12856370  0.12313655  0.50046929  1
  Zn  Zn119  1  0.62765193  0.24874682  0.87501413  1
  Zn  Zn120  1  0.12491251  0.00133882  0.12655845  1
  Zn  Zn121  1  0.63101579  0.24785654  0.37051593  1
  Zn  Zn122  1  0.18821253  0.18800504  0.18776488  1
  Zn  Zn123  1  0.19015459  0.18527752  0.68882749  1
  Zn  Zn124  1  0.18437219  0.68739162  0.18831358  1
  Zn  Zn125  1  0.18592031  0.68699512  0.68997766  1
  Zn  Zn126  1  0.68755379  0.19064239  0.18297347  1
  Zn  Zn127  1  0.68973772  0.18816617  0.67971561  1
  Zn  Zn128  1  0.68761352  0.68791878  0.18538297  1
  Zn  Zn129  1  0.68511596  0.69102910  0.68791868  1
  Zn  Zn130  1  0.31459997  0.31128500  0.31123296  1
  Zn  Zn131  1  0.31444607  0.30999799  0.81211853  1
  Zn  Zn132  1  0.31168312  0.81232382  0.31405097  1
  Zn  Zn133  1  0.31337494  0.81073964  0.81160518  1
  Zn  Zn134  1  0.81375735  0.31569614  0.30558480  1
  Zn  Zn135  1  0.81199369  0.31140955  0.81268752  1
  Zn  Zn136  1  0.80851337  0.81618169  0.31403444  1
  Zn  Zn137  1  0.80991514  0.81458426  0.81352322  1
  Zn  Zn138  1  0.18872083  0.43658885  0.43834230  1
  Zn  Zn139  1  0.18420559  0.43776785  0.93948120  1
  Zn  Zn140  1  0.19017749  0.93712909  0.43771436  1
  Zn  Zn141  1  0.18803893  0.93759156  0.93975770  1
  Zn  Zn142  1  0.68841337  0.43661034  0.43462318  1
  Zn  Zn143  1  0.68692492  0.44085478  0.93656715  1
  Zn  Zn144  1  0.68700840  0.93689205  0.43599624  1
  Zn  Zn145  1  0.68845118  0.94380132  0.93304230  1
  Zn  Zn146  1  0.31259711  0.06086428  0.06224829  1
  Zn  Zn147  1  0.31380990  0.06215044  0.56225702  1
  Zn  Zn148  1  0.31157811  0.56191096  0.06192199  1
  Zn  Zn149  1  0.31405199  0.56148289  0.56185325  1
  Zn  Zn150  1  0.81107956  0.06269682  0.06598229  1
  Zn  Zn151  1  0.81342196  0.06319899  0.56376980  1
  Zn  Zn152  1  0.81291999  0.56323930  0.06080057  1
  Zn  Zn153  1  0.81183818  0.56462744  0.56105450  1
  Zn  Zn154  1  0.43692047  0.43913585  0.18770883  1
  Zn  Zn155  1  0.43812042  0.43751383  0.68710120  1
  Zn  Zn156  1  0.43801858  0.93535012  0.18771660  1
  Zn  Zn157  1  0.43849307  0.93697978  0.68793590  1
  Zn  Zn158  1  0.93642796  0.43790636  0.18828423  1
  Zn  Zn159  1  0.93717941  0.43775235  0.68963905  1
  Zn  Zn160  1  0.93395879  0.93916176  0.18747911  1
  Zn  Zn161  1  0.93724369  0.93530749  0.68657881  1
  Zn  Zn162  1  0.06070636  0.06230371  0.31233526  1
  Zn  Zn163  1  0.06127628  0.06070313  0.81276734  1
  Zn  Zn164  1  0.06171214  0.56262988  0.31185641  1
  Zn  Zn165  1  0.06271811  0.56422913  0.81233710  1
  Zn  Zn166  1  0.56195085  0.06282083  0.31520895  1
  Zn  Zn167  1  0.56095389  0.05990589  0.81427449  1
  Zn  Zn168  1  0.56232902  0.56441617  0.31203920  1
  Zn  Zn169  1  0.56444890  0.56228738  0.81255997  1
  Zn  Zn170  1  0.43987795  0.18502420  0.43569760  1
  Zn  Zn171  1  0.44041551  0.18833889  0.93654012  1
  Zn  Zn172  1  0.43779507  0.68686175  0.43824959  1
  Zn  Zn173  1  0.43391155  0.68603043  0.93869323  1
  Zn  Zn174  1  0.94150973  0.18793827  0.43914753  1
  Zn  Zn175  1  0.93853066  0.18718938  0.93709780  1
  Zn  Zn176  1  0.93557458  0.68761229  0.44064432  1
  Zn  Zn177  1  0.93384624  0.68708404  0.93806876  1
  Zn  Zn178  1  0.06346171  0.31128030  0.06169948  1
  Zn  Zn179  1  0.06376084  0.31254159  0.56127529  1
  Zn  Zn180  1  0.06183602  0.81314250  0.06338917  1
  Zn  Zn181  1  0.06126709  0.81258397  0.56351141  1
  Zn  Zn182  1  0.56406265  0.31061141  0.06233110  1
  Zn  Zn183  1  0.56442915  0.30874258  0.56165181  1
  Zn  Zn184  1  0.56082265  0.81347780  0.06614291  1
  Zn  Zn185  1  0.56207285  0.81233620  0.56722446  1
  O  O186  1  0.11464098  0.12637321  0.11976777  1
  O  O187  1  0.11995992  0.11781380  0.62533467  1
  O  O188  1  0.11455720  0.62199621  0.12471785  1
  O  O189  1  0.11951321  0.61904194  0.61981796  1
  O  O190  1  0.61648711  0.12337397  0.11762956  1
  O  O191  1  0.61438406  0.12895324  0.61357373  1
  O  O192  1  0.62551944  0.61951401  0.11265307  1
  O  O193  1  0.62013553  0.61972410  0.61876469  1
  O  O194  1  0.38270927  0.37516761  0.38210209  1
  O  O195  1  0.38053113  0.38046545  0.87907781  1
  O  O196  1  0.36998057  0.88544953  0.38307577  1
  O  O197  1  0.37464723  0.88440929  0.87556408  1
  O  O198  1  0.88138493  0.38138629  0.37904405  1
  O  O199  1  0.88759582  0.38329430  0.86930077  1
  O  O200  1  0.87990580  0.88303704  0.38156775  1
  O  O201  1  0.88101012  0.87590962  0.88181343  1
  O  O202  1  0.26064787  0.00141658  0.37025352  1
  O  O203  1  0.25865486  0.00539918  0.87399079  1
  O  O204  1  0.25000590  0.51157229  0.37635326  1
  O  O205  1  0.25348248  0.50326473  0.87046373  1
  O  O206  1  0.76107833  -0.00563996  0.36813105  1
  O  O207  1  0.75466625  0.00761152  0.86498341  1
  O  O208  1  0.75867971  0.50323325  0.37247513  1
  O  O209  1  0.75815198  0.50637415  0.87096947  1
  O  O210  1  0.24629811  0.48785511  0.12526786  1
  O  O211  1  0.24443875  0.49406299  0.62956126  1
  O  O212  1  0.24906029  0.99228484  0.13342718  1
  O  O213  1  0.24455972  0.99205098  0.62587686  1
  O  O214  1  0.74546789  0.49327243  0.12453864  1
  O  O215  1  0.74616705  0.49604094  0.62888481  1
  O  O216  1  0.74790612  0.99586719  0.13800115  1
  O  O217  1  0.75865705  0.98481436  0.62882215  1
  O  O218  1  0.01034200  0.37441387  0.25562242  1
  O  O219  1  0.00596846  0.37057506  0.75776685  1
  O  O220  1  0.00307500  0.87053049  0.25625579  1
  O  O221  1  0.00449438  0.86776929  0.75584629  1
  O  O222  1  0.50549603  0.36916365  0.25319783  1
  O  O223  1  0.51127626  0.37581763  0.75323464  1
  O  O224  1  0.50940986  0.86337687  0.24716237  1
  O  O225  1  0.51122694  0.86706145  0.74682597  1
  O  O226  1  0.49699182  0.12863136  0.24285350  1
  O  O227  1  0.49706711  0.12428079  0.73958763  1
  O  O228  1  0.50025864  0.63950618  0.24714614  1
  O  O229  1  0.50138122  0.63110649  0.74367582  1
  O  O230  1  0.99909521  0.12701848  0.23782567  1
  O  O231  1  0.99436960  0.13178578  0.74425680  1
  O  O232  1  0.99361169  0.63215907  0.24575269  1
  O  O233  1  1.00512003  0.63374665  0.74178767  1
  O  O234  1  0.37348770  0.25854280  0.00135865  1
  O  O235  1  0.37140511  0.25407732  0.50468304  1
  O  O236  1  0.36792223  0.75020511  0.01092068  1
  O  O237  1  0.37085554  0.75493738  0.50583068  1
  O  O238  1  0.87460574  0.24650248  0.01282004  1
  O  O239  1  0.87032773  0.25476327  0.50412808  1
  O  O240  1  0.86538577  0.75581124  0.00509586  1
  O  O241  1  0.86941967  0.75711959  0.50819352  1
  O  O242  1  0.13164348  0.25152683  0.49001354  1
  O  O243  1  0.12594754  0.24291564  0.99151314  1
  O  O244  1  0.12945163  0.74461062  0.49612014  1
  O  O245  1  0.13008933  0.74885185  0.99401256  1
  O  O246  1  0.63549477  0.24290224  0.49787981  1
  O  O247  1  0.62729848  0.23864012  0.99863050  1
  O  O248  1  0.62648503  0.74692997  0.49337877  1
  O  O249  1  0.63376771  0.74114784  1.00604874  1
  O  O250  1  0.49936182  0.23909185  0.13176975  1
  O  O251  1  0.49474145  0.23855049  0.62455922  1
  O  O252  1  0.48971248  0.74838894  0.13424782  1
  O  O253  1  0.49455823  0.74277723  0.63214095  1
  O  O254  1  0.99328921  0.24363905  0.12504899  1
  O  O255  1  0.99662556  0.24620868  0.62933682  1
  O  O256  1  0.99279124  0.74574156  0.13133025  1
  O  O257  1  0.99166591  0.74663304  0.63009374  1
  O  O258  1  0.00983235  0.25727790  0.37471412  1
  O  O259  1  0.00472063  0.25846177  0.87013858  1
  O  O260  1  0.00358766  0.75567538  0.37168162  1
  O  O261  1  0.00297689  0.75468683  0.87137973  1
  O  O262  1  0.50264214  0.25637467  0.36776660  1
  O  O263  1  0.50547328  0.25938772  0.86928125  1
  O  O264  1  0.50947425  0.74593122  0.36735058  1
  O  O265  1  0.49036476  0.75007412  0.86052280  1
  O  O266  1  0.24835612  0.13290665  0.49756734  1
  O  O267  1  0.24281650  0.12613285  0.99472243  1
  O  O268  1  0.24375471  0.62977980  0.49392885  1
  O  O269  1  0.24643353  0.63091473  0.99404955  1
  O  O270  1  0.74136455  0.13428264  0.50932754  1
  O  O271  1  0.73853624  0.12639940  1.00138736  1
  O  O272  1  0.74165449  0.63319407  0.49972565  1
  O  O273  1  0.74387693  0.63274275  0.99243730  1
  O  O274  1  0.25456508  0.37450846  0.00774111  1
  O  O275  1  0.25675375  0.36926566  0.50616042  1
  O  O276  1  0.25076772  0.86700609  0.00879437  1
  O  O277  1  0.25642348  0.86786080  0.50622290  1
  O  O278  1  0.74317048  0.37524163  0.01313727  1
  O  O279  1  0.75594077  0.36804521  0.50487563  1
  O  O280  1  0.75211978  0.86678701  -0.00179309  1
  O  O281  1  0.75268223  0.87020061  0.50778217  1
  O  O282  1  0.12701227  0.48725092  0.24969619  1
  O  O283  1  0.13011247  0.49416483  0.74462115  1
  O  O284  1  0.13138023  0.99319478  0.25103002  1
  O  O285  1  0.12529108  0.99168200  0.74360813  1
  O  O286  1  0.62472539  0.49525834  0.24149408  1
  O  O287  1  0.63135178  0.49140400  0.74321510  1
  O  O288  1  0.63111118  0.99104804  0.25675430  1
  O  O289  1  0.62152256  0.98363206  0.74780622  1
  O  O290  1  0.37203805  0.00167475  0.25846984  1
  O  O291  1  0.37411765  0.00486782  0.75862887  1
  O  O292  1  0.37191594  0.50520777  0.25442976  1
  O  O293  1  0.36829298  0.50039738  0.75588856  1
  O  O294  1  0.86590796  0.00089073  0.25906738  1
  O  O295  1  0.87855449  0.01315056  0.74861725  1
  O  O296  1  0.87602712  0.50846878  0.25734114  1
  O  O297  1  0.86856723  0.49726351  0.76161380  1
  O  O298  1  0.12202570  0.36781265  0.36875487  1
  O  O299  1  0.11614271  0.37040954  0.86881464  1
  O  O300  1  0.11890129  0.86927099  0.37152883  1
  O  O301  1  0.11849847  0.86913828  0.87089930  1
  O  O302  1  0.61944780  0.37321062  0.36651209  1
  O  O303  1  0.62115965  0.37844684  0.86346225  1
  O  O304  1  0.62808144  0.86289644  0.36645468  1
  O  O305  1  0.62468593  0.87450490  0.85988553  1
  O  O306  1  0.38461456  0.12461331  0.13063097  1
  O  O307  1  0.38367728  0.12858956  0.62951138  1
  O  O308  1  0.37400784  0.63744984  0.12779573  1
  O  O309  1  0.38175419  0.63040506  0.62595409  1
  O  O310  1  0.88436938  0.13364334  0.12659039  1
  O  O311  1  0.88350966  0.13120121  0.63062771  1
  O  O312  1  0.87948400  0.63172963  0.13046776  1
  O  O313  1  0.88023181  0.63885106  0.61789816  1
  O  O314  1  0.25192887  0.26207995  0.12282759  1
  O  O315  1  0.25587280  0.25525730  0.62014399  1
  O  O316  1  0.25578316  0.75380580  0.12273854  1
  O  O317  1  0.25453768  0.75342638  0.62007222  1
  O  O318  1  0.75878916  0.25924813  0.12249364  1
  O  O319  1  0.75791259  0.25792321  0.61378370  1
  O  O320  1  0.75516606  0.75183426  0.11279482  1
  O  O321  1  0.75672826  0.75660960  0.62066482  1
  O  O322  1  0.24183346  0.24967604  0.38009929  1
  O  O323  1  0.24337308  0.24273833  0.87514701  1
  O  O324  1  0.24330293  0.74280345  0.38194780  1
  O  O325  1  0.24457783  0.74458526  0.88029181  1
  O  O326  1  0.75365266  0.25605253  0.38850523  1
  O  O327  1  0.74683345  0.24586807  0.87748109  1
  O  O328  1  0.73951931  0.74956667  0.38251099  1
  O  O329  1  0.75625216  0.74070242  0.88628976  1
  O  O330  1  0.00457706  0.12019253  0.00812546  1
  O  O331  1  0.00405087  0.11823182  0.50792094  1
  O  O332  1  -0.00147810  0.61748761  0.00597398  1
  O  O333  1  0.00548505  0.61968102  0.50735778  1
  O  O334  1  0.50772436  0.12440699  0.00964863  1
  O  O335  1  0.50716248  0.11690216  0.50646012  1
  O  O336  1  0.50912858  0.62071336  -0.00057437  1
  O  O337  1  0.50588147  0.61897700  0.50535342  1
  O  O338  1  0.49737051  0.37857068  0.49540460  1
  O  O339  1  0.49633886  0.38118664  0.99402972  1
  O  O340  1  0.49439935  0.88621003  0.51012645  1
  O  O341  1  0.49621330  0.87630842  0.99818776  1
  O  O342  1  0.99456923  0.38074344  0.49518894  1
  O  O343  1  1.00605200  0.38367754  0.98798237  1
  O  O344  1  0.99383940  0.88032317  0.49579001  1
  O  O345  1  0.99367950  0.87950717  0.99564783  1
  O  O346  1  0.50053854  0.49317851  0.38209589  1
  O  O347  1  0.49465043  0.49470754  0.87966292  1
  O  O348  1  0.48912861  1.00289587  0.38577228  1
  O  O349  1  0.48781487  0.99526113  0.87639860  1
  O  O350  1  0.99534275  0.49555154  0.38255111  1
  O  O351  1  0.99356914  0.49516499  0.87880613  1
  O  O352  1  0.99252879  0.99374601  0.38032876  1
  O  O353  1  0.99719100  0.99300601  0.88268540  1
  O  O354  1  -0.00023692  0.00992841  0.12023287  1
  O  O355  1  0.00593003  0.00328406  0.61923683  1
  O  O356  1  -0.00285659  0.50478450  0.11526255  1
  O  O357  1  0.00449166  0.50438046  0.62124235  1
  O  O358  1  0.50257711  0.01153877  0.12666965  1
  O  O359  1  0.49309238  0.01081450  0.61371757  1
  O  O360  1  0.50638927  0.50261349  0.11692450  1
  O  O361  1  0.50676774  0.50434486  0.61909254  1
  O  O362  1  0.24283685  0.37524122  0.24226198  1
  O  O363  1  0.24501777  0.37974502  0.74453003  1
  O  O364  1  0.24316484  0.87895208  0.24683576  1
  O  O365  1  0.24195545  0.87401948  0.74323853  1
  O  O366  1  0.74244893  0.37877984  0.23824440  1
  O  O367  1  0.74421931  0.38220482  0.74350689  1
  O  O368  1  0.73941267  0.88305715  0.24907411  1
  O  O369  1  0.73674825  0.87193268  0.74401859  1
  O  O370  1  0.25743153  0.11786313  0.25033133  1
  O  O371  1  0.25814351  0.12139104  0.75698410  1
  O  O372  1  0.24804428  0.62519322  0.26296102  1
  O  O373  1  0.25056014  0.61761566  0.75699425  1
  O  O374  1  0.74756498  0.11216346  0.24623578  1
  O  O375  1  0.76191102  0.12532776  0.74321101  1
  O  O376  1  0.75794724  0.62427763  0.25132601  1
  O  O377  1  0.73814884  0.61989598  0.76276464  1
  O  O378  1  0.37517869  0.11326565  0.36850851  1
  O  O379  1  0.37190369  0.11734652  0.87019437  1
  O  O380  1  0.36251652  0.62520697  0.37603306  1
  O  O381  1  0.36661261  0.61633783  0.87371129  1
  O  O382  1  0.88331218  0.11179813  0.37366537  1
  O  O383  1  0.87688020  0.12663935  0.86092612  1
  O  O384  1  0.87459185  0.62040980  0.37009677  1
  O  O385  1  0.86283851  0.61585901  0.87805011  1
  O  O386  1  0.13204694  0.37476214  0.13313778  1
  O  O387  1  0.13086150  0.38008878  0.63000911  1
  O  O388  1  0.12981438  0.87573509  0.13404621  1
  O  O389  1  0.12971584  0.87863314  0.63022042  1
  O  O390  1  0.63154761  0.38106326  0.12922769  1
  O  O391  1  0.63074099  0.38066826  0.63052958  1
  O  O392  1  0.62633061  0.87738235  0.13900298  1
  O  O393  1  0.63627848  0.86894438  0.63417331  1
  O  O394  1  0.12502772  0.26038318  0.25927354  1
  O  O395  1  0.11991107  0.25528941  0.75470423  1
  O  O396  1  0.11666202  0.75599387  0.25731448  1
  O  O397  1  0.11776831  0.75598014  0.75637405  1
  O  O398  1  0.61959229  0.25696079  0.25046837  1
  O  O399  1  0.62714600  0.26430236  0.74564488  1
  O  O400  1  0.61937895  0.75642276  0.25613604  1
  O  O401  1  0.61298887  0.75965224  0.74533154  1
  O  O402  1  0.38284452  0.24148533  0.24811743  1
  O  O403  1  0.37815851  0.24218696  0.74249565  1
  O  O404  1  0.38208823  0.75000145  0.24526027  1
  O  O405  1  0.38411592  0.74802824  0.74204411  1
  O  O406  1  0.87749583  0.24739449  0.23863909  1
  O  O407  1  0.88135557  0.24401075  0.74234179  1
  O  O408  1  0.87852158  0.74765258  0.24620368  1
  O  O409  1  0.87900402  0.75710069  0.73811291  1
  O  O410  1  0.38327363  0.49164943  0.49958493  1
  O  O411  1  0.38076312  0.49440250  0.99400603  1
  O  O412  1  0.38290641  0.99509504  0.49343641  1
  O  O413  1  0.37688640  0.99780467  0.98972976  1
  O  O414  1  0.88024506  0.49503439  0.49550061  1
  O  O415  1  0.88572514  0.50343103  0.98713100  1
  O  O416  1  0.87968357  0.99555499  0.49354610  1
  O  O417  1  0.88023553  0.99383816  0.99994052  1
  O  O418  1  0.11703012  0.00663540  0.00325790  1
  O  O419  1  0.11912209  -0.00057555  0.50601685  1
  O  O420  1  0.10926313  0.50340694  0.00032653  1
  O  O421  1  0.11867308  0.50365622  0.50645035  1
  O  O422  1  0.62231726  0.01045363  0.00183605  1
  O  O423  1  0.61474914  0.00689363  0.49184112  1
  O  O424  1  0.62006705  0.50875602  0.00488544  1
  O  O425  1  0.62102462  0.50460025  0.50494738  1
  O  O426  1  0.36671272  0.37417993  0.11880684  1
  O  O427  1  0.37098775  0.36831103  0.61988985  1
  O  O428  1  0.36760016  0.86280478  0.12728956  1
  O  O429  1  0.36908384  0.86891196  0.61997974  1
  O  O430  1  0.86614891  0.36754859  0.13019003  1
  O  O431  1  0.87158317  0.37096957  0.61857400  1
  O  O432  1  0.87306766  0.86845307  0.11767517  1
  O  O433  1  0.86756574  0.86555148  0.62017682  1
  O  O434  1  0.12566340  0.13756936  0.37526351  1
  O  O435  1  0.12935052  0.12953769  0.87910727  1
  O  O436  1  0.13029112  0.63023293  0.38146169  1
  O  O437  1  0.13061406  0.63247721  0.87676765  1
  O  O438  1  0.62016712  0.12999264  0.38978375  1
  O  O439  1  0.62351171  0.12628632  0.88441093  1
  O  O440  1  0.62623933  0.63601115  0.38103832  1
  O  O441  1  0.63609861  0.61685910  0.88819940  1
