# generated using pymatgen
data_V93Zn93O256
_symmetry_space_group_name_H-M   'P 1'
_cell_length_a   17.04492450
_cell_length_b   17.04523090
_cell_length_c   17.04320499
_cell_angle_alpha   90.01498861
_cell_angle_beta   90.04192245
_cell_angle_gamma   89.99360038
_symmetry_Int_Tables_number   1
_chemical_formula_structural   V93Zn93O256
_chemical_formula_sum   'V93 Zn93 O256'
_cell_volume   4951.64047476
_cell_formula_units_Z   1
loop_
 _symmetry_equiv_pos_site_id
 _symmetry_equiv_pos_as_xyz
  1  'x, y, z'
loop_
 _atom_site_type_symbol
 _atom_site_label
 _atom_site_symmetry_multiplicity
 _atom_site_fract_x
 _atom_site_fract_y
 _atom_site_fract_z
 _atom_site_occupancy
  V  V0  1  0.62716074  0.25085883  0.37551952  1
  V  V1  1  0.00137757  0.25211583  0.25165999  1
  V  V2  1  0.12571732  0.00162807  0.12656986  1
  V  V3  1  0.87796617  0.49977509  0.37480946  1
  V  V4  1  0.87553632  0.62327117  0.74511082  1
  V  V5  1  0.50324717  0.11843906  0.62518000  1
  V  V6  1  0.37641670  0.00022868  0.37738784  1
  V  V7  1  0.37217781  0.24817680  0.61810446  1
  V  V8  1  0.75119800  0.00210527  0.24845183  1
  V  V9  1  0.00067327  0.87725724  0.37546756  1
  V  V10  1  0.12499170  0.50091828  0.12719404  1
  V  V11  1  0.12465439  -0.00062749  0.62617792  1
  V  V12  1  0.75117598  0.24931334  0.49886371  1
  V  V13  1  0.37562842  0.12547808  0.25131048  1
  V  V14  1  0.74555633  -0.00149818  0.74237857  1
  V  V15  1  0.13296536  0.25201137  0.38041740  1
  V  V16  1  0.24900639  0.62476057  0.87530313  1
  V  V17  1  0.37637823  0.87362949  0.50103167  1
  V  V18  1  0.12625308  0.75031606  0.37695140  1
  V  V19  1  0.25082496  0.50149180  0.25130426  1
  V  V20  1  0.50080684  0.87420166  0.37411301  1
  V  V21  1  0.50172929  0.37145379  0.87507667  1
  V  V22  1  0.50052209  0.62543695  0.12428371  1
  V  V23  1  0.37454436  0.75046122  0.12420164  1
  V  V24  1  0.12406636  0.25024734  0.87702977  1
  V  V25  1  0.24934330  0.36954940  0.61918797  1
  V  V26  1  0.74253666  0.12813299  0.87512005  1
  V  V27  1  -0.00090825  0.87383240  0.87437411  1
  V  V28  1  -0.00059151  0.00016591  0.50020798  1
  V  V29  1  0.00020016  0.00051467  0.00043021  1
  V  V30  1  0.74924719  0.75153077  -0.00187605  1
  V  V31  1  0.74899135  0.62394437  0.87266277  1
  V  V32  1  0.62601516  0.11851484  0.50305288  1
  V  V33  1  0.87567474  0.12755510  0.24992253  1
  V  V34  1  0.13275989  0.13024231  0.50177793  1
  V  V35  1  0.25012021  0.87607382  0.12671107  1
  V  V36  1  0.37296811  -0.00081052  0.87396993  1
  V  V37  1  0.12469759  0.62532406  -0.00033201  1
  V  V38  1  0.62541995  0.00230014  0.12208431  1
  V  V39  1  0.12459216  0.12553856  0.00207333  1
  V  V40  1  0.50200018  0.37966034  0.38434658  1
  V  V41  1  0.74917248  0.62572185  0.37278535  1
  V  V42  1  0.62531469  0.87603030  0.24882104  1
  V  V43  1  0.62640373  0.37597576  0.24789809  1
  V  V44  1  0.24868261  0.49777126  0.75119765  1
  V  V45  1  0.62012170  0.49740489  0.61744147  1
  V  V46  1  0.75062571  0.87631940  0.12232188  1
  V  V47  1  0.37368908  0.37229474  0.00373607  1
  V  V48  1  0.37527591  0.62453764  0.25056885  1
  V  V49  1  0.50161042  0.00080743  -0.00064048  1
  V  V50  1  0.87630972  0.00174805  0.37373403  1
  V  V51  1  0.87406886  -0.00010156  0.87426657  1
  V  V52  1  0.87541446  0.74772039  0.62248846  1
  V  V53  1  0.37516914  0.62284183  0.74946955  1
  V  V54  1  0.49776590  0.61773436  0.61784187  1
  V  V55  1  0.24904121  0.87460866  0.62613827  1
  V  V56  1  0.87607812  0.62707707  0.24815838  1
  V  V57  1  0.62451213  0.87590864  0.74177643  1
  V  V58  1  0.50075934  0.75130181  0.24889307  1
  V  V59  1  -0.00041511  0.62667177  0.12465929  1
  V  V60  1  0.37418335  0.74754743  0.62572309  1
  V  V61  1  0.00019562  0.12402421  0.62623118  1
  V  V62  1  0.12605975  0.37714515  0.25306462  1
  V  V63  1  0.87562431  0.37597382  0.49982675  1
  V  V64  1  0.11839753  0.62557377  0.50385063  1
  V  V65  1  -0.00079675  0.74638468  0.74570311  1
  V  V66  1  0.87393627  0.87503555  -0.00149398  1
  V  V67  1  0.11852070  0.50330135  0.62654032  1
  V  V68  1  0.12366135  0.74941203  0.87460698  1
  V  V69  1  0.50140404  0.24800582  0.75390086  1
  V  V70  1  0.37406599  0.49841400  0.87550784  1
  V  V71  1  0.87569609  0.25045284  0.62476691  1
  V  V72  1  0.62235421  0.75059227  0.87056098  1
  V  V73  1  0.62394908  0.62517672  -0.00275399  1
  V  V74  1  0.74547177  0.25085317  -0.00311168  1
  V  V75  1  0.74876922  0.37446556  0.62535437  1
  V  V76  1  -0.00372955  0.49442159  -0.00047728  1
  V  V77  1  0.75532000  0.37681536  0.11855248  1
  V  V78  1  0.12597464  0.87772419  0.25118609  1
  V  V79  1  0.62722354  0.50106142  0.12347622  1
  V  V80  1  0.49992011  0.49900569  -0.00054006  1
  V  V81  1  0.12395897  0.37392270  0.75298121  1
  V  V82  1  0.62412881  0.37134491  0.75370679  1
  V  V83  1  0.37919532  0.50099148  0.38354569  1
  V  V84  1  0.87354874  0.12409545  0.74984984  1
  V  V85  1  0.00073774  0.75162182  0.24912544  1
  V  V86  1  0.37363878  0.87489306  0.00068226  1
  V  V87  1  0.87694569  0.25430570  0.11940396  1
  V  V88  1  0.24985764  0.12583904  0.87555774  1
  V  V89  1  0.87459374  0.49497444  0.87685203  1
  V  V90  1  0.50019348  0.25076698  0.24911230  1
  V  V91  1  0.74791734  0.74861522  0.49912573  1
  V  V92  1  -0.00051087  0.24940281  0.75224980  1
  Zn  Zn93  1  0.50760116  -0.00574235  0.50594237  1
  Zn  Zn94  1  0.74843707  0.49872377  0.74924522  1
  Zn  Zn95  1  0.75153119  0.50082950  0.24670723  1
  Zn  Zn96  1  0.61914260  0.61965581  0.49497030  1
  Zn  Zn97  1  0.24925479  0.75022759  -0.00028255  1
  Zn  Zn98  1  0.87356664  0.87598668  0.49982090  1
  Zn  Zn99  1  0.37501299  0.12377098  0.74880617  1
  Zn  Zn100  1  0.00152819  0.12680842  0.12565043  1
  Zn  Zn101  1  0.24946951  0.00342100  0.25278962  1
  Zn  Zn102  1  0.00236612  0.37586629  0.37912466  1
  Zn  Zn103  1  0.62132334  0.12993229  -0.00317333  1
  Zn  Zn104  1  0.37303513  0.24884487  0.12681305  1
  Zn  Zn105  1  0.25586837  0.13030194  0.38204159  1
  Zn  Zn106  1  0.74996037  0.12541598  0.37487254  1
  Zn  Zn107  1  0.49760412  0.87336602  0.87144522  1
  Zn  Zn108  1  0.24958425  0.25069533  0.00494861  1
  Zn  Zn109  1  0.24730369  -0.00098818  0.75123704  1
  Zn  Zn110  1  0.25055007  0.37401192  0.12715452  1
  Zn  Zn111  1  0.37485246  0.37471762  0.50088402  1
  Zn  Zn112  1  0.24854525  0.74755559  0.50051650  1
  Zn  Zn113  1  -0.00357376  0.50302923  0.50701617  1
  Zn  Zn114  1  0.87518232  0.75104263  0.12280527  1
  Zn  Zn115  1  0.62410370  0.74885157  0.37391982  1
  Zn  Zn116  1  0.50191451  0.12722931  0.12372175  1
  Zn  Zn117  1  -0.00541691  0.37119477  0.88005244  1
  Zn  Zn118  1  0.49977695  0.74860547  0.74754478  1
  Zn  Zn119  1  0.12319131  0.87565370  0.75033160  1
  Zn  Zn120  1  0.25057128  0.62591409  0.37820259  1
  Zn  Zn121  1  0.74452427  0.87813358  0.61842369  1
  Zn  Zn122  1  0.19043720  0.19042039  0.18974082  1
  Zn  Zn123  1  0.18762341  0.18683417  0.69050228  1
  Zn  Zn124  1  0.18835526  0.68828918  0.18896121  1
  Zn  Zn125  1  0.18722209  0.68642572  0.68792137  1
  Zn  Zn126  1  0.68809333  0.18733473  0.18507961  1
  Zn  Zn127  1  0.68674733  0.18726022  0.68622069  1
  Zn  Zn128  1  0.68781236  0.69000705  0.18609590  1
  Zn  Zn129  1  0.68689883  0.68457654  0.68459110  1
  Zn  Zn130  1  0.31372788  0.31644406  0.31392115  1
  Zn  Zn131  1  0.31366896  0.31042496  0.81021200  1
  Zn  Zn132  1  0.31125813  0.81220620  0.31271361  1
  Zn  Zn133  1  0.31120739  0.81059199  0.81112616  1
  Zn  Zn134  1  0.81227591  0.31369531  0.30942192  1
  Zn  Zn135  1  0.81040653  0.31101746  0.81167670  1
  Zn  Zn136  1  0.81460399  0.81447264  0.31124075  1
  Zn  Zn137  1  0.81031085  0.81272515  0.81079243  1
  Zn  Zn138  1  0.18902594  0.44172182  0.43833149  1
  Zn  Zn139  1  0.18607151  0.43742406  0.93936793  1
  Zn  Zn140  1  0.18893503  0.93983220  0.44001499  1
  Zn  Zn141  1  0.18607720  0.93613253  0.93995591  1
  Zn  Zn142  1  0.69041700  0.43705682  0.43642711  1
  Zn  Zn143  1  0.68859843  0.43702019  0.93645204  1
  Zn  Zn144  1  0.68981601  0.93641612  0.43315581  1
  Zn  Zn145  1  0.68662577  0.93778670  0.93143129  1
  Zn  Zn146  1  0.31322564  0.06329561  0.06481047  1
  Zn  Zn147  1  0.31570536  0.05949901  0.56475994  1
  Zn  Zn148  1  0.31093670  0.56190419  0.06324775  1
  Zn  Zn149  1  0.30490603  0.56144845  0.56338250  1
  Zn  Zn150  1  0.81385315  0.06607033  0.06193433  1
  Zn  Zn151  1  0.81314240  0.06387703  0.56083495  1
  Zn  Zn152  1  0.81348134  0.56489440  0.05951304  1
  Zn  Zn153  1  0.80809388  0.56135308  0.56200377  1
  Zn  Zn154  1  0.43906494  0.43916560  0.19031304  1
  Zn  Zn155  1  0.43649078  0.43537001  0.68679102  1
  Zn  Zn156  1  0.43797770  0.93918796  0.18708835  1
  Zn  Zn157  1  0.43729386  0.93488371  0.68983229  1
  Zn  Zn158  1  0.93960751  0.43791728  0.18970983  1
  Zn  Zn159  1  0.93729934  0.43455422  0.69113639  1
  Zn  Zn160  1  0.93818999  0.93862380  0.18619665  1
  Zn  Zn161  1  0.93396706  0.93374092  0.68608141  1
  Zn  Zn162  1  0.06296832  0.06695192  0.31377933  1
  Zn  Zn163  1  0.06320668  0.06162239  0.81295646  1
  Zn  Zn164  1  0.06288804  0.56607072  0.31456685  1
  Zn  Zn165  1  0.06036293  0.56256503  0.81308232  1
  Zn  Zn166  1  0.56359466  0.06271087  0.31465498  1
  Zn  Zn167  1  0.56228355  0.05975987  0.81059922  1
  Zn  Zn168  1  0.56263404  0.56099080  0.30992058  1
  Zn  Zn169  1  0.56046824  0.55824114  0.80748265  1
  Zn  Zn170  1  0.44274758  0.18815731  0.43809385  1
  Zn  Zn171  1  0.43624351  0.18688016  0.93711897  1
  Zn  Zn172  1  0.43597702  0.68925541  0.43744629  1
  Zn  Zn173  1  0.43676803  0.68714336  0.93703455  1
  Zn  Zn174  1  0.94230592  0.18775082  0.43670557  1
  Zn  Zn175  1  0.93502272  0.18564198  0.93824191  1
  Zn  Zn176  1  0.93904148  0.68757057  0.43651778  1
  Zn  Zn177  1  0.93652478  0.68474890  0.93534992  1
  Zn  Zn178  1  0.06532685  0.31345848  0.06508550  1
  Zn  Zn179  1  0.06093352  0.31469450  0.56354862  1
  Zn  Zn180  1  0.06346707  0.81337061  0.06243126  1
  Zn  Zn181  1  0.06115524  0.81245182  0.56205204  1
  Zn  Zn182  1  0.56420312  0.31410335  0.06304051  1
  Zn  Zn183  1  0.56341072  0.30556988  0.56590704  1
  Zn  Zn184  1  0.56189835  0.81501623  0.06069432  1
  Zn  Zn185  1  0.55997330  0.80508645  0.56095950  1
  O  O186  1  0.12533207  0.12022316  0.12011479  1
  O  O187  1  0.11973089  0.12124888  0.62050328  1
  O  O188  1  0.11902333  0.62039509  0.12075764  1
  O  O189  1  0.13108065  0.61307620  0.61877521  1
  O  O190  1  0.62245345  0.11697451  0.12076920  1
  O  O191  1  0.61494795  0.13191275  0.61495954  1
  O  O192  1  0.62056906  0.62132360  0.11750234  1
  O  O193  1  0.61568724  0.61416379  0.62506681  1
  O  O194  1  0.38456329  0.38249917  0.37815153  1
  O  O195  1  0.38039646  0.37905903  0.88296080  1
  O  O196  1  0.38069470  0.88155332  0.37927690  1
  O  O197  1  0.37319363  0.88344510  0.88055591  1
  O  O198  1  0.87264625  0.38553798  0.37966359  1
  O  O199  1  0.87444193  0.39102377  0.86603319  1
  O  O200  1  0.88312026  0.88314584  0.37513733  1
  O  O201  1  0.87853789  0.88021610  0.87922874  1
  O  O202  1  0.26523786  0.00193547  0.37496752  1
  O  O203  1  0.25693640  0.00724074  0.87729692  1
  O  O204  1  0.26117587  0.50181887  0.36849295  1
  O  O205  1  0.25420372  0.50479246  0.87046614  1
  O  O206  1  0.75822575  0.00192585  0.36574151  1
  O  O207  1  0.75564788  0.00769523  0.86566495  1
  O  O208  1  0.75964800  0.50948287  0.37292104  1
  O  O209  1  0.75764352  0.50577335  0.87292709  1
  O  O210  1  0.24266867  0.49977823  0.13310339  1
  O  O211  1  0.24133725  0.48954587  0.63303654  1
  O  O212  1  0.24412361  0.99423612  0.12821887  1
  O  O213  1  0.24559681  0.99045672  0.62746024  1
  O  O214  1  0.74692171  0.49281930  0.12206269  1
  O  O215  1  0.74071136  0.49210508  0.62805813  1
  O  O216  1  0.74587953  0.99538050  0.12803109  1
  O  O217  1  0.75564338  0.99888874  0.63848999  1
  O  O218  1  0.00786697  0.37009978  0.25453080  1
  O  O219  1  0.00636543  0.36621633  0.75404190  1
  O  O220  1  0.00653653  0.87159488  0.25519212  1
  O  O221  1  -0.00234040  0.86294894  0.75604917  1
  O  O222  1  0.50598790  0.36762307  0.25788082  1
  O  O223  1  0.50537215  0.36687113  0.75413511  1
  O  O224  1  0.50549169  0.87044627  0.25348939  1
  O  O225  1  0.50976434  0.87121862  0.75283827  1
  O  O226  1  0.49304600  0.13527394  0.25288930  1
  O  O227  1  0.50183375  0.13186215  0.74337883  1
  O  O228  1  0.49587062  0.63066658  0.24273077  1
  O  O229  1  0.49191230  0.62334872  0.73911777  1
  O  O230  1  0.99442924  0.13449357  0.24778213  1
  O  O231  1  0.99351372  0.12932634  0.74601582  1
  O  O232  1  0.99558735  0.63175883  0.24430010  1
  O  O233  1  0.98759816  0.63611001  0.75634438  1
  O  O234  1  0.37626864  0.26087559  0.00253194  1
  O  O235  1  0.38058436  0.25084306  0.51422874  1
  O  O236  1  0.37459311  0.75626196  0.00612703  1
  O  O237  1  0.37184541  0.75639633  0.50748853  1
  O  O238  1  0.86605702  0.24545750  0.01230921  1
  O  O239  1  0.87163675  0.25454214  0.50519976  1
  O  O240  1  0.86725074  0.75617571  -0.00248991  1
  O  O241  1  0.86764803  0.74814544  0.50672650  1
  O  O242  1  0.11770164  0.24073373  0.49339460  1
  O  O243  1  0.12594590  0.24426492  0.99451092  1
  O  O244  1  0.12401783  0.74238995  0.49600462  1
  O  O245  1  0.12468773  0.74299193  0.99275053  1
  O  O246  1  0.63192691  0.24227902  0.49503661  1
  O  O247  1  0.63980429  0.24817726  1.00562538  1
  O  O248  1  0.63632568  0.74419208  0.49596470  1
  O  O249  1  0.62813268  0.74575154  0.98985442  1
  O  O250  1  0.49977441  0.25085092  0.13892743  1
  O  O251  1  0.49158069  0.24083587  0.63365237  1
  O  O252  1  0.49517233  0.74524853  0.12870212  1
  O  O253  1  0.49208136  0.73733076  0.62757521  1
  O  O254  1  0.99154779  0.25196114  0.13079000  1
  O  O255  1  0.99467236  0.24405820  0.63235211  1
  O  O256  1  0.99920652  0.74463980  0.13088086  1
  O  O257  1  0.98893208  0.75433452  0.63504092  1
  O  O258  1  0.01163996  0.25277421  0.36921702  1
  O  O259  1  0.00369717  0.25048108  0.87083557  1
  O  O260  1  0.00599594  0.75711569  0.36906400  1
  O  O261  1  0.00297279  0.75407841  0.86639513  1
  O  O262  1  0.50656061  0.25897764  0.36642070  1
  O  O263  1  0.49401203  0.25390931  0.86196866  1
  O  O264  1  0.50086018  0.75614883  0.36714108  1
  O  O265  1  0.51103802  0.74900688  0.87215142  1
  O  O266  1  0.23621587  0.11997947  0.50309703  1
  O  O267  1  0.24531571  0.12557075  0.99047713  1
  O  O268  1  0.23567153  0.62700457  0.49837730  1
  O  O269  1  0.24311613  0.62573280  0.99338184  1
  O  O270  1  0.74246263  0.13163996  0.49976991  1
  O  O271  1  0.74852178  0.13170255  0.99098022  1
  O  O272  1  0.74968296  0.63217675  0.48825955  1
  O  O273  1  0.74250787  0.63089941  0.99283722  1
  O  O274  1  0.26234482  0.37547714  0.00144875  1
  O  O275  1  0.24944708  0.37827605  0.51639802  1
  O  O276  1  0.25589537  0.87309935  0.00830160  1
  O  O277  1  0.25636135  0.87486390  0.51228556  1
  O  O278  1  0.74617709  0.36741288  0.01013207  1
  O  O279  1  0.75589934  0.36854190  0.50578747  1
  O  O280  1  0.75415241  0.87138152  0.00199256  1
  O  O281  1  0.75165457  0.86310410  0.49885211  1
  O  O282  1  0.12965539  0.49768753  0.24749516  1
  O  O283  1  0.12876671  0.49570250  0.74538779  1
  O  O284  1  0.12644096  0.99588321  0.24579260  1
  O  O285  1  0.12561005  0.99668923  0.74227672  1
  O  O286  1  0.62867423  0.49456638  0.24082806  1
  O  O287  1  0.62522143  0.48757770  0.73913241  1
  O  O288  1  0.63027155  0.99582937  0.24357627  1
  O  O289  1  0.63465123  0.98817075  0.75601591  1
  O  O290  1  0.37801338  0.00939772  0.25970272  1
  O  O291  1  0.37347772  0.00059127  0.76381113  1
  O  O292  1  0.37122256  0.50563161  0.25795083  1
  O  O293  1  0.36861169  0.50226881  0.75647247  1
  O  O294  1  0.87108525  0.00689367  0.25317895  1
  O  O295  1  0.86690071  0.00408979  0.75471495  1
  O  O296  1  0.87317706  0.50722323  0.25794284  1
  O  O297  1  0.87523399  0.50945618  0.75574748  1
  O  O298  1  0.12472194  0.36922623  0.37270492  1
  O  O299  1  0.12337133  0.36807987  0.87025813  1
  O  O300  1  0.12020280  0.87221636  0.37141242  1
  O  O301  1  0.11769387  0.86822522  0.87359341  1
  O  O302  1  0.62015027  0.37255363  0.36861730  1
  O  O303  1  0.61839993  0.38146656  0.86210071  1
  O  O304  1  0.61869674  0.87374112  0.36630020  1
  O  O305  1  0.62458140  0.86370284  0.86507547  1
  O  O306  1  0.38092752  0.12559350  0.13776364  1
  O  O307  1  0.38191291  0.13174615  0.62763966  1
  O  O308  1  0.38160823  0.62949732  0.12932232  1
  O  O309  1  0.37870483  0.62544263  0.62927068  1
  O  O310  1  0.87649544  0.13700597  0.13130466  1
  O  O311  1  0.88055864  0.13098562  0.63041072  1
  O  O312  1  0.88087314  0.62795052  0.12997647  1
  O  O313  1  0.86786909  0.63378221  0.63458129  1
  O  O314  1  0.25552575  0.25601315  0.12296036  1
  O  O315  1  0.26034385  0.25872877  0.63662987  1
  O  O316  1  0.25721604  0.75678266  0.12407662  1
  O  O317  1  0.25474088  0.75871948  0.62500262  1
  O  O318  1  0.75752200  0.25780102  0.11808621  1
  O  O319  1  0.75649035  0.25476027  0.61965304  1
  O  O320  1  0.75017530  0.75813374  0.11573636  1
  O  O321  1  0.75678250  0.74733589  0.61346020  1
  O  O322  1  0.23755602  0.25104028  0.37383268  1
  O  O323  1  0.24511956  0.24002432  0.87621573  1
  O  O324  1  0.24181463  0.74893632  0.37869070  1
  O  O325  1  0.24231023  0.74254855  0.87544303  1
  O  O326  1  0.74473489  0.25055491  0.38087791  1
  O  O327  1  0.75936492  0.24029745  0.88543546  1
  O  O328  1  0.75200367  0.74130045  0.38098934  1
  O  O329  1  0.74044309  0.74444938  0.87823380  1
  O  O330  1  0.00651814  0.11801831  0.00124350  1
  O  O331  1  0.00870216  0.11947684  0.50774735  1
  O  O332  1  0.00498622  0.61723704  0.00445358  1
  O  O333  1  0.01263742  0.62277802  0.49790817  1
  O  O334  1  0.50119803  0.11459883  0.00008055  1
  O  O335  1  0.50964158  0.12433770  0.50874300  1
  O  O336  1  0.50488622  0.61884679  0.00458552  1
  O  O337  1  0.50052486  0.62881138  0.51316456  1
  O  O338  1  0.50210877  0.36739652  0.48647356  1
  O  O339  1  0.49449201  0.37911376  0.99513229  1
  O  O340  1  0.49557089  0.87513416  0.49421282  1
  O  O341  1  0.49350415  0.88512025  0.99577277  1
  O  O342  1  0.99062141  0.37964962  0.49882653  1
  O  O343  1  1.00406886  0.39060465  1.00051761  1
  O  O344  1  0.99802688  0.88245823  0.49343173  1
  O  O345  1  0.99417054  0.88036791  0.99380695  1
  O  O346  1  0.49187172  0.49016134  0.36793425  1
  O  O347  1  0.49384739  0.49337493  0.88036254  1
  O  O348  1  0.49051799  0.99340428  0.37634329  1
  O  O349  1  0.49031757  0.99974097  0.88244378  1
  O  O350  1  0.98624591  0.50097534  0.37647956  1
  O  O351  1  0.99206707  0.49943744  0.88289231  1
  O  O352  1  0.99581051  0.99676159  0.38029482  1
  O  O353  1  0.99398156  0.99450065  0.87976219  1
  O  O354  1  0.00724584  0.00218223  0.11796447  1
  O  O355  1  0.00325735  0.00434929  0.62127409  1
  O  O356  1  0.00357282  0.50667595  0.11834154  1
  O  O357  1  0.01483576  0.49351810  0.62813271  1
  O  O358  1  0.50558044  -0.00000299  0.11371761  1
  O  O359  1  0.49216834  0.01442081  0.62520453  1
  O  O360  1  0.50689295  0.50576278  0.11945838  1
  O  O361  1  0.50726258  0.50574048  0.62883271  1
  O  O362  1  0.24432086  0.38432891  0.25003056  1
  O  O363  1  0.24364453  0.37940709  0.74431672  1
  O  O364  1  0.24353823  0.87820390  0.24447041  1
  O  O365  1  0.24726329  0.87569058  0.73794921  1
  O  O366  1  0.74404115  0.37615960  0.23651600  1
  O  O367  1  0.73919936  0.37256187  0.74400532  1
  O  O368  1  0.74587472  0.88164920  0.24285613  1
  O  O369  1  0.74233223  0.88245784  0.74840587  1
  O  O370  1  0.26484395  0.12533593  0.25586121  1
  O  O371  1  0.25142341  0.12131342  0.76391869  1
  O  O372  1  0.25781683  0.61968784  0.25250157  1
  O  O373  1  0.25512158  0.61751734  0.75573888  1
  O  O374  1  0.75667793  0.11982958  0.25103851  1
  O  O375  1  0.75303661  0.11939137  0.75511952  1
  O  O376  1  0.75583049  0.62643179  0.25758965  1
  O  O377  1  0.75924823  0.62337806  0.75474142  1
  O  O378  1  0.37753855  0.11813436  0.37106512  1
  O  O379  1  0.36600921  0.11597373  0.87561977  1
  O  O380  1  0.37685498  0.61690826  0.36868384  1
  O  O381  1  0.36981398  0.61792892  0.87079481  1
  O  O382  1  0.87473945  0.12020366  0.36821041  1
  O  O383  1  0.86592973  0.11893378  0.86839979  1
  O  O384  1  0.86809561  0.61899629  0.36923804  1
  O  O385  1  0.86850628  0.61747046  0.86499765  1
  O  O386  1  0.12574919  0.38426399  0.13439930  1
  O  O387  1  0.13192954  0.37942961  0.63272142  1
  O  O388  1  0.12992602  0.88128404  0.13108502  1
  O  O389  1  0.13337464  0.88005488  0.62464032  1
  O  O390  1  0.63406737  0.38191856  0.12796739  1
  O  O391  1  0.62750868  0.37928876  0.63153647  1
  O  O392  1  0.63093523  0.88207423  0.12853607  1
  O  O393  1  0.62592317  0.86479264  0.63740053  1
  O  O394  1  0.12117663  0.25629757  0.25950294  1
  O  O395  1  0.11829362  0.25312479  0.75745714  1
  O  O396  1  0.11952719  0.75677856  0.25589077  1
  O  O397  1  0.11342152  0.74857132  0.75436410  1
  O  O398  1  0.61880967  0.25509459  0.25443389  1
  O  O399  1  0.61356932  0.26087888  0.74106819  1
  O  O400  1  0.61853809  0.75795099  0.24937945  1
  O  O401  1  0.62668181  0.75478993  0.75763177  1
  O  O402  1  0.38506318  0.24339521  0.25423603  1
  O  O403  1  0.38615376  0.24829201  0.74075067  1
  O  O404  1  0.38138432  0.74534289  0.24389074  1
  O  O405  1  0.37571939  0.74082872  0.74404933  1
  O  O406  1  0.88046534  0.24738848  0.24166804  1
  O  O407  1  0.87906345  0.24391614  0.74441633  1
  O  O408  1  0.88304201  0.74529885  0.24767724  1
  O  O409  1  0.87864254  0.74246602  0.74347711  1
  O  O410  1  0.36915570  0.49921413  0.48680103  1
  O  O411  1  0.38078749  0.49264734  0.99536947  1
  O  O412  1  0.37950637  0.99336134  0.49179682  1
  O  O413  1  0.38229732  0.99586850  0.99313851  1
  O  O414  1  0.87453213  0.49644899  0.49213833  1
  O  O415  1  0.88473659  0.50936110  0.98808203  1
  O  O416  1  0.88133111  1.00003776  0.49325124  1
  O  O417  1  0.87974575  0.99557041  0.99401077  1
  O  O418  1  0.11928445  0.00535886  0.00602238  1
  O  O419  1  0.11880579  0.00890725  0.50613101  1
  O  O420  1  0.11664844  0.50658266  0.00548646  1
  O  O421  1  0.12297530  0.50679122  0.50945005  1
  O  O422  1  0.61509189  -0.00113343  0.00149597  1
  O  O423  1  0.62631793  0.01365140  0.49313921  1
  O  O424  1  0.61928762  0.50556581  0.00331955  1
  O  O425  1  0.63023922  0.49954344  0.51297359  1
  O  O426  1  0.37749169  0.37655932  0.11410084  1
  O  O427  1  0.36786213  0.36754976  0.62344095  1
  O  O428  1  0.37037886  0.87061916  0.12093932  1
  O  O429  1  0.36862276  0.86935604  0.62164496  1
  O  O430  1  0.86593636  0.36696558  0.13104183  1
  O  O431  1  0.86917205  0.36985205  0.62130516  1
  O  O432  1  0.86859295  0.87465695  0.11653681  1
  O  O433  1  0.86799576  0.86055577  0.62283618  1
  O  O434  1  0.12811060  0.13375715  0.38488721  1
  O  O435  1  0.13215101  0.12898717  0.88126065  1
  O  O436  1  0.12634841  0.63200509  0.38408120  1
  O  O437  1  0.12948170  0.62935175  0.87961996  1
  O  O438  1  0.62567386  0.13312908  0.38433898  1
  O  O439  1  0.63932670  0.12078286  0.87439775  1
  O  O440  1  0.63597069  0.62463469  0.37429034  1
  O  O441  1  0.62764414  0.63034119  0.87670286  1
