# generated using pymatgen
data_V93Zn93O256
_symmetry_space_group_name_H-M   'P 1'
_cell_length_a   17.04510225
_cell_length_b   17.04344120
_cell_length_c   17.04337116
_cell_angle_alpha   89.99685523
_cell_angle_beta   89.98351859
_cell_angle_gamma   89.96733302
_symmetry_Int_Tables_number   1
_chemical_formula_structural   V93Zn93O256
_chemical_formula_sum   'V93 Zn93 O256'
_cell_volume   4951.22098264
_cell_formula_units_Z   1
loop_
 _symmetry_equiv_pos_site_id
 _symmetry_equiv_pos_as_xyz
  1  'x, y, z'
loop_
 _atom_site_type_symbol
 _atom_site_label
 _atom_site_symmetry_multiplicity
 _atom_site_fract_x
 _atom_site_fract_y
 _atom_site_fract_z
 _atom_site_occupancy
  V  V0  1  0.37729215  0.62539896  0.25197565  1
  V  V1  1  0.62354915  0.62293656  0.00234028  1
  V  V2  1  0.37390226  0.74921195  0.62655206  1
  V  V3  1  0.62859456  0.12375537  -0.00311607  1
  V  V4  1  0.75215723  0.37331313  0.62444277  1
  V  V5  1  0.12864681  0.49968899  0.62606052  1
  V  V6  1  0.49678050  0.49493526  0.00117572  1
  V  V7  1  0.12599444  0.75085696  0.37624685  1
  V  V8  1  0.75146588  0.37385429  0.12597801  1
  V  V9  1  0.49688994  0.12657055  0.62334939  1
  V  V10  1  0.62340718  0.87426076  0.25062872  1
  V  V11  1  -0.00105328  0.00109707  -0.00002092  1
  V  V12  1  0.62166525  0.87497687  0.75003286  1
  V  V13  1  -0.00364154  0.87703057  0.87452132  1
  V  V14  1  0.75350925  0.49848678  0.25106334  1
  V  V15  1  0.24900234  0.62530758  0.87536293  1
  V  V16  1  0.62393714  0.49991277  0.62578550  1
  V  V17  1  0.87453014  0.87546082  0.50070855  1
  V  V18  1  0.37206485  0.12685477  0.74645844  1
  V  V19  1  0.12605380  0.87639207  0.25127773  1
  V  V20  1  0.12440945  0.12753609  -0.00278992  1
  V  V21  1  0.24826688  0.75091090  -0.00077682  1
  V  V22  1  -0.00231281  0.75192864  0.75060874  1
  V  V23  1  0.37471554  0.87656364  0.50013220  1
  V  V24  1  0.75558378  0.24902749  0.50427512  1
  V  V25  1  0.49856284  -0.00029736  0.00004056  1
  V  V26  1  0.87798916  0.37074380  0.50430667  1
  V  V27  1  0.74817059  0.00460802  0.75592508  1
  V  V28  1  0.74831128  0.87439150  0.62634229  1
  V  V29  1  0.37195822  0.00104259  0.87413764  1
  V  V30  1  0.25037214  0.62533492  0.37595658  1
  V  V31  1  0.00053784  0.74968168  0.25026799  1
  V  V32  1  0.87388993  0.75050923  0.62592215  1
  V  V33  1  0.50022536  0.37711677  0.37696285  1
  V  V34  1  0.62534295  0.74984734  0.37557716  1
  V  V35  1  0.49926343  0.62391220  0.62557616  1
  V  V36  1  0.12487564  0.00132262  0.12488457  1
  V  V37  1  0.13933809  0.12827776  0.49784834  1
  V  V38  1  0.12886182  0.37440602  0.25083899  1
  V  V39  1  0.24966369  0.87625442  0.12482695  1
  V  V40  1  0.62490348  0.37360770  0.74995769  1
  V  V41  1  0.75237437  0.62338278  0.37578655  1
  V  V42  1  0.49820455  0.37423672  0.87657814  1
  V  V43  1  0.63027479  0.24366392  0.87411110  1
  V  V44  1  0.87494035  0.37447370  -0.00068004  1
  V  V45  1  0.62399725  -0.00122786  0.12464543  1
  V  V46  1  0.25115606  0.00774312  0.25316544  1
  V  V47  1  0.25419286  0.37547590  0.12193211  1
  V  V48  1  0.87732160  0.24960367  0.12569450  1
  V  V49  1  0.50013264  0.12563123  0.12440940  1
  V  V50  1  0.12186987  0.87867658  0.74868955  1
  V  V51  1  0.74968749  0.74818174  0.50059089  1
  V  V52  1  0.00357967  0.37393530  0.37709940  1
  V  V53  1  0.37464375  0.74903914  0.12604721  1
  V  V54  1  0.86965550  0.12771382  0.75208890  1
  V  V55  1  0.37354706  0.49538723  0.87796792  1
  V  V56  1  0.62153322  0.74966034  0.87597980  1
  V  V57  1  0.62803564  0.37357998  0.25059900  1
  V  V58  1  0.37323475  0.36350235  0.50376292  1
  V  V59  1  0.37344578  0.87581278  -0.00024152  1
  V  V60  1  0.62674188  0.24864833  0.37505496  1
  V  V61  1  0.74796048  0.62373223  0.87548945  1
  V  V62  1  0.25170947  0.50045319  0.24973945  1
  V  V63  1  0.87477557  0.50046706  0.87558460  1
  V  V64  1  0.87552667  0.74889112  0.12648059  1
  V  V65  1  0.49593161  0.24975262  0.74691328  1
  V  V66  1  0.74967243  -0.00020302  0.25015874  1
  V  V67  1  0.12651356  0.62498498  0.49992065  1
  V  V68  1  0.25449223  0.36225230  0.62143812  1
  V  V69  1  0.12550666  0.49998424  0.12378396  1
  V  V70  1  0.37767714  0.25432981  0.11814509  1
  V  V71  1  0.24748976  0.87783163  0.62588737  1
  V  V72  1  0.75069311  0.24602152  -0.00193974  1
  V  V73  1  0.00023236  0.87547657  0.37654206  1
  V  V74  1  0.00071212  0.37515719  0.87229354  1
  V  V75  1  0.00191178  0.49845814  0.50054716  1
  V  V76  1  0.87534131  0.00059323  0.37533995  1
  V  V77  1  0.00055765  0.50081585  0.00089752  1
  V  V78  1  0.62591902  0.12345189  0.50043003  1
  V  V79  1  0.24952621  0.50010919  0.74927923  1
  V  V80  1  0.87388513  0.62551230  0.75077175  1
  V  V81  1  0.25320757  0.25486409  -0.00346925  1
  V  V82  1  0.14157412  0.24666024  0.37681613  1
  V  V83  1  0.00222471  0.24770582  0.25028674  1
  V  V84  1  0.37347706  0.00635253  0.37395376  1
  V  V85  1  -0.00827461  0.12959866  0.62019809  1
  V  V86  1  0.50218870  0.24954884  0.24690054  1
  V  V87  1  0.49931239  0.87358320  0.37562441  1
  V  V88  1  0.74985646  0.49857375  0.75006208  1
  V  V89  1  0.00072309  0.62506931  0.62544984  1
  V  V90  1  -0.00573444  0.25191577  0.74494677  1
  V  V91  1  0.12379824  0.75122287  0.87540346  1
  V  V92  1  0.87158025  0.87533641  -0.00016505  1
  Zn  Zn93  1  0.12281052  0.62690751  0.00208020  1
  Zn  Zn94  1  0.37436069  0.62529322  0.75102431  1
  Zn  Zn95  1  0.62450252  0.62180257  0.50039266  1
  Zn  Zn96  1  0.00198780  0.62423778  0.12615330  1
  Zn  Zn97  1  0.50093834  0.62358068  0.12720496  1
  Zn  Zn98  1  0.87870582  0.62263832  0.24996466  1
  Zn  Zn99  1  0.50194922  0.74802129  0.24905097  1
  Zn  Zn100  1  0.75265912  0.12566934  0.37601874  1
  Zn  Zn101  1  0.49995185  0.49757328  0.50231446  1
  Zn  Zn102  1  0.87906414  0.49932286  0.37582257  1
  Zn  Zn103  1  0.00069060  0.00272660  0.50146797  1
  Zn  Zn104  1  0.24472260  0.00349366  0.75058171  1
  Zn  Zn105  1  0.62321923  -0.00191943  0.62431589  1
  Zn  Zn106  1  0.87564361  0.12470982  0.24933786  1
  Zn  Zn107  1  0.37420120  0.49915011  0.37848790  1
  Zn  Zn108  1  0.86840505  0.00774008  0.87941857  1
  Zn  Zn109  1  0.74690827  0.87321262  0.12427791  1
  Zn  Zn110  1  0.12179657  0.00306438  0.62387692  1
  Zn  Zn111  1  0.24851990  0.12870103  0.87199515  1
  Zn  Zn112  1  0.12479182  0.25207173  0.87216681  1
  Zn  Zn113  1  -0.00087570  0.12447473  0.12467117  1
  Zn  Zn114  1  0.50086565  -0.00033428  0.49902166  1
  Zn  Zn115  1  0.62496555  0.49913849  0.12536007  1
  Zn  Zn116  1  0.49617688  0.87321471  0.87480065  1
  Zn  Zn117  1  0.12670235  0.37147568  0.74678366  1
  Zn  Zn118  1  0.74795682  0.74933770  0.00331779  1
  Zn  Zn119  1  0.37197802  0.12884632  0.25201350  1
  Zn  Zn120  1  0.49697622  0.75066506  0.75080266  1
  Zn  Zn121  1  0.24893594  0.74995757  0.50046244  1
  Zn  Zn122  1  0.18725105  0.18946852  0.18330619  1
  Zn  Zn123  1  0.18068527  0.18620020  0.68578926  1
  Zn  Zn124  1  0.18800687  0.68702203  0.18738411  1
  Zn  Zn125  1  0.18687091  0.68826750  0.68998760  1
  Zn  Zn126  1  0.68857538  0.18511439  0.18552234  1
  Zn  Zn127  1  0.68577812  0.18739980  0.68482218  1
  Zn  Zn128  1  0.68981384  0.68707175  0.18877224  1
  Zn  Zn129  1  0.68541263  0.68729298  0.68843987  1
  Zn  Zn130  1  0.31929872  0.31435616  0.30864141  1
  Zn  Zn131  1  0.31141113  0.31527064  0.81077631  1
  Zn  Zn132  1  0.31191882  0.81418905  0.31277079  1
  Zn  Zn133  1  0.30936880  0.81388391  0.81075674  1
  Zn  Zn134  1  0.81609127  0.31232423  0.31723548  1
  Zn  Zn135  1  0.81396957  0.31173623  0.81209711  1
  Zn  Zn136  1  0.81185422  0.81290262  0.31237611  1
  Zn  Zn137  1  0.80781954  0.81334602  0.81455404  1
  Zn  Zn138  1  0.19122623  0.43625460  0.43931242  1
  Zn  Zn139  1  0.18454689  0.43677752  0.93589813  1
  Zn  Zn140  1  0.18877063  0.94170456  0.43869241  1
  Zn  Zn141  1  0.18584061  0.93883750  0.93587605  1
  Zn  Zn142  1  0.68729611  0.43763436  0.43943727  1
  Zn  Zn143  1  0.68628452  0.43420069  0.93699487  1
  Zn  Zn144  1  0.68813740  0.93661783  0.43676574  1
  Zn  Zn145  1  0.68639800  0.93634518  0.93688122  1
  Zn  Zn146  1  0.31158590  0.06690275  0.06318338  1
  Zn  Zn147  1  0.31498451  0.06105845  0.56321642  1
  Zn  Zn148  1  0.31155275  0.56474795  0.06213099  1
  Zn  Zn149  1  0.31563861  0.55565813  0.55939633  1
  Zn  Zn150  1  0.81213558  0.06435567  0.06548656  1
  Zn  Zn151  1  0.81114424  0.06099966  0.56743606  1
  Zn  Zn152  1  0.81269921  0.56306651  0.06335840  1
  Zn  Zn153  1  0.81446585  0.55963659  0.56207977  1
  Zn  Zn154  1  0.43883804  0.43771851  0.18750480  1
  Zn  Zn155  1  0.43340888  0.43720234  0.68805569  1
  Zn  Zn156  1  0.43716103  0.93640366  0.18882270  1
  Zn  Zn157  1  0.43737810  0.94034616  0.68674733  1
  Zn  Zn158  1  0.94001759  0.43471830  0.18767669  1
  Zn  Zn159  1  0.93726295  0.43844219  0.68597054  1
  Zn  Zn160  1  0.93826150  0.93561876  0.18693058  1
  Zn  Zn161  1  0.93505166  0.94339781  0.68686404  1
  Zn  Zn162  1  0.06527279  0.06388774  0.31622635  1
  Zn  Zn163  1  0.05691771  0.06385458  0.81149204  1
  Zn  Zn164  1  0.06427287  0.56268667  0.31192565  1
  Zn  Zn165  1  0.06392737  0.56299085  0.81276881  1
  Zn  Zn166  1  0.56064087  0.06203421  0.31286030  1
  Zn  Zn167  1  0.55936452  0.06102846  0.81268610  1
  Zn  Zn168  1  0.56651431  0.56168543  0.31208239  1
  Zn  Zn169  1  0.55965689  0.56210684  0.81124355  1
  Zn  Zn170  1  0.43858495  0.18889542  0.43604345  1
  Zn  Zn171  1  0.43944385  0.18602521  0.93521202  1
  Zn  Zn172  1  0.43770717  0.68855349  0.44023334  1
  Zn  Zn173  1  0.43570888  0.68406162  0.93914568  1
  Zn  Zn174  1  0.94126623  0.18781988  0.43429495  1
  Zn  Zn175  1  0.93762876  0.18884868  0.93381249  1
  Zn  Zn176  1  0.93759674  0.68732773  0.43768995  1
  Zn  Zn177  1  0.93791825  0.68746917  0.93928374  1
  Zn  Zn178  1  0.06453806  0.31496892  0.06188536  1
  Zn  Zn179  1  0.06847079  0.30989546  0.56309688  1
  Zn  Zn180  1  0.06092358  0.81445171  0.06277944  1
  Zn  Zn181  1  0.06151249  0.81252568  0.56151738  1
  Zn  Zn182  1  0.56629700  0.31372059  0.06160555  1
  Zn  Zn183  1  0.56396410  0.31110848  0.56205303  1
  Zn  Zn184  1  0.55799118  0.81206763  0.06433987  1
  Zn  Zn185  1  0.56095930  0.81027107  0.56070150  1
  O  O186  1  0.12303700  0.12040711  0.11319529  1
  O  O187  1  0.11530916  0.12570579  0.61085950  1
  O  O188  1  0.12428839  0.61627411  0.12326190  1
  O  O189  1  0.11950627  0.62141957  0.62024910  1
  O  O190  1  0.61924535  0.11847609  0.11757107  1
  O  O191  1  0.61606847  0.12377962  0.61569847  1
  O  O192  1  0.62524733  0.62311983  0.11405188  1
  O  O193  1  0.61613436  0.61973826  0.62552298  1
  O  O194  1  0.38617120  0.37539833  0.38009771  1
  O  O195  1  0.38120813  0.38777864  0.87116502  1
  O  O196  1  0.37966274  0.88201402  0.38024102  1
  O  O197  1  0.37377456  0.88390969  0.87976101  1
  O  O198  1  0.88420605  0.37617033  0.38723497  1
  O  O199  1  0.87955403  0.38160527  0.87999671  1
  O  O200  1  0.87931142  0.88162594  0.38054314  1
  O  O201  1  0.87757119  0.87395471  0.88601467  1
  O  O202  1  0.26096363  -0.00612588  0.36364348  1
  O  O203  1  0.26105429  0.00399954  0.87385277  1
  O  O204  1  0.25011860  0.50694695  0.36676822  1
  O  O205  1  0.25645377  0.50350135  0.87181534  1
  O  O206  1  0.75879652  0.00011450  0.36724645  1
  O  O207  1  0.74897261  -0.00395606  0.86065219  1
  O  O208  1  0.75143426  0.50584914  0.36796055  1
  O  O209  1  0.75474394  0.50327108  0.86951755  1
  O  O210  1  0.24698007  0.49423202  0.12897496  1
  O  O211  1  0.24525525  0.49683491  0.63185326  1
  O  O212  1  0.24527358  0.99515981  0.13128484  1
  O  O213  1  0.24858308  0.98769017  0.62741606  1
  O  O214  1  0.75087919  0.49317359  0.13518614  1
  O  O215  1  0.74518537  0.49421650  0.63145827  1
  O  O216  1  0.74362736  0.99766414  0.13507925  1
  O  O217  1  0.74558866  0.99143604  0.63578010  1
  O  O218  1  0.00878792  0.36658722  0.25603328  1
  O  O219  1  -0.00250309  0.36709626  0.75239427  1
  O  O220  1  0.00709513  0.87039438  0.25658337  1
  O  O221  1  0.00107323  0.87086701  0.75400183  1
  O  O222  1  0.50734157  0.36962685  0.25676490  1
  O  O223  1  0.50409256  0.36634802  0.75412945  1
  O  O224  1  0.50625986  0.87242109  0.25703915  1
  O  O225  1  0.51004930  0.87444623  0.75146819  1
  O  O226  1  0.50176250  0.13250127  0.24132297  1
  O  O227  1  0.49346184  0.13062422  0.74271928  1
  O  O228  1  0.49036396  0.62429414  0.25003275  1
  O  O229  1  0.49736285  0.62836222  0.73834501  1
  O  O230  1  1.00281110  0.13768632  0.24889116  1
  O  O231  1  0.99124642  0.13243548  0.74131985  1
  O  O232  1  0.99773615  0.63306586  0.24856670  1
  O  O233  1  0.99332904  0.63166433  0.74552079  1
  O  O234  1  0.36660152  0.24384009  0.00707756  1
  O  O235  1  0.37993225  0.26374843  0.49599024  1
  O  O236  1  0.36833613  0.75518051  0.00467798  1
  O  O237  1  0.37196083  0.75658095  0.51186742  1
  O  O238  1  0.87090114  0.25518769  0.00412867  1
  O  O239  1  0.86616735  0.25830927  0.49319080  1
  O  O240  1  0.87404783  0.75849678  0.00834788  1
  O  O241  1  0.86954699  0.75515261  0.50641915  1
  O  O242  1  0.12250580  0.23757382  0.49013304  1
  O  O243  1  0.13283438  0.24245391  0.99958755  1
  O  O244  1  0.12555394  0.74279893  0.49418538  1
  O  O245  1  0.13038932  0.75260581  0.99314291  1
  O  O246  1  0.63384267  0.24189243  0.49505394  1
  O  O247  1  0.62966422  0.24468953  0.99160147  1
  O  O248  1  0.63322355  0.74700626  0.49399480  1
  O  O249  1  0.62334496  0.74106014  0.99294862  1
  O  O250  1  0.49538957  0.24716154  0.12599541  1
  O  O251  1  0.50766402  0.24012770  0.63775803  1
  O  O252  1  0.49027394  0.74466187  0.12799973  1
  O  O253  1  0.49034876  0.74250423  0.62614167  1
  O  O254  1  0.99685456  0.25319589  0.13552681  1
  O  O255  1  1.00355829  0.24172046  0.63354690  1
  O  O256  1  0.99153601  0.75120708  0.13138772  1
  O  O257  1  0.99322012  0.74500722  0.63078082  1
  O  O258  1  0.00898293  0.25528954  0.36572927  1
  O  O259  1  -0.00056298  0.25826364  0.86425542  1
  O  O260  1  0.00542072  0.75630457  0.37077738  1
  O  O261  1  0.00284071  0.75661000  0.86936959  1
  O  O262  1  0.50670940  0.25871115  0.36749373  1
  O  O263  1  0.50841682  0.25418209  0.86708323  1
  O  O264  1  0.50737479  0.75526906  0.37480778  1
  O  O265  1  0.50965445  0.74940001  0.87342260  1
  O  O266  1  0.23742241  0.12448685  0.50739369  1
  O  O267  1  0.24100677  0.13588479  0.99926284  1
  O  O268  1  0.24432055  0.62486891  0.49387700  1
  O  O269  1  0.24762777  0.63348461  0.99330685  1
  O  O270  1  0.74282398  0.13212643  0.50176181  1
  O  O271  1  0.74151087  0.13299914  1.00506679  1
  O  O272  1  0.75058749  0.62862418  0.49188173  1
  O  O273  1  0.73938491  0.62399276  0.99393145  1
  O  O274  1  0.24376908  0.36239369  0.00560936  1
  O  O275  1  0.26086161  0.38022240  0.50954980  1
  O  O276  1  0.25414771  0.87112246  0.00501093  1
  O  O277  1  0.25455402  0.87414693  0.51026328  1
  O  O278  1  0.75523357  0.36839480  0.00535164  1
  O  O279  1  0.75823149  0.36791943  0.50332481  1
  O  O280  1  0.75929751  0.87281017  0.00167763  1
  O  O281  1  0.75462691  0.86828666  0.50576222  1
  O  O282  1  0.13184442  0.49329372  0.24465804  1
  O  O283  1  0.13121002  0.49889071  0.74335381  1
  O  O284  1  0.13200695  0.99611739  0.24688727  1
  O  O285  1  0.12494786  0.99476095  0.74717361  1
  O  O286  1  0.63800611  0.49326507  0.24874436  1
  O  O287  1  0.63068545  0.49287698  0.74715258  1
  O  O288  1  0.63157027  0.99516647  0.24593848  1
  O  O289  1  0.62940319  0.99127894  0.75019303  1
  O  O290  1  0.36732551  0.00120652  0.25621933  1
  O  O291  1  0.37379170  0.00902677  0.75796161  1
  O  O292  1  0.37042071  0.50909947  0.25173004  1
  O  O293  1  0.36871162  0.50267550  0.76110111  1
  O  O294  1  0.86697404  -0.00299691  0.25782999  1
  O  O295  1  0.86416156  0.00768381  0.75243596  1
  O  O296  1  0.86560736  0.49815023  0.25326759  1
  O  O297  1  0.86971047  0.50610652  0.75522262  1
  O  O298  1  0.12288332  0.36583059  0.37144999  1
  O  O299  1  0.11521362  0.37415820  0.86866956  1
  O  O300  1  0.12052189  0.87128751  0.37140075  1
  O  O301  1  0.11710627  0.87117132  0.86921269  1
  O  O302  1  0.61959964  0.36817561  0.37117120  1
  O  O303  1  0.61857766  0.36549953  0.86846118  1
  O  O304  1  0.61994645  0.86958068  0.37085756  1
  O  O305  1  0.62221942  0.86572404  0.86792266  1
  O  O306  1  0.38230279  0.13649366  0.12545117  1
  O  O307  1  0.38490394  0.12012829  0.63493499  1
  O  O308  1  0.37373409  0.63016159  0.13632248  1
  O  O309  1  0.38081127  0.63317721  0.62513604  1
  O  O310  1  0.87971866  0.13319277  0.12962599  1
  O  O311  1  0.88286690  0.12231008  0.63513918  1
  O  O312  1  0.87661148  0.63730633  0.12657905  1
  O  O313  1  0.88015418  0.63004396  0.63085600  1
  O  O314  1  0.25903930  0.25477661  0.11709963  1
  O  O315  1  0.24513157  0.26405261  0.63085837  1
  O  O316  1  0.25417030  0.75714472  0.11983334  1
  O  O317  1  0.25695351  0.75939697  0.62533766  1
  O  O318  1  0.75686854  0.25521771  0.12003537  1
  O  O319  1  0.74355952  0.25699956  0.61140718  1
  O  O320  1  0.76096432  0.75320248  0.12448808  1
  O  O321  1  0.75510718  0.75392513  0.62135956  1
  O  O322  1  0.23982144  0.25245105  0.36518427  1
  O  O323  1  0.24855590  0.24973593  0.88379465  1
  O  O324  1  0.24353999  0.74471599  0.37713606  1
  O  O325  1  0.24377702  0.74667069  0.87943583  1
  O  O326  1  0.74539474  0.24795334  0.38573161  1
  O  O327  1  0.73676691  0.25688156  0.87995604  1
  O  O328  1  0.74667476  0.74185085  0.37968189  1
  O  O329  1  0.73708429  0.74302876  0.87727700  1
  O  O330  1  0.00809085  0.12096146  0.00016071  1
  O  O331  1  0.00116641  0.12567707  0.50906778  1
  O  O332  1  0.00156232  0.61658611  0.00319849  1
  O  O333  1  0.00531363  0.61959404  0.50600622  1
  O  O334  1  0.50679108  0.11906296  0.00491760  1
  O  O335  1  0.50870186  0.12850547  0.50837349  1
  O  O336  1  0.50900974  0.61422833  0.00030928  1
  O  O337  1  0.50159745  0.62246707  0.51325210  1
  O  O338  1  0.49631208  0.37254954  0.49120847  1
  O  O339  1  0.50893349  0.38763785  0.99306796  1
  O  O340  1  0.49310738  0.87723036  0.49471654  1
  O  O341  1  0.49096190  0.88205714  0.99829337  1
  O  O342  1  0.99557349  0.37715802  0.49790074  1
  O  O343  1  0.99391459  0.38017757  0.99356951  1
  O  O344  1  0.99243624  0.87775141  0.49461334  1
  O  O345  1  0.99045659  0.88080296  0.99501675  1
  O  O346  1  0.50399674  0.48512144  0.37445466  1
  O  O347  1  0.49284311  0.49534216  0.88079048  1
  O  O348  1  0.49115098  0.99201390  0.37542021  1
  O  O349  1  0.48751829  0.99892394  0.88088077  1
  O  O350  1  1.00316892  0.49203400  0.38221396  1
  O  O351  1  0.99304985  0.49573105  0.87887464  1
  O  O352  1  0.98978121  0.99411493  0.37432491  1
  O  O353  1  0.99450253  0.99358435  0.88221867  1
  O  O354  1  0.00701898  0.00086090  0.11899287  1
  O  O355  1  0.00089742  0.01293744  0.62239576  1
  O  O356  1  0.00698560  0.49843824  0.11924748  1
  O  O357  1  0.00691179  0.50621497  0.62058872  1
  O  O358  1  0.50418673  0.00491812  0.11968452  1
  O  O359  1  0.50268110  0.01253505  0.62158527  1
  O  O360  1  0.50300950  0.50097433  0.11488973  1
  O  O361  1  0.50542860  0.50838734  0.62850376  1
  O  O362  1  0.24788520  0.38088561  0.24265662  1
  O  O363  1  0.24989369  0.38264915  0.74050115  1
  O  O364  1  0.24486517  0.88447819  0.24374215  1
  O  O365  1  0.24135039  0.87671614  0.74075808  1
  O  O366  1  0.74798522  0.38041633  0.24812977  1
  O  O367  1  0.74581585  0.37899660  0.74433963  1
  O  O368  1  0.74280424  0.88562207  0.25081038  1
  O  O369  1  0.74009395  0.88125929  0.74621277  1
  O  O370  1  0.25044811  0.11122304  0.24170167  1
  O  O371  1  0.25981715  0.12582083  0.74876622  1
  O  O372  1  0.25869412  0.62069266  0.25584155  1
  O  O373  1  0.25050727  0.61865563  0.75769593  1
  O  O374  1  0.75039591  0.11183437  0.25313292  1
  O  O375  1  0.75678503  0.11620224  0.73978213  1
  O  O376  1  0.75272546  0.61536650  0.25869687  1
  O  O377  1  0.75430475  0.61865649  0.75521868  1
  O  O378  1  0.38359794  0.11114673  0.37213720  1
  O  O379  1  0.37509878  0.11686833  0.86501527  1
  O  O380  1  0.37055789  0.62449909  0.36734746  1
  O  O381  1  0.36831021  0.61524806  0.87326276  1
  O  O382  1  0.87499703  0.11335599  0.37121547  1
  O  O383  1  0.87858519  0.12412928  0.85846219  1
  O  O384  1  0.86434518  0.62273249  0.37346957  1
  O  O385  1  0.86823182  0.62074654  0.87037802  1
  O  O386  1  0.13363106  0.37955808  0.13152785  1
  O  O387  1  0.13527111  0.38267635  0.62385317  1
  O  O388  1  0.13011630  0.88167521  0.13074420  1
  O  O389  1  0.13181767  0.87552720  0.62910773  1
  O  O390  1  0.63400184  0.37556864  0.13258498  1
  O  O391  1  0.63062946  0.37922935  0.63148891  1
  O  O392  1  0.62462011  0.88109064  0.13093745  1
  O  O393  1  0.62855808  0.87293673  0.63477405  1
  O  O394  1  0.12061448  0.25429974  0.25536391  1
  O  O395  1  0.10981823  0.24976389  0.75256553  1
  O  O396  1  0.12136215  0.75705724  0.25596017  1
  O  O397  1  0.11670395  0.75744975  0.75529833  1
  O  O398  1  0.62277496  0.25422779  0.25428960  1
  O  O399  1  0.61773973  0.25272943  0.75690872  1
  O  O400  1  0.62552792  0.75569241  0.25732812  1
  O  O401  1  0.62411213  0.75844413  0.75902656  1
  O  O402  1  0.38290216  0.24695105  0.23847670  1
  O  O403  1  0.38744164  0.23980279  0.75941202  1
  O  O404  1  0.37451940  0.74036072  0.24570456  1
  O  O405  1  0.37550924  0.74969330  0.73874302  1
  O  O406  1  0.88621799  0.25119439  0.24647503  1
  O  O407  1  0.88337765  0.24264667  0.75157235  1
  O  O408  1  0.88114208  0.75241058  0.24118267  1
  O  O409  1  0.87736139  0.74542015  0.74599455  1
  O  O410  1  0.38258152  0.48758072  0.49502376  1
  O  O411  1  0.38548537  0.50686030  0.99027031  1
  O  O412  1  0.37594183  0.99517102  0.49024184  1
  O  O413  1  0.37750460  0.99716791  0.99309841  1
  O  O414  1  0.88333915  0.48977498  0.49824675  1
  O  O415  1  0.87904055  0.49410346  0.99488003  1
  O  O416  1  0.87207579  0.99418520  0.48994128  1
  O  O417  1  0.87800287  0.99185084  1.00070022  1
  O  O418  1  0.12042656  0.00780466  0.00461044  1
  O  O419  1  0.12130214  0.01552904  0.49796500  1
  O  O420  1  0.11856692  0.50051752  0.00648374  1
  O  O421  1  0.12033475  0.50558780  0.50569920  1
  O  O422  1  0.61912880  0.00340627  0.00380895  1
  O  O423  1  0.62503539  0.01159027  0.50014858  1
  O  O424  1  0.61750482  0.50829958  -0.00166868  1
  O  O425  1  0.62242077  0.50103209  0.51024384  1
  O  O426  1  0.37170059  0.36213445  0.12857266  1
  O  O427  1  0.36715403  0.37876520  0.61651830  1
  O  O428  1  0.36898330  0.86998274  0.11974334  1
  O  O429  1  0.36794478  0.86932527  0.62204986  1
  O  O430  1  0.87085206  0.36879154  0.11872130  1
  O  O431  1  0.86957525  0.37957924  0.61178679  1
  O  O432  1  0.87437673  0.86677384  0.11560793  1
  O  O433  1  0.86903804  0.86955094  0.62105002  1
  O  O434  1  0.12278506  0.13203377  0.38902124  1
  O  O435  1  0.12575211  0.12607388  0.88642904  1
  O  O436  1  0.13055837  0.63119872  0.38017628  1
  O  O437  1  0.13061977  0.63360574  0.87692981  1
  O  O438  1  0.62455651  0.12983071  0.38566257  1
  O  O439  1  0.61693884  0.13662085  0.87945889  1
  O  O440  1  0.63665529  0.62951533  0.37669968  1
  O  O441  1  0.62749837  0.63075480  0.88157284  1
