# generated using pymatgen
data_V93Zn93O256
_symmetry_space_group_name_H-M   'P 1'
_cell_length_a   17.05007345
_cell_length_b   17.05080875
_cell_length_c   17.04761971
_cell_angle_alpha   89.99638267
_cell_angle_beta   90.02416940
_cell_angle_gamma   90.01902014
_symmetry_Int_Tables_number   1
_chemical_formula_structural   V93Zn93O256
_chemical_formula_sum   'V93 Zn93 O256'
_cell_volume   4956.04136723
_cell_formula_units_Z   1
loop_
 _symmetry_equiv_pos_site_id
 _symmetry_equiv_pos_as_xyz
  1  'x, y, z'
loop_
 _atom_site_type_symbol
 _atom_site_label
 _atom_site_symmetry_multiplicity
 _atom_site_fract_x
 _atom_site_fract_y
 _atom_site_fract_z
 _atom_site_occupancy
  V  V0  1  0.36706662  0.87101360  -0.00026431  1
  V  V1  1  0.00025668  0.50143070  0.00072898  1
  V  V2  1  0.87637331  0.87887499  -0.01455120  1
  V  V3  1  0.12677974  0.74508266  0.38048586  1
  V  V4  1  0.75126485  0.37388928  0.62523059  1
  V  V5  1  0.62372575  0.00139604  0.12039150  1
  V  V6  1  0.37657063  0.24921248  0.62663027  1
  V  V7  1  0.62526494  0.12359611  0.49991292  1
  V  V8  1  0.12748065  0.50309671  0.62163662  1
  V  V9  1  0.37621524  0.50010224  0.87715926  1
  V  V10  1  0.12808282  0.62958055  0.00164546  1
  V  V11  1  0.49913007  -0.00071568  0.49939362  1
  V  V12  1  0.74940711  0.12442927  0.87233123  1
  V  V13  1  -0.00580937  -0.00127526  -0.01523858  1
  V  V14  1  0.49957639  0.74918471  0.24921165  1
  V  V15  1  0.12439996  0.87701879  0.24757228  1
  V  V16  1  0.50380993  0.36911800  0.87669668  1
  V  V17  1  0.63269159  0.62841430  0.50044060  1
  V  V18  1  0.24971885  0.37608122  0.12639964  1
  V  V19  1  0.62568534  -0.00195111  0.62525648  1
  V  V20  1  0.00101765  0.37458444  0.37493499  1
  V  V21  1  0.62541378  0.24921428  0.37495630  1
  V  V22  1  0.74985749  0.87646065  0.12188885  1
  V  V23  1  0.87315319  -0.00019888  0.37453349  1
  V  V24  1  0.25132327  0.12542588  0.87538247  1
  V  V25  1  0.62450010  0.87456035  0.74898123  1
  V  V26  1  0.37388006  0.12481839  0.25009703  1
  V  V27  1  0.74294408  0.25044264  -0.00685280  1
  V  V28  1  0.25239232  0.37448321  0.62582227  1
  V  V29  1  0.50038962  0.62388769  0.62627583  1
  V  V30  1  -0.00124397  0.00032417  0.49973877  1
  V  V31  1  0.00007711  0.25107656  0.24958909  1
  V  V32  1  0.24866672  0.24980463  0.00054998  1
  V  V33  1  0.37307729  0.87290114  0.50055701  1
  V  V34  1  0.37434670  -0.00044385  0.37375307  1
  V  V35  1  0.37682454  0.37385805  0.50286963  1
  V  V36  1  0.62642043  0.74840645  0.87655596  1
  V  V37  1  0.37531457  0.12399653  0.75031383  1
  V  V38  1  0.86970926  0.74861583  0.62002419  1
  V  V39  1  0.37497949  0.74946219  0.62448899  1
  V  V40  1  0.49992434  0.74887280  0.75026468  1
  V  V41  1  -0.00247020  0.24933963  0.74927431  1
  V  V42  1  0.87453846  0.12566946  0.24920616  1
  V  V43  1  0.74872430  0.00129990  0.24702448  1
  V  V44  1  0.37579299  0.62400499  0.75193152  1
  V  V45  1  0.62642120  0.49958168  0.62639734  1
  V  V46  1  0.00290750  0.50049867  0.50077575  1
  V  V47  1  0.24891076  0.00063564  0.24703894  1
  V  V48  1  0.62650288  0.37599012  0.25050829  1
  V  V49  1  0.12643653  0.25035031  0.87560361  1
  V  V50  1  0.87558124  0.37423469  0.50121228  1
  V  V51  1  0.36745715  0.75026974  0.12293985  1
  V  V52  1  -0.00096377  0.75069692  0.24768540  1
  V  V53  1  0.50167397  0.49926411  0.50139427  1
  V  V54  1  0.25078272  0.49946671  0.25174969  1
  V  V55  1  0.49910139  0.87406843  0.37476085  1
  V  V56  1  -0.00189844  0.87588745  0.37324476  1
  V  V57  1  0.75729770  -0.00205148  0.75322944  1
  V  V58  1  0.24904376  0.87307518  0.62413329  1
  V  V59  1  0.87446093  0.75298289  0.12344233  1
  V  V60  1  0.37548520  0.37621826  0.00052150  1
  V  V61  1  -0.00152361  0.62702622  0.12416736  1
  V  V62  1  0.50114112  0.37438641  0.37669185  1
  V  V63  1  -0.00000358  0.12173291  0.12315627  1
  V  V64  1  0.49935913  0.12425670  0.62586410  1
  V  V65  1  0.12640974  0.37620534  0.75146998  1
  V  V66  1  0.87388999  0.25080134  0.12205887  1
  V  V67  1  0.37438621  0.25047114  0.12619242  1
  V  V68  1  0.49995902  0.25030628  0.25077682  1
  V  V69  1  0.12580847  0.12547408  0.49924794  1
  V  V70  1  0.75237009  0.49947984  0.75142438  1
  V  V71  1  0.50059201  0.12477833  0.12425095  1
  V  V72  1  0.74974801  0.12482962  0.37455547  1
  V  V73  1  0.62576443  0.36749336  0.75536927  1
  V  V74  1  0.37617313  0.50026854  0.37607453  1
  V  V75  1  0.75137755  0.24987834  0.50038968  1
  V  V76  1  0.87597641  0.50152546  0.37510279  1
  V  V77  1  0.49787586  0.87516751  0.87563136  1
  V  V78  1  0.86742778  0.87058590  0.49884212  1
  V  V79  1  0.62473568  0.62427814  0.00280187  1
  V  V80  1  -0.00031287  0.75125586  0.75213827  1
  V  V81  1  0.25134564  0.62855298  0.87925168  1
  V  V82  1  0.12477209  0.37588241  0.25064130  1
  V  V83  1  0.12380578  -0.00183986  0.62361392  1
  V  V84  1  0.37362220  0.62498825  0.25245020  1
  V  V85  1  0.75042713  0.50117860  0.25072977  1
  V  V86  1  0.37432432  -0.00080353  0.87509040  1
  V  V87  1  0.12467634  0.75234104  0.87685446  1
  V  V88  1  0.87675005  0.50307885  0.87493555  1
  V  V89  1  0.00524337  0.62542605  0.62053266  1
  V  V90  1  0.87558419  0.37554383  0.00059652  1
  V  V91  1  0.63040326  0.74963698  0.37823656  1
  V  V92  1  0.12259467  0.87487378  0.75234470  1
  Zn  Zn93  1  0.24500963  0.74226781  0.50424332  1
  Zn  Zn94  1  0.25113100  0.50048655  0.75098754  1
  Zn  Zn95  1  0.24816802  0.00009731  0.75042651  1
  Zn  Zn96  1  0.24978122  0.12755837  0.37498518  1
  Zn  Zn97  1  0.74823164  0.37488079  0.12349730  1
  Zn  Zn98  1  0.62457560  0.50107827  0.12630481  1
  Zn  Zn99  1  0.24531915  0.87273348  0.11902298  1
  Zn  Zn100  1  0.12377516  0.12294410  -0.00184149  1
  Zn  Zn101  1  0.75529858  0.63018671  0.37785296  1
  Zn  Zn102  1  -0.00244064  0.12476993  0.62526230  1
  Zn  Zn103  1  0.24536319  0.61919454  0.38271707  1
  Zn  Zn104  1  0.49849016  0.00114551  -0.00093783  1
  Zn  Zn105  1  0.75183187  0.75136392  -0.00065671  1
  Zn  Zn106  1  0.00219873  0.37497723  0.87706995  1
  Zn  Zn107  1  0.62467919  0.87409222  0.24858376  1
  Zn  Zn108  1  0.87453616  0.62596326  0.74922362  1
  Zn  Zn109  1  0.25066874  0.24885321  0.49884345  1
  Zn  Zn110  1  0.50209495  0.49897836  0.00424460  1
  Zn  Zn111  1  0.75098946  0.62517090  0.87557697  1
  Zn  Zn112  1  0.49880472  0.62266201  0.12459912  1
  Zn  Zn113  1  0.87372660  0.62673540  0.25041119  1
  Zn  Zn114  1  0.50526029  0.24475413  0.75548108  1
  Zn  Zn115  1  0.87581167  0.24693853  0.62607919  1
  Zn  Zn116  1  0.12358505  -0.00032139  0.12092529  1
  Zn  Zn117  1  0.74715417  0.87127041  0.62197315  1
  Zn  Zn118  1  0.12733741  0.24989371  0.37597238  1
  Zn  Zn119  1  0.12508271  0.50191401  0.12594131  1
  Zn  Zn120  1  0.61981417  0.13153187  -0.00951449  1
  Zn  Zn121  1  0.87794510  0.11817022  0.75081640  1
  Zn  Zn122  1  0.18491380  0.18817265  0.18670764  1
  Zn  Zn123  1  0.18843502  0.18712405  0.68597052  1
  Zn  Zn124  1  0.18746334  0.68625180  0.19243247  1
  Zn  Zn125  1  0.19017824  0.68660224  0.69035001  1
  Zn  Zn126  1  0.68755763  0.18848297  0.18349733  1
  Zn  Zn127  1  0.68963801  0.18475100  0.68685978  1
  Zn  Zn128  1  0.68923821  0.68790803  0.18809582  1
  Zn  Zn129  1  0.68851571  0.68447022  0.69024040  1
  Zn  Zn130  1  0.31126887  0.31228764  0.31540335  1
  Zn  Zn131  1  0.31525311  0.31111743  0.81272971  1
  Zn  Zn132  1  0.31045473  0.81377735  0.31100502  1
  Zn  Zn133  1  0.30967515  0.81164682  0.81169983  1
  Zn  Zn134  1  0.81401376  0.31392790  0.31266129  1
  Zn  Zn135  1  0.81335845  0.31382201  0.81635304  1
  Zn  Zn136  1  0.81112804  0.81494969  0.30782642  1
  Zn  Zn137  1  0.81059743  0.81192799  0.80684457  1
  Zn  Zn138  1  0.18949620  0.43488514  0.43856582  1
  Zn  Zn139  1  0.18898720  0.44109576  0.93899237  1
  Zn  Zn140  1  0.18832748  0.93591795  0.43613469  1
  Zn  Zn141  1  0.18499461  0.94033258  0.93673559  1
  Zn  Zn142  1  0.68911271  0.43894476  0.43707572  1
  Zn  Zn143  1  0.68936748  0.43831728  0.93799180  1
  Zn  Zn144  1  0.68600052  0.93678570  0.43559287  1
  Zn  Zn145  1  0.68884352  0.93846707  0.93573758  1
  Zn  Zn146  1  0.31338210  0.06121869  0.06136042  1
  Zn  Zn147  1  0.31014032  0.06016421  0.56404392  1
  Zn  Zn148  1  0.31298830  0.56293312  0.06449629  1
  Zn  Zn149  1  0.31084789  0.56378689  0.56069831  1
  Zn  Zn150  1  0.81212093  0.06427508  0.05714927  1
  Zn  Zn151  1  0.81333999  0.06192006  0.56695635  1
  Zn  Zn152  1  0.80986985  0.56518334  0.06297754  1
  Zn  Zn153  1  0.81571433  0.56140934  0.56434650  1
  Zn  Zn154  1  0.43965044  0.43930353  0.18767035  1
  Zn  Zn155  1  0.43976120  0.43721317  0.69139073  1
  Zn  Zn156  1  0.43708928  0.93553476  0.18539170  1
  Zn  Zn157  1  0.43665974  0.93754561  0.68853601  1
  Zn  Zn158  1  0.93663617  0.43886658  0.18611523  1
  Zn  Zn159  1  0.93891439  0.43591790  0.68801263  1
  Zn  Zn160  1  0.93517927  0.93806031  0.18258117  1
  Zn  Zn161  1  0.93870572  0.93360070  0.68449682  1
  Zn  Zn162  1  0.06168943  0.06315572  0.31342476  1
  Zn  Zn163  1  0.06519724  0.06582294  0.81038084  1
  Zn  Zn164  1  0.06054443  0.56228879  0.31012516  1
  Zn  Zn165  1  0.06159930  0.56498769  0.81127838  1
  Zn  Zn166  1  0.56212329  0.06181032  0.30974700  1
  Zn  Zn167  1  0.56563912  0.06122740  0.81303474  1
  Zn  Zn168  1  0.56312147  0.56413623  0.31418460  1
  Zn  Zn169  1  0.56262543  0.55783394  0.81552067  1
  Zn  Zn170  1  0.43661976  0.18663946  0.43811048  1
  Zn  Zn171  1  0.43635829  0.18765345  0.93915649  1
  Zn  Zn172  1  0.43923898  0.68570679  0.43890445  1
  Zn  Zn173  1  0.43961185  0.68803904  0.94078315  1
  Zn  Zn174  1  0.93892139  0.18784118  0.43720629  1
  Zn  Zn175  1  0.93269184  0.18613430  0.93262243  1
  Zn  Zn176  1  0.94060170  0.68723561  0.43715743  1
  Zn  Zn177  1  0.93885247  0.68991799  0.93914608  1
  Zn  Zn178  1  0.06302630  0.31343267  0.06304919  1
  Zn  Zn179  1  0.06350865  0.31232278  0.56399814  1
  Zn  Zn180  1  0.05833901  0.81538810  0.05959207  1
  Zn  Zn181  1  0.05736515  0.81519819  0.56259890  1
  Zn  Zn182  1  0.56252359  0.31503052  0.06529886  1
  Zn  Zn183  1  0.56391675  0.31065693  0.56584015  1
  Zn  Zn184  1  0.55811847  0.81386402  0.06154415  1
  Zn  Zn185  1  0.56094583  0.81150577  0.56159453  1
  O  O186  1  0.11160489  0.12502051  0.12118527  1
  O  O187  1  0.12365430  0.11685466  0.61621397  1
  O  O188  1  0.12039795  0.62812555  0.11593586  1
  O  O189  1  0.11755055  0.61379534  0.63458495  1
  O  O190  1  0.61858869  0.11599700  0.12437676  1
  O  O191  1  0.61939225  0.11871892  0.61854613  1
  O  O192  1  0.62320977  0.62775543  0.11409547  1
  O  O193  1  0.62037856  0.62071493  0.61933612  1
  O  O194  1  0.38278853  0.37990746  0.38189486  1
  O  O195  1  0.38164517  0.38016148  0.88055867  1
  O  O196  1  0.37940560  0.87985026  0.37977646  1
  O  O197  1  0.37736454  0.87694310  0.88053570  1
  O  O198  1  0.88178404  0.38132224  0.38126974  1
  O  O199  1  0.87893938  0.38775988  0.88171088  1
  O  O200  1  0.87795396  0.87916397  0.38009171  1
  O  O201  1  0.87016526  0.86867536  0.88693947  1
  O  O202  1  0.25562679  0.00006467  0.36260015  1
  O  O203  1  0.25582090  0.00744309  0.87311928  1
  O  O204  1  0.25816460  0.49760859  0.36957873  1
  O  O205  1  0.25611588  0.51162736  0.87354929  1
  O  O206  1  0.75341017  0.00568359  0.36809483  1
  O  O207  1  0.74464123  0.00620145  0.86164948  1
  O  O208  1  0.75743825  0.50096804  0.36693050  1
  O  O209  1  0.76176653  0.50042318  0.86970931  1
  O  O210  1  0.24918788  0.49364739  0.13327204  1
  O  O211  1  0.24236857  0.49456695  0.62868921  1
  O  O212  1  0.24644929  0.99831843  0.13571605  1
  O  O213  1  0.24175911  0.99057805  0.62770150  1
  O  O214  1  0.74943518  0.49803564  0.13831709  1
  O  O215  1  0.74612759  0.49347810  0.63106053  1
  O  O216  1  0.74242527  0.99801803  0.12754783  1
  O  O217  1  0.74142175  0.99720117  0.63279042  1
  O  O218  1  0.00453225  0.37106972  0.25444178  1
  O  O219  1  0.01250773  0.36864882  0.75154233  1
  O  O220  1  0.00620716  0.87266621  0.25281519  1
  O  O221  1  0.01182145  0.86295941  0.74311252  1
  O  O222  1  0.50533170  0.36908612  0.25775633  1
  O  O223  1  0.50952516  0.37344198  0.75873849  1
  O  O224  1  0.49944918  0.86488577  0.25631499  1
  O  O225  1  0.50442180  0.86808703  0.75526161  1
  O  O226  1  0.49374514  0.13115071  0.24492450  1
  O  O227  1  0.49485520  0.12459930  0.74409589  1
  O  O228  1  0.49371203  0.63557069  0.25094765  1
  O  O229  1  0.49612213  0.62874330  0.74606159  1
  O  O230  1  0.99414158  0.12942991  0.24235401  1
  O  O231  1  0.99957478  0.13637246  0.74895960  1
  O  O232  1  0.99799066  0.63238508  0.24141008  1
  O  O233  1  0.99879348  0.63413958  0.73884584  1
  O  O234  1  0.36822271  0.25629115  0.00725393  1
  O  O235  1  0.37642927  0.25631349  0.50824455  1
  O  O236  1  0.38030935  0.75824399  0.01120558  1
  O  O237  1  0.37844128  0.75703908  0.50756217  1
  O  O238  1  0.86850232  0.25629271  0.00323388  1
  O  O239  1  0.86861305  0.25672254  0.49930653  1
  O  O240  1  0.87617942  0.76040297  0.00541386  1
  O  O241  1  0.88342914  0.75921420  0.50803537  1
  O  O242  1  0.12573876  0.23827113  0.50050044  1
  O  O243  1  0.13132053  0.24969916  0.99341750  1
  O  O244  1  0.12128355  0.75978890  0.48274241  1
  O  O245  1  0.11566609  0.74137392  0.98879125  1
  O  O246  1  0.63066885  0.24364082  0.49442310  1
  O  O247  1  0.63894366  0.25007852  1.00793108  1
  O  O248  1  0.61694548  0.73984552  0.49043558  1
  O  O249  1  0.62336942  0.74483263  0.99041792  1
  O  O250  1  0.49379202  0.24561389  0.13199743  1
  O  O251  1  0.49492228  0.24133408  0.62746105  1
  O  O252  1  0.49044189  0.75079935  0.13641544  1
  O  O253  1  0.49518036  0.74344482  0.63164657  1
  O  O254  1  0.99393402  0.24090702  0.12812429  1
  O  O255  1  1.00043012  0.24951193  0.63703864  1
  O  O256  1  0.99432440  0.74687575  0.12882813  1
  O  O257  1  0.99528976  0.74260711  0.63147007  1
  O  O258  1  0.00046188  0.25722004  0.36688367  1
  O  O259  1  0.00741703  0.25220424  0.86709382  1
  O  O260  1  0.00853664  0.75654111  0.36823987  1
  O  O261  1  0.01165884  0.74057492  0.86173883  1
  O  O262  1  0.50584728  0.25429709  0.37052948  1
  O  O263  1  0.49507616  0.26451508  0.87449663  1
  O  O264  1  0.50655982  0.75431490  0.36716766  1
  O  O265  1  0.50754672  0.75454787  0.86909374  1
  O  O266  1  0.23825234  0.12286329  0.49837981  1
  O  O267  1  0.24880365  0.13197153  0.99464714  1
  O  O268  1  0.25173471  0.63013012  0.49470651  1
  O  O269  1  0.23958949  0.62158477  0.99143043  1
  O  O270  1  0.74446875  0.12864964  0.49388654  1
  O  O271  1  0.74861669  0.13301673  0.99072684  1
  O  O272  1  0.73628641  0.61914236  0.50028120  1
  O  O273  1  0.73951321  0.63113354  0.99607168  1
  O  O274  1  0.25516832  0.37029692  0.00603394  1
  O  O275  1  0.25957223  0.37430651  0.50881781  1
  O  O276  1  0.26191488  0.87892964  0.00014710  1
  O  O277  1  0.25575689  0.87025879  0.50573568  1
  O  O278  1  0.75681936  0.36725382  0.00045775  1
  O  O279  1  0.75492279  0.36988229  0.50486410  1
  O  O280  1  0.75861913  0.87563878  0.00505600  1
  O  O281  1  0.76345958  0.87919095  0.50014556  1
  O  O282  1  0.13180762  0.49424116  0.24907280  1
  O  O283  1  0.12473966  0.49111097  0.74216955  1
  O  O284  1  0.13075568  0.99249811  0.24957846  1
  O  O285  1  0.12335213  0.98894548  0.74528329  1
  O  O286  1  0.63470271  0.49481928  0.25414411  1
  O  O287  1  0.63166952  0.49171583  0.74516402  1
  O  O288  1  0.62995833  0.99869997  0.23892554  1
  O  O289  1  0.63081684  0.99202964  0.74304264  1
  O  O290  1  0.36737518  0.00381645  0.25290957  1
  O  O291  1  0.37200591  0.00541483  0.75677997  1
  O  O292  1  0.37078235  0.50437342  0.25669123  1
  O  O293  1  0.37470879  0.50680956  0.75837396  1
  O  O294  1  0.86900339  0.00578121  0.25461079  1
  O  O295  1  0.86125529  -0.00488614  0.74200057  1
  O  O296  1  0.86726909  0.50066070  0.25680673  1
  O  O297  1  0.87243019  0.49957926  0.75915179  1
  O  O298  1  0.11778962  0.37452928  0.36916338  1
  O  O299  1  0.12676276  0.37121809  0.86630720  1
  O  O300  1  0.11850109  0.86985666  0.36395326  1
  O  O301  1  0.13248323  0.86348231  0.86491502  1
  O  O302  1  0.62020048  0.36825447  0.37165269  1
  O  O303  1  0.61631350  0.38282559  0.86591660  1
  O  O304  1  0.61755757  0.86637055  0.37409300  1
  O  O305  1  0.61854891  0.86648396  0.87053057  1
  O  O306  1  0.38007513  0.13061310  0.13085705  1
  O  O307  1  0.38009918  0.12776291  0.62983582  1
  O  O308  1  0.37554318  0.63446214  0.13211722  1
  O  O309  1  0.38154102  0.62902750  0.63178676  1
  O  O310  1  0.88236144  0.12967607  0.12959222  1
  O  O311  1  0.87914980  0.12943503  0.63090704  1
  O  O312  1  0.88126036  0.63484287  0.12403299  1
  O  O313  1  0.88560100  0.63226285  0.62579555  1
  O  O314  1  0.25531209  0.25569821  0.12105757  1
  O  O315  1  0.25814601  0.25672691  0.62326414  1
  O  O316  1  0.26341900  0.75343728  0.13516465  1
  O  O317  1  0.25659830  0.75513729  0.62555273  1
  O  O318  1  0.75846089  0.24955539  0.11510845  1
  O  O319  1  0.75069080  0.25650793  0.61742430  1
  O  O320  1  0.75586333  0.75906698  0.12413231  1
  O  O321  1  0.76598882  0.74934728  0.63215203  1
  O  O322  1  0.24628971  0.24580334  0.38022389  1
  O  O323  1  0.24683093  0.24534801  0.88128424  1
  O  O324  1  0.23340283  0.75264374  0.37308932  1
  O  O325  1  0.23868616  0.73795367  0.86943587  1
  O  O326  1  0.74504195  0.24408136  0.37977796  1
  O  O327  1  0.75277623  0.24415897  0.88510533  1
  O  O328  1  0.73432428  0.74997675  0.36611560  1
  O  O329  1  0.73587808  0.74929925  0.87352782  1
  O  O330  1  -0.00402301  0.11455347  0.00609841  1
  O  O331  1  0.00849936  0.11818193  0.50016537  1
  O  O332  1  0.00918919  0.62144152  0.00489460  1
  O  O333  1  -0.00134347  0.61861752  0.51341393  1
  O  O334  1  0.50173429  0.12323149  0.00798862  1
  O  O335  1  0.50568276  0.11806320  0.50472479  1
  O  O336  1  0.51153002  0.62294056  0.00151345  1
  O  O337  1  0.50912430  0.61795295  0.50723486  1
  O  O338  1  0.49767953  0.37964483  0.49649849  1
  O  O339  1  0.49433364  0.37531589  0.99307653  1
  O  O340  1  0.49349197  0.88098113  0.49490120  1
  O  O341  1  0.48747615  0.87688339  0.99269303  1
  O  O342  1  0.99542169  0.38025581  0.49560750  1
  O  O343  1  0.99483190  0.38304366  0.99920636  1
  O  O344  1  0.98937885  0.88144517  0.49270659  1
  O  O345  1  0.99197729  0.89116960  1.00296415  1
  O  O346  1  0.49643028  0.49337993  0.38123781  1
  O  O347  1  0.49327136  0.48857376  0.87866852  1
  O  O348  1  0.49486790  0.99439085  0.37900677  1
  O  O349  1  0.49297498  0.99224646  0.87516823  1
  O  O350  1  0.99642258  0.49522579  0.38094107  1
  O  O351  1  0.99287808  0.50081003  0.88102882  1
  O  O352  1  0.99162208  0.99492722  0.37840227  1
  O  O353  1  0.99960295  1.00748674  0.88668032  1
  O  O354  1  -0.00028126  0.01172051  0.12045932  1
  O  O355  1  0.00716791  -0.00101394  0.61721273  1
  O  O356  1  0.00164526  0.50874152  0.11858732  1
  O  O357  1  0.00738374  0.50668061  0.62194592  1
  O  O358  1  0.50795525  0.00532065  0.12571599  1
  O  O359  1  0.50485828  0.00429384  0.61886356  1
  O  O360  1  0.50564057  0.50470739  0.12323080  1
  O  O361  1  0.50677941  0.50473394  0.62152471  1
  O  O362  1  0.24559015  0.38000770  0.24548975  1
  O  O363  1  0.24105303  0.37562867  0.74566051  1
  O  O364  1  0.24065110  0.88465936  0.24843787  1
  O  O365  1  0.23791451  0.87405146  0.74320545  1
  O  O366  1  0.74479514  0.38372503  0.25101700  1
  O  O367  1  0.74380192  0.37968510  0.74646870  1
  O  O368  1  0.74774219  0.88440188  0.24043830  1
  O  O369  1  0.74196548  0.88168471  0.74659929  1
  O  O370  1  0.25439529  0.11620666  0.24945477  1
  O  O371  1  0.25665038  0.12363047  0.75685692  1
  O  O372  1  0.25577847  0.61765238  0.25704019  1
  O  O373  1  0.25722824  0.62284813  0.76129659  1
  O  O374  1  0.75510112  0.12136567  0.25489601  1
  O  O375  1  0.74979159  0.11510646  0.75452148  1
  O  O376  1  0.75201864  0.61434780  0.25396210  1
  O  O377  1  0.75420339  0.61504936  0.75393770  1
  O  O378  1  0.37489753  0.11712160  0.36782333  1
  O  O379  1  0.37075455  0.11966788  0.87033329  1
  O  O380  1  0.37708413  0.61693783  0.36925934  1
  O  O381  1  0.36872771  0.62282836  0.87342247  1
  O  O382  1  0.86921111  0.11951078  0.36941810  1
  O  O383  1  0.85778553  0.12760457  0.86797131  1
  O  O384  1  0.87422515  0.61839248  0.37395817  1
  O  O385  1  0.87540648  0.61455790  0.87438533  1
  O  O386  1  0.13194371  0.37748613  0.13198800  1
  O  O387  1  0.13087870  0.38253490  0.63390239  1
  O  O388  1  0.12505512  0.87499703  0.13578413  1
  O  O389  1  0.12875749  0.87737127  0.63217086  1
  O  O390  1  0.62812458  0.37779999  0.13636470  1
  O  O391  1  0.63066340  0.38109780  0.63303754  1
  O  O392  1  0.62949857  0.88424776  0.12453619  1
  O  O393  1  0.62528492  0.87852613  0.62978589  1
  O  O394  1  0.11713759  0.25729372  0.25081392  1
  O  O395  1  0.11953550  0.25837668  0.75447842  1
  O  O396  1  0.11932970  0.76017145  0.25702028  1
  O  O397  1  0.11842094  0.75534142  0.75567309  1
  O  O398  1  0.62019052  0.25409984  0.25603293  1
  O  O399  1  0.62565864  0.26439013  0.74473586  1
  O  O400  1  0.61415484  0.75005867  0.25763898  1
  O  O401  1  0.61947268  0.75330006  0.75696896  1
  O  O402  1  0.38031702  0.24538380  0.24554309  1
  O  O403  1  0.37873368  0.24207627  0.74377998  1
  O  O404  1  0.38210296  0.74649174  0.24594985  1
  O  O405  1  0.38099250  0.74412734  0.74537949  1
  O  O406  1  0.87998247  0.24482865  0.24394212  1
  O  O407  1  0.88929650  0.25605935  0.75069482  1
  O  O408  1  0.88196138  0.75119487  0.24258782  1
  O  O409  1  0.88579027  0.75121341  0.74128316  1
  O  O410  1  0.38345707  0.49335833  0.49687568  1
  O  O411  1  0.37530072  0.49330688  0.99466655  1
  O  O412  1  0.37984480  0.99372193  0.49446874  1
  O  O413  1  0.37681242  0.99033815  0.99372321  1
  O  O414  1  0.88234247  0.49383538  0.49555404  1
  O  O415  1  0.87931738  0.49702454  0.99346507  1
  O  O416  1  0.87873420  0.99245840  0.49374840  1
  O  O417  1  0.88631266  0.99377909  1.00236228  1
  O  O418  1  0.10935818  0.00049490  0.00176500  1
  O  O419  1  0.11881739  0.00422901  0.50284490  1
  O  O420  1  0.11954543  0.51276162  0.00097630  1
  O  O421  1  0.11934442  0.49067428  0.51484520  1
  O  O422  1  0.62287919  0.00166018  0.01140650  1
  O  O423  1  0.61910275  0.00437661  0.50399205  1
  O  O424  1  0.62679063  0.51183125  0.00144082  1
  O  O425  1  0.62049763  0.50676009  0.50592963  1
  O  O426  1  0.36997185  0.36929348  0.12132344  1
  O  O427  1  0.37249907  0.37051775  0.62274257  1
  O  O428  1  0.37282608  0.86795588  0.11677323  1
  O  O429  1  0.36983457  0.86915050  0.62104646  1
  O  O430  1  0.87407925  0.36835873  0.11783431  1
  O  O431  1  0.86892466  0.37403337  0.61851325  1
  O  O432  1  0.86868446  0.87113275  0.11610340  1
  O  O433  1  0.87553959  0.86482219  0.61425152  1
  O  O434  1  0.12551369  0.12504767  0.38630625  1
  O  O435  1  0.13354987  0.13282532  0.87624870  1
  O  O436  1  0.12188791  0.64258577  0.36909508  1
  O  O437  1  0.13195730  0.63134993  0.88101830  1
  O  O438  1  0.62974051  0.12920085  0.37961136  1
  O  O439  1  0.63923242  0.12272520  0.87501527  1
  O  O440  1  0.62509865  0.63301759  0.38511438  1
  O  O441  1  0.62374606  0.63365613  0.88209357  1
