# generated using pymatgen
data_V93Zn93O256
_symmetry_space_group_name_H-M   'P 1'
_cell_length_a   17.04706001
_cell_length_b   17.04776690
_cell_length_c   17.05112017
_cell_angle_alpha   90.03853897
_cell_angle_beta   89.97950327
_cell_angle_gamma   89.97504044
_symmetry_Int_Tables_number   1
_chemical_formula_structural   V93Zn93O256
_chemical_formula_sum   'V93 Zn93 O256'
_cell_volume   4955.29753552
_cell_formula_units_Z   1
loop_
 _symmetry_equiv_pos_site_id
 _symmetry_equiv_pos_as_xyz
  1  'x, y, z'
loop_
 _atom_site_type_symbol
 _atom_site_label
 _atom_site_symmetry_multiplicity
 _atom_site_fract_x
 _atom_site_fract_y
 _atom_site_fract_z
 _atom_site_occupancy
  V  V0  1  0.62597385  0.24908035  0.37476772  1
  V  V1  1  0.12682585  0.24959021  0.37495020  1
  V  V2  1  0.37293663  0.50003359  0.87700392  1
  V  V3  1  0.50117765  -0.00231162  -0.00376778  1
  V  V4  1  0.62677673  -0.00143066  0.12453743  1
  V  V5  1  0.25516315  0.25591144  0.49860241  1
  V  V6  1  0.49826713  0.75723031  0.75448212  1
  V  V7  1  0.12526468  0.37407083  0.24948093  1
  V  V8  1  0.87424595  0.75007711  0.62538113  1
  V  V9  1  0.37588520  0.24961599  0.12425785  1
  V  V10  1  0.25582181  -0.00053428  0.25233314  1
  V  V11  1  0.50102753  0.12417150  0.12460147  1
  V  V12  1  0.74837697  0.00012036  0.74984186  1
  V  V13  1  0.49645124  0.49565720  0.50089889  1
  V  V14  1  0.87861111  0.87449798  -0.00582800  1
  V  V15  1  0.87902921  0.74584754  0.12424250  1
  V  V16  1  0.87471029  0.37473400  0.49947087  1
  V  V17  1  0.88047326  -0.00092713  0.38151586  1
  V  V18  1  0.37634828  0.25632809  0.62160182  1
  V  V19  1  0.75124395  0.12437444  0.37462972  1
  V  V20  1  0.74985919  0.49973405  0.24992647  1
  V  V21  1  0.62590456  0.12431619  -0.00025808  1
  V  V22  1  0.49819084  0.37591807  0.87531931  1
  V  V23  1  0.87369684  0.62595370  0.75104630  1
  V  V24  1  0.87597054  0.12610630  0.75073769  1
  V  V25  1  0.74966276  0.12417721  0.87451974  1
  V  V26  1  0.00005892  0.50086055  0.50069227  1
  V  V27  1  0.37164381  0.62596762  0.75183070  1
  V  V28  1  0.37431309  0.75037615  0.62520497  1
  V  V29  1  0.12700895  -0.00047327  0.12577916  1
  V  V30  1  0.74768476  0.62524172  0.87576172  1
  V  V31  1  -0.00145962  0.75505633  0.75842487  1
  V  V32  1  0.37402264  0.74901535  0.12514547  1
  V  V33  1  0.62371745  0.62479765  0.00153469  1
  V  V34  1  0.50177053  0.24892860  0.25002533  1
  V  V35  1  0.62289930  0.50087112  0.62640577  1
  V  V36  1  0.37905507  0.87399019  -0.00370823  1
  V  V37  1  0.87771020  0.12266079  0.24979643  1
  V  V38  1  0.74974329  0.62617118  0.37573112  1
  V  V39  1  0.12492888  0.74993456  0.37542995  1
  V  V40  1  0.75143807  -0.00113930  0.24986462  1
  V  V41  1  0.87735225  0.62556024  0.24894508  1
  V  V42  1  0.25213775  0.87547607  0.12629677  1
  V  V43  1  0.87476327  0.24993687  0.62490667  1
  V  V44  1  0.00038254  0.87734050  0.38185357  1
  V  V45  1  0.74800819  0.50085285  0.74997241  1
  V  V46  1  0.62378966  -0.00016443  0.62474037  1
  V  V47  1  0.87628212  0.24924239  0.12451364  1
  V  V48  1  0.12586809  0.12409429  -0.00108657  1
  V  V49  1  0.37651017  0.12256706  0.25086863  1
  V  V50  1  0.12448844  0.62428660  0.50248258  1
  V  V51  1  0.12356648  0.25175205  0.87248007  1
  V  V52  1  0.74961881  0.25025294  0.49824371  1
  V  V53  1  0.00039120  0.37484200  0.37470713  1
  V  V54  1  0.62651664  0.75074504  0.37551744  1
  V  V55  1  0.00225564  0.12299296  0.12564253  1
  V  V56  1  0.25109735  0.49950490  0.25102281  1
  V  V57  1  0.49627976  0.00034515  0.49645518  1
  V  V58  1  0.75023020  0.75062498  0.00095842  1
  V  V59  1  0.00146046  0.24861008  0.24978949  1
  V  V60  1  0.62373559  0.25045019  0.87493641  1
  V  V61  1  0.61908717  0.75629429  0.87600778  1
  V  V62  1  0.37516427  0.87611850  0.49719598  1
  V  V63  1  0.62493719  0.37656181  0.75076893  1
  V  V64  1  0.24807813  0.88026579  0.62465797  1
  V  V65  1  0.12194192  0.11932897  0.50451060  1
  V  V66  1  0.49882023  0.37434117  0.37633553  1
  V  V67  1  0.00050517  -0.00435582  -0.00751948  1
  V  V68  1  0.37497472  0.49542945  0.37820551  1
  V  V69  1  0.49965038  0.25016439  0.74834714  1
  V  V70  1  0.25196871  0.37315587  0.12328066  1
  V  V71  1  0.25640973  0.12114115  0.37555149  1
  V  V72  1  0.87479566  0.50050131  0.37485990  1
  V  V73  1  0.37546553  0.62433526  0.25064482  1
  V  V74  1  0.75024088  0.75080049  0.50066679  1
  V  V75  1  0.62613321  0.87500610  0.25002961  1
  V  V76  1  0.74745174  0.87476653  0.62668993  1
  V  V77  1  0.62706780  0.37527096  0.24892421  1
  V  V78  1  0.87776825  0.37573389  -0.00111466  1
  V  V79  1  0.24968961  0.75033700  0.49938820  1
  V  V80  1  0.11876374  0.50545261  0.12203182  1
  V  V81  1  0.25160120  0.12460054  0.87264515  1
  V  V82  1  0.87513255  0.49940687  0.87506042  1
  V  V83  1  0.49964822  0.12614203  0.62298783  1
  V  V84  1  0.37873932  -0.00318949  0.87154554  1
  V  V85  1  0.49666085  0.87747741  0.37426147  1
  V  V86  1  0.49807450  0.62527217  0.62558662  1
  V  V87  1  0.12121339  0.87629744  0.75584644  1
  V  V88  1  0.00107580  0.74649583  0.24749595  1
  V  V89  1  0.50029002  0.62281797  0.12529302  1
  V  V90  1  0.24793720  0.37730641  0.62501319  1
  V  V91  1  0.24224813  0.62793592  0.87826427  1
  V  V92  1  0.75127921  0.24930232  0.00053735  1
  Zn  Zn93  1  0.62713450  0.49858231  0.12379407  1
  Zn  Zn94  1  0.37698857  0.37285167  -0.00079343  1
  Zn  Zn95  1  0.75126803  0.87428973  0.12553674  1
  Zn  Zn96  1  0.74896757  0.37665381  0.62437237  1
  Zn  Zn97  1  0.24627744  0.75098269  0.00116203  1
  Zn  Zn98  1  0.12096139  0.49817787  0.62772014  1
  Zn  Zn99  1  0.50086664  0.74961561  0.25160108  1
  Zn  Zn100  1  -0.00322800  0.50767052  0.00029066  1
  Zn  Zn101  1  0.25194120  0.24907808  -0.00128942  1
  Zn  Zn102  1  0.75017015  0.37650758  0.12459024  1
  Zn  Zn103  1  0.37444786  0.12382727  0.74745106  1
  Zn  Zn104  1  0.00133419  0.25045038  0.74739314  1
  Zn  Zn105  1  0.61999190  0.87894024  0.75505282  1
  Zn  Zn106  1  -0.00643857  0.11748686  0.61916474  1
  Zn  Zn107  1  -0.00008962  0.62418521  0.62755114  1
  Zn  Zn108  1  0.24369932  0.50061211  0.75055640  1
  Zn  Zn109  1  0.87894510  0.88040957  0.50517905  1
  Zn  Zn110  1  0.11562400  0.63564442  0.00627472  1
  Zn  Zn111  1  0.10674661  -0.00867542  0.61989892  1
  Zn  Zn112  1  0.12584956  0.87482502  0.25103176  1
  Zn  Zn113  1  0.25222480  0.62508406  0.37641966  1
  Zn  Zn114  1  0.62529799  0.12461145  0.49863135  1
  Zn  Zn115  1  0.62413990  0.62490642  0.50011541  1
  Zn  Zn116  1  0.24656327  0.00114435  0.74679376  1
  Zn  Zn117  1  0.87721106  -0.00406475  0.87242470  1
  Zn  Zn118  1  0.00127691  0.37667258  0.87143115  1
  Zn  Zn119  1  0.50139325  0.49759087  0.00098145  1
  Zn  Zn120  1  0.12012310  0.37850713  0.74909830  1
  Zn  Zn121  1  0.11971968  0.75648569  0.88074119  1
  Zn  Zn122  1  0.18870382  0.18627354  0.18731647  1
  Zn  Zn123  1  0.18934584  0.18953514  0.68763535  1
  Zn  Zn124  1  0.19033591  0.68761591  0.19049219  1
  Zn  Zn125  1  0.18629256  0.69064098  0.69009450  1
  Zn  Zn126  1  0.68991185  0.18665710  0.18721254  1
  Zn  Zn127  1  0.68714852  0.18728046  0.68552158  1
  Zn  Zn128  1  0.68908012  0.68834328  0.18813416  1
  Zn  Zn129  1  0.68406080  0.68763583  0.68899209  1
  Zn  Zn130  1  0.31433429  0.31173465  0.31057971  1
  Zn  Zn131  1  0.31111390  0.31267133  0.80796763  1
  Zn  Zn132  1  0.31401740  0.81113469  0.31221993  1
  Zn  Zn133  1  0.30794666  0.81226493  0.81245708  1
  Zn  Zn134  1  0.81287092  0.31231951  0.31153858  1
  Zn  Zn135  1  0.81053809  0.31324869  0.81297249  1
  Zn  Zn136  1  0.81405512  0.81439198  0.31303017  1
  Zn  Zn137  1  0.80880550  0.81256792  0.81312130  1
  Zn  Zn138  1  0.18703167  0.43801089  0.43866746  1
  Zn  Zn139  1  0.18896589  0.43770353  0.93841339  1
  Zn  Zn140  1  0.18736539  0.93700935  0.43536896  1
  Zn  Zn141  1  0.19240776  0.93884575  0.93850243  1
  Zn  Zn142  1  0.68571700  0.43772762  0.43782966  1
  Zn  Zn143  1  0.68807023  0.43782115  0.93903160  1
  Zn  Zn144  1  0.68814099  0.93651310  0.43906554  1
  Zn  Zn145  1  0.69173176  0.93656272  0.93832271  1
  Zn  Zn146  1  0.31383136  0.06160577  0.06094674  1
  Zn  Zn147  1  0.31425353  0.06528993  0.56020081  1
  Zn  Zn148  1  0.30924155  0.56271285  0.06063480  1
  Zn  Zn149  1  0.31233518  0.56280434  0.56206718  1
  Zn  Zn150  1  0.81426665  0.06122469  0.06269375  1
  Zn  Zn151  1  0.80993514  0.06306298  0.56290610  1
  Zn  Zn152  1  0.81206101  0.56339969  0.06341302  1
  Zn  Zn153  1  0.81089657  0.56344942  0.56300099  1
  Zn  Zn154  1  0.43838915  0.43756710  0.19006419  1
  Zn  Zn155  1  0.43431148  0.43786623  0.69043083  1
  Zn  Zn156  1  0.43918059  0.93691692  0.18547213  1
  Zn  Zn157  1  0.43526828  0.93893712  0.68487498  1
  Zn  Zn158  1  0.93613499  0.43591022  0.18810406  1
  Zn  Zn159  1  0.93894748  0.43631014  0.68840091  1
  Zn  Zn160  1  0.93919186  0.93308854  0.18737187  1
  Zn  Zn161  1  0.93788889  0.93964828  0.68670052  1
  Zn  Zn162  1  0.06708773  0.06115886  0.31442850  1
  Zn  Zn163  1  0.06382713  0.06223815  0.80807379  1
  Zn  Zn164  1  0.06416785  0.56295997  0.31309614  1
  Zn  Zn165  1  0.05949201  0.56241922  0.81123020  1
  Zn  Zn166  1  0.56475017  0.06134038  0.31254786  1
  Zn  Zn167  1  0.56095111  0.06450507  0.81028181  1
  Zn  Zn168  1  0.56358068  0.56254816  0.31201405  1
  Zn  Zn169  1  0.55949816  0.56607243  0.81364336  1
  Zn  Zn170  1  0.43763895  0.18789772  0.43784465  1
  Zn  Zn171  1  0.43711232  0.18658192  0.93803452  1
  Zn  Zn172  1  0.43874929  0.68655004  0.43764499  1
  Zn  Zn173  1  0.43507489  0.68619471  0.93908235  1
  Zn  Zn174  1  0.93776508  0.18787836  0.43611315  1
  Zn  Zn175  1  0.93988225  0.18599702  0.93728412  1
  Zn  Zn176  1  0.93833086  0.68863572  0.43723718  1
  Zn  Zn177  1  0.93905102  0.68324436  0.93960640  1
  Zn  Zn178  1  0.06384818  0.31287041  0.05972501  1
  Zn  Zn179  1  0.06306755  0.30879602  0.56142780  1
  Zn  Zn180  1  0.06349280  0.81533098  0.06446513  1
  Zn  Zn181  1  0.06155199  0.80982278  0.56544748  1
  Zn  Zn182  1  0.56284742  0.31384837  0.06240412  1
  Zn  Zn183  1  0.56424898  0.31499123  0.56148011  1
  Zn  Zn184  1  0.56062451  0.81111795  0.06376275  1
  Zn  Zn185  1  0.56344597  0.81286969  0.56347930  1
  O  O186  1  0.12186294  0.11961756  0.11927468  1
  O  O187  1  0.12772410  0.12773362  0.61019618  1
  O  O188  1  0.13367605  0.60729540  0.12778299  1
  O  O189  1  0.12438632  0.62673882  0.61199961  1
  O  O190  1  0.62063598  0.11913786  0.11945024  1
  O  O191  1  0.61808013  0.11907631  0.62114638  1
  O  O192  1  0.61568897  0.62629032  0.12075401  1
  O  O193  1  0.61585676  0.61834520  0.62538425  1
  O  O194  1  0.38237155  0.38719731  0.36691824  1
  O  O195  1  0.37799624  0.38356079  0.87348066  1
  O  O196  1  0.38840715  0.86899576  0.38086547  1
  O  O197  1  0.36564019  0.88547833  0.88441131  1
  O  O198  1  0.88127506  0.37988102  0.37939487  1
  O  O199  1  0.87332775  0.37945100  0.88479736  1
  O  O200  1  0.88282496  0.88319651  0.37696042  1
  O  O201  1  0.87037259  0.87510341  0.88985683  1
  O  O202  1  0.24629610  0.01018332  0.36507865  1
  O  O203  1  0.25976627  0.00980053  0.87318465  1
  O  O204  1  0.25947868  0.49846483  0.37078704  1
  O  O205  1  0.25719118  0.50781524  0.87469867  1
  O  O206  1  0.75858364  0.00419380  0.36935615  1
  O  O207  1  0.75121350  0.00747788  0.86869913  1
  O  O208  1  0.75596744  0.50533151  0.37033856  1
  O  O209  1  0.75396637  0.50639919  0.86929691  1
  O  O210  1  0.24411233  0.48982834  0.13127103  1
  O  O211  1  0.25101538  0.48694932  0.62253481  1
  O  O212  1  0.24657275  0.99675696  0.13265472  1
  O  O213  1  0.25248168  0.98697413  0.62276617  1
  O  O214  1  0.74914680  0.49879104  0.13516314  1
  O  O215  1  0.74217025  0.49999853  0.63199217  1
  O  O216  1  0.74449334  0.99933676  0.13163599  1
  O  O217  1  0.74393114  0.99528962  0.62990606  1
  O  O218  1  0.00501845  0.36780904  0.25563729  1
  O  O219  1  0.00164121  0.36735980  0.75327986  1
  O  O220  1  0.00172721  0.86365139  0.26030430  1
  O  O221  1  0.00969866  0.86677457  0.74322678  1
  O  O222  1  0.50664038  0.36807902  0.25564212  1
  O  O223  1  0.50520534  0.36955955  0.75554206  1
  O  O224  1  0.50576509  0.87581948  0.25913730  1
  O  O225  1  0.49852323  0.86074740  0.74487486  1
  O  O226  1  0.49663082  0.12839358  0.24494411  1
  O  O227  1  0.49852289  0.13337102  0.74069382  1
  O  O228  1  0.49460180  0.62563873  0.24145755  1
  O  O229  1  0.49161650  0.63478889  0.74489353  1
  O  O230  1  0.99811828  0.12937961  0.24587238  1
  O  O231  1  0.98561938  0.12803336  0.74899193  1
  O  O232  1  0.99344115  0.63840481  0.25933563  1
  O  O233  1  0.99136384  0.63603831  0.74749681  1
  O  O234  1  0.37276720  0.25129302  0.00885582  1
  O  O235  1  0.36529931  0.24553459  0.50819634  1
  O  O236  1  0.37325966  0.75934586  0.00541048  1
  O  O237  1  0.37007021  0.75521159  0.50548139  1
  O  O238  1  0.87176700  0.25609969  0.00407863  1
  O  O239  1  0.87009866  0.25374148  0.50539170  1
  O  O240  1  0.87217155  0.75565250  0.00649265  1
  O  O241  1  0.86945650  0.74986349  0.51129395  1
  O  O242  1  0.13655375  0.24089667  0.49407436  1
  O  O243  1  0.12812592  0.24227904  0.99143642  1
  O  O244  1  0.12906009  0.74248414  0.49532769  1
  O  O245  1  0.12799221  0.75273436  0.99693644  1
  O  O246  1  0.63117530  0.24981056  0.49221100  1
  O  O247  1  0.63032889  0.24373260  0.99482010  1
  O  O248  1  0.63214263  0.74843513  0.49452570  1
  O  O249  1  0.62844068  0.74528334  0.99417042  1
  O  O250  1  0.49679781  0.24333152  0.13112384  1
  O  O251  1  0.49348739  0.24772850  0.62613486  1
  O  O252  1  0.49329548  0.73872467  0.12739115  1
  O  O253  1  0.49391284  0.74510289  0.63205678  1
  O  O254  1  0.99710244  0.24333667  0.13008246  1
  O  O255  1  0.98525059  0.24282436  0.62209425  1
  O  O256  1  0.99152599  0.75762759  0.13763499  1
  O  O257  1  0.98740302  0.74892658  0.63326301  1
  O  O258  1  0.00624595  0.25536879  0.36903523  1
  O  O259  1  0.01288721  0.24940163  0.87507682  1
  O  O260  1  0.00382482  0.75786433  0.36754633  1
  O  O261  1  -0.00239405  0.74886976  0.86146959  1
  O  O262  1  0.50490004  0.25390447  0.36957331  1
  O  O263  1  0.50433276  0.25442617  0.86892184  1
  O  O264  1  0.50717086  0.76009414  0.37579812  1
  O  O265  1  0.50733300  0.74221521  0.86624837  1
  O  O266  1  0.24518562  0.13361351  0.49239444  1
  O  O267  1  0.24452167  0.12376752  0.98937329  1
  O  O268  1  0.24192630  0.63145573  0.49904132  1
  O  O269  1  0.24402123  0.62732523  0.99108411  1
  O  O270  1  0.74850285  0.13189911  0.49168430  1
  O  O271  1  0.74560388  0.12920158  0.99496145  1
  O  O272  1  0.74796780  0.63167195  0.49293050  1
  O  O273  1  0.74443977  0.63173165  0.99513991  1
  O  O274  1  0.25309421  0.37258741  0.01367166  1
  O  O275  1  0.24506700  0.36217067  0.50593777  1
  O  O276  1  0.26285301  0.87737038  0.00858604  1
  O  O277  1  0.25426600  0.87069153  0.50524823  1
  O  O278  1  0.75999416  0.36762640  0.00111267  1
  O  O279  1  0.75711103  0.36900258  0.49991805  1
  O  O280  1  0.75975910  0.86870694  0.00386999  1
  O  O281  1  0.75305573  0.86863132  0.50823888  1
  O  O282  1  0.13036797  0.49374534  0.24305690  1
  O  O283  1  0.12682614  0.49798840  0.74436524  1
  O  O284  1  0.13887932  1.00057847  0.24449747  1
  O  O285  1  0.12608139  0.99109801  0.74217934  1
  O  O286  1  0.63198352  0.49298680  0.25042760  1
  O  O287  1  0.62770567  0.49660655  0.74683586  1
  O  O288  1  0.63168109  0.99509470  0.24427369  1
  O  O289  1  0.62918681  0.99909235  0.74381672  1
  O  O290  1  0.36380516  0.00669653  0.24253723  1
  O  O291  1  0.37219446  0.00118710  0.75872961  1
  O  O292  1  0.37096707  0.50487469  0.25871502  1
  O  O293  1  0.37176302  0.50710239  0.76106445  1
  O  O294  1  0.87137151  0.00408334  0.25693425  1
  O  O295  1  0.86798212  0.01004000  0.75234880  1
  O  O296  1  0.87158577  0.50504031  0.25588144  1
  O  O297  1  0.86776632  0.50586356  0.75454138  1
  O  O298  1  0.12042794  0.36980223  0.36949152  1
  O  O299  1  0.12680976  0.36311522  0.87633384  1
  O  O300  1  0.11745075  0.86946889  0.37322101  1
  O  O301  1  0.13616398  0.87571663  0.85922706  1
  O  O302  1  0.61926059  0.36839898  0.36873812  1
  O  O303  1  0.61911992  0.36954416  0.87039514  1
  O  O304  1  0.61762441  0.87042458  0.37019533  1
  O  O305  1  0.62850771  0.86038034  0.87608346  1
  O  O306  1  0.38174920  0.12933052  0.12976599  1
  O  O307  1  0.38007035  0.13708673  0.62510979  1
  O  O308  1  0.38095924  0.62805352  0.12934541  1
  O  O309  1  0.37773067  0.63123346  0.63112037  1
  O  O310  1  0.88264301  0.12904180  0.13059601  1
  O  O311  1  0.87009372  0.13367707  0.63360041  1
  O  O312  1  0.87138041  0.63872632  0.13134692  1
  O  O313  1  0.87225066  0.63600739  0.63227602  1
  O  O314  1  0.25592471  0.25819299  0.12658068  1
  O  O315  1  0.25753341  0.25610637  0.61731273  1
  O  O316  1  0.25702865  0.75690495  0.12578562  1
  O  O317  1  0.25469975  0.76005998  0.61921094  1
  O  O318  1  0.75903430  0.24903447  0.11831338  1
  O  O319  1  0.75881974  0.25189274  0.61803558  1
  O  O320  1  0.76000859  0.75155516  0.11902710  1
  O  O321  1  0.75585313  0.75381478  0.62280888  1
  O  O322  1  0.24755694  0.24387912  0.38028119  1
  O  O323  1  0.24428306  0.24048529  0.87526527  1
  O  O324  1  0.24368958  0.74981024  0.38166858  1
  O  O325  1  0.24788344  0.73904002  0.87750510  1
  O  O326  1  0.74666265  0.24388220  0.37847240  1
  O  O327  1  0.74283572  0.24413684  0.88062011  1
  O  O328  1  0.74687518  0.74628199  0.38038369  1
  O  O329  1  0.74049075  0.74378986  0.88049496  1
  O  O330  1  0.00523234  0.11601657  0.00715249  1
  O  O331  1  0.01993913  0.13201090  0.49508396  1
  O  O332  1  0.00385919  0.62015999  0.00224664  1
  O  O333  1  0.00875963  0.62055127  0.50040755  1
  O  O334  1  0.50711920  0.11903916  0.00522127  1
  O  O335  1  0.50085611  0.11591984  0.50299448  1
  O  O336  1  0.50425509  0.62426367  0.01016479  1
  O  O337  1  0.50098502  0.61453863  0.50684728  1
  O  O338  1  0.50404184  0.38765633  0.49328319  1
  O  O339  1  0.49750578  0.37713767  0.99169542  1
  O  O340  1  0.49599335  0.88131294  0.49368330  1
  O  O341  1  0.48700758  0.88078832  1.00496382  1
  O  O342  1  0.99519407  0.37895183  0.49335651  1
  O  O343  1  0.98705033  0.37789501  0.99865466  1
  O  O344  1  0.99834283  0.86789253  0.48601264  1
  O  O345  1  0.99115866  0.88597486  1.00659227  1
  O  O346  1  0.49413498  0.49568077  0.38176268  1
  O  O347  1  0.48926117  0.49567495  0.87483848  1
  O  O348  1  0.50755805  0.98895659  0.38439108  1
  O  O349  1  0.48750707  1.00763700  0.88008509  1
  O  O350  1  0.99455410  0.49401722  0.37951946  1
  O  O351  1  0.98893099  0.49685469  0.87666619  1
  O  O352  1  0.99196574  0.98993057  0.36597685  1
  O  O353  1  0.99877947  1.00737497  0.88952525  1
  O  O354  1  0.00697708  0.00443272  0.11956702  1
  O  O355  1  -0.00495772  0.00505196  0.61733702  1
  O  O356  1  0.01688705  0.49322569  0.12886065  1
  O  O357  1  -0.00098474  0.50393742  0.61549429  1
  O  O358  1  0.50687414  0.00583802  0.11804106  1
  O  O359  1  0.50375055  0.00507257  0.61685873  1
  O  O360  1  0.50032440  0.51189720  0.12448171  1
  O  O361  1  0.50076207  0.50382845  0.61896232  1
  O  O362  1  0.24513963  0.37842630  0.24200328  1
  O  O363  1  0.24529687  0.37565835  0.73695464  1
  O  O364  1  0.25186713  0.88475363  0.24625173  1
  O  O365  1  0.24172180  0.87406354  0.73807920  1
  O  O366  1  0.74525088  0.38097046  0.24941542  1
  O  O367  1  0.74233000  0.38302083  0.74974641  1
  O  O368  1  0.74421933  0.88152272  0.24901309  1
  O  O369  1  0.74712713  0.88259698  0.74459679  1
  O  O370  1  0.25539821  0.11919737  0.25701738  1
  O  O371  1  0.25186471  0.12249498  0.75984790  1
  O  O372  1  0.25764430  0.61700918  0.25431753  1
  O  O373  1  0.25513956  0.62567527  0.75838220  1
  O  O374  1  0.75807206  0.11935586  0.25548688  1
  O  O375  1  0.75624995  0.12045426  0.75444769  1
  O  O376  1  0.75709713  0.62038679  0.25672654  1
  O  O377  1  0.75330019  0.62084753  0.75652859  1
  O  O378  1  0.36307645  0.13079681  0.36869493  1
  O  O379  1  0.36680518  0.11711746  0.87447975  1
  O  O380  1  0.37588499  0.61371705  0.36978444  1
  O  O381  1  0.36576749  0.61814221  0.87208067  1
  O  O382  1  0.87306833  0.11777028  0.36886512  1
  O  O383  1  0.86772231  0.12691344  0.86559713  1
  O  O384  1  0.86968643  0.61991784  0.36980764  1
  O  O385  1  0.86627101  0.62030914  0.86992560  1
  O  O386  1  0.13410675  0.37995867  0.13036200  1
  O  O387  1  0.13534797  0.37339006  0.62362638  1
  O  O388  1  0.13410286  0.88258396  0.12951025  1
  O  O389  1  0.13361859  0.87371760  0.63025198  1
  O  O390  1  0.62832180  0.37667746  0.13297928  1
  O  O391  1  0.62569267  0.38251869  0.63322910  1
  O  O392  1  0.62554825  0.88102922  0.13098424  1
  O  O393  1  0.63023594  0.88155505  0.62891402  1
  O  O394  1  0.12092399  0.25363718  0.25504347  1
  O  O395  1  0.12347425  0.24883801  0.76079019  1
  O  O396  1  0.11726278  0.74943564  0.25595784  1
  O  O397  1  0.11421909  0.75821431  0.75106287  1
  O  O398  1  0.62076641  0.25371273  0.25515588  1
  O  O399  1  0.62012569  0.25569052  0.75497087  1
  O  O400  1  0.62431867  0.75726418  0.25698311  1
  O  O401  1  0.61516834  0.75051568  0.75931949  1
  O  O402  1  0.38263379  0.24290345  0.24441024  1
  O  O403  1  0.38175363  0.24801049  0.73909749  1
  O  O404  1  0.37754196  0.74231503  0.24384269  1
  O  O405  1  0.38043586  0.74649129  0.74599397  1
  O  O406  1  0.88230617  0.24310170  0.24554726  1
  O  O407  1  0.87049403  0.24214348  0.74103926  1
  O  O408  1  0.88129649  0.74643361  0.24343128  1
  O  O409  1  0.87846373  0.74743923  0.74405050  1
  O  O410  1  0.38470930  0.50504051  0.48977441  1
  O  O411  1  0.37613003  0.49802626  0.98773106  1
  O  O412  1  0.38874711  0.99394740  0.50433955  1
  O  O413  1  0.38111475  0.99333686  0.99269605  1
  O  O414  1  0.87905481  0.49514393  0.49400620  1
  O  O415  1  0.87178793  0.49062826  0.99499829  1
  O  O416  1  0.87111076  1.00121513  0.48491924  1
  O  O417  1  0.88311339  0.99211394  0.99998043  1
  O  O418  1  0.11870160  0.00321945  0.00487938  1
  O  O419  1  0.13429363  0.01647712  0.50061746  1
  O  O420  1  0.12488298  0.49588258  0.01677382  1
  O  O421  1  0.11926708  0.50923998  0.50016429  1
  O  O422  1  0.62148459  0.00466777  0.00359221  1
  O  O423  1  0.61384652  0.00014595  0.50616911  1
  O  O424  1  0.62317035  0.50920410  0.00225967  1
  O  O425  1  0.61452297  0.50205262  0.50625624  1
  O  O426  1  0.36687755  0.36949321  0.12762001  1
  O  O427  1  0.36670093  0.36340845  0.62877572  1
  O  O428  1  0.37155536  0.86989500  0.11761104  1
  O  O429  1  0.36679972  0.86939602  0.61809247  1
  O  O430  1  0.87442454  0.36779139  0.11639281  1
  O  O431  1  0.87268635  0.36513623  0.61833066  1
  O  O432  1  0.87356068  0.86404492  0.11648739  1
  O  O433  1  0.86729460  0.86464383  0.62566573  1
  O  O434  1  0.13692893  0.12989553  0.38253027  1
  O  O435  1  0.13352087  0.12992201  0.87833809  1
  O  O436  1  0.12730670  0.63011503  0.38634212  1
  O  O437  1  0.13515062  0.62586869  0.87497305  1
  O  O438  1  0.63286859  0.13140162  0.37496620  1
  O  O439  1  0.62934354  0.13103183  0.88026288  1
  O  O440  1  0.63175225  0.63243815  0.37543433  1
  O  O441  1  0.62853349  0.63421251  0.88139452  1
