# generated using pymatgen
data_V93Zn93O256
_symmetry_space_group_name_H-M   'P 1'
_cell_length_a   17.05402611
_cell_length_b   17.06676738
_cell_length_c   17.06049031
_cell_angle_alpha   90.04084391
_cell_angle_beta   89.93719142
_cell_angle_gamma   89.98076854
_symmetry_Int_Tables_number   1
_chemical_formula_structural   V93Zn93O256
_chemical_formula_sum   'V93 Zn93 O256'
_cell_volume   4965.57224926
_cell_formula_units_Z   1
loop_
 _symmetry_equiv_pos_site_id
 _symmetry_equiv_pos_as_xyz
  1  'x, y, z'
loop_
 _atom_site_type_symbol
 _atom_site_label
 _atom_site_symmetry_multiplicity
 _atom_site_fract_x
 _atom_site_fract_y
 _atom_site_fract_z
 _atom_site_occupancy
  V  V0  1  0.62702567  0.87629426  0.25009642  1
  V  V1  1  0.87044475  0.36925153  0.49999934  1
  V  V2  1  -0.00001487  0.75004682  0.24876872  1
  V  V3  1  0.87161594  0.00541033  0.37608607  1
  V  V4  1  0.37484697  0.74991263  0.62506040  1
  V  V5  1  0.37486362  0.12465442  0.24970262  1
  V  V6  1  0.37459289  0.87705453  0.49930508  1
  V  V7  1  0.37543774  0.62605516  0.24976121  1
  V  V8  1  0.49974507  0.62429221  0.12609920  1
  V  V9  1  0.00111782  0.50063070  -0.00008617  1
  V  V10  1  0.12531985  0.25329040  0.86913977  1
  V  V11  1  0.12486514  0.75087084  0.87428701  1
  V  V12  1  0.37544809  0.00033615  0.37579098  1
  V  V13  1  0.74878714  0.62477471  0.37416906  1
  V  V14  1  0.62487657  0.62526094  0.50065360  1
  V  V15  1  0.37474730  0.50048704  0.87357016  1
  V  V16  1  0.37573948  0.49945735  0.37533996  1
  V  V17  1  0.00061679  0.00681301  0.50416864  1
  V  V18  1  0.24884100  0.25110491  0.50000863  1
  V  V19  1  0.12545225  0.12520918  -0.00046381  1
  V  V20  1  -0.00060943  0.37434399  0.37436033  1
  V  V21  1  0.74937503  0.50129790  0.24886307  1
  V  V22  1  0.87463688  0.62277841  0.75097249  1
  V  V23  1  0.37663718  0.12626765  0.74942778  1
  V  V24  1  0.37295260  0.37486689  0.50043980  1
  V  V25  1  0.75164329  0.74919362  -0.00032092  1
  V  V26  1  0.62530635  0.75077275  0.37542203  1
  V  V27  1  0.12535190  0.49385021  0.62883174  1
  V  V28  1  0.62601074  0.24937802  0.87367025  1
  V  V29  1  0.37457903  0.25102860  0.62508205  1
  V  V30  1  0.75070111  0.36537574  0.62168657  1
  V  V31  1  0.87653507  0.37501447  -0.00070104  1
  V  V32  1  0.87646201  0.87350795  0.50094725  1
  V  V33  1  0.24900537  0.12542571  0.37480970  1
  V  V34  1  0.12249492  0.12537750  0.50391015  1
  V  V35  1  0.50053841  -0.00593171  -0.00364296  1
  V  V36  1  0.87536265  0.49900571  0.87434381  1
  V  V37  1  0.12405071  0.87580709  0.24992815  1
  V  V38  1  0.12296520  0.24990168  0.37482536  1
  V  V39  1  0.12531958  0.62532490  0.49962689  1
  V  V40  1  0.37578330  0.25040624  0.12413701  1
  V  V41  1  0.75766049  0.11753766  0.87473218  1
  V  V42  1  0.62514304  0.49809273  0.12468630  1
  V  V43  1  0.25036418  0.00046027  0.74978454  1
  V  V44  1  0.25090309  0.12571314  0.87575433  1
  V  V45  1  0.50292247  0.12259084  0.12312759  1
  V  V46  1  0.00012920  0.25085119  0.25016277  1
  V  V47  1  0.12447198  0.00140640  0.12521453  1
  V  V48  1  0.24936460  0.50034030  0.24968881  1
  V  V49  1  0.12387539  0.87512747  0.74927309  1
  V  V50  1  0.12513349  0.37534539  0.24888826  1
  V  V51  1  0.74530582  0.87407906  0.62956102  1
  V  V52  1  0.88378724  0.12065128  0.74687715  1
  V  V53  1  -0.00004653  0.12544808  0.12423482  1
  V  V54  1  0.12176548  0.00297089  0.62508119  1
  V  V55  1  0.75095708  0.74915458  0.49996158  1
  V  V56  1  0.25058683  0.75186149  -0.00002049  1
  V  V57  1  0.87345849  0.12482739  0.25102916  1
  V  V58  1  0.24957408  0.87491977  0.62438962  1
  V  V59  1  0.50017284  0.49936737  -0.00031968  1
  V  V60  1  0.49991972  0.87625104  0.37563554  1
  V  V61  1  0.87532451  0.62592041  0.24911670  1
  V  V62  1  0.12406694  0.62472834  0.00048398  1
  V  V63  1  0.50157852  0.37365156  0.87431039  1
  V  V64  1  0.49840829  0.62723115  0.62776616  1
  V  V65  1  0.74971592  0.37473857  0.12482884  1
  V  V66  1  0.38020500  -0.00656488  0.87430818  1
  V  V67  1  0.50302367  0.12557437  0.61944954  1
  V  V68  1  0.62547314  0.62435137  -0.00058080  1
  V  V69  1  0.75105189  0.24948640  -0.00008739  1
  V  V70  1  -0.00021056  0.87616370  0.37415219  1
  V  V71  1  -0.00271179  -0.00040686  -0.00251815  1
  V  V72  1  0.50146174  0.37345528  0.37572216  1
  V  V73  1  -0.00305819  0.87868462  0.87487678  1
  V  V74  1  -0.00039558  0.75094350  0.74933359  1
  V  V75  1  0.50060099  0.74999469  0.24968741  1
  V  V76  1  -0.00112688  0.50078694  0.49947700  1
  V  V77  1  0.24675589  0.49497899  0.75074777  1
  V  V78  1  0.24898185  0.00035015  0.24964733  1
  V  V79  1  0.00399869  0.37363919  0.86682838  1
  V  V80  1  0.24887830  0.75006340  0.49953360  1
  V  V81  1  0.25062010  0.62598090  0.37517138  1
  V  V82  1  0.25112991  0.87566586  0.12384349  1
  V  V83  1  0.62666169  0.49922251  0.62676719  1
  V  V84  1  0.50154928  0.24924734  0.25100470  1
  V  V85  1  0.37507981  0.37468629  0.00077883  1
  V  V86  1  0.87570339  0.74845799  0.62556463  1
  V  V87  1  0.87497147  0.25019208  0.12527818  1
  V  V88  1  0.87456825  0.87906161  -0.00395647  1
  V  V89  1  0.61770715  0.75563702  0.87206631  1
  V  V90  1  0.63688958  0.24326328  0.38203712  1
  V  V91  1  0.25071164  0.37508958  0.12532848  1
  V  V92  1  0.74974127  0.00314098  0.25245701  1
  Zn  Zn93  1  0.62700924  0.37362086  0.25156290  1
  Zn  Zn94  1  0.50698526  0.00188106  0.49897679  1
  Zn  Zn95  1  0.75161110  0.87599800  0.12506279  1
  Zn  Zn96  1  0.62657231  0.12240989  -0.00181342  1
  Zn  Zn97  1  0.62710527  0.37510293  0.74930975  1
  Zn  Zn98  1  0.64603056  0.12302662  0.50268220  1
  Zn  Zn99  1  -0.00006881  0.62359759  0.12531870  1
  Zn  Zn100  1  0.50078464  0.25154021  0.74851203  1
  Zn  Zn101  1  0.25171453  0.62519315  0.87302500  1
  Zn  Zn102  1  0.49860044  0.50039640  0.50127901  1
  Zn  Zn103  1  0.37676776  0.75183448  0.12361849  1
  Zn  Zn104  1  0.00082778  0.62491045  0.62472043  1
  Zn  Zn105  1  0.87482481  0.75083893  0.12349981  1
  Zn  Zn106  1  0.74805788  0.62153799  0.87452225  1
  Zn  Zn107  1  0.88306576  0.24097093  0.61903143  1
  Zn  Zn108  1  0.49119183  0.75849454  0.75734285  1
  Zn  Zn109  1  0.12436168  0.49981170  0.12476407  1
  Zn  Zn110  1  0.75123810  0.49625187  0.75146631  1
  Zn  Zn111  1  0.38040305  0.87193577  -0.00251140  1
  Zn  Zn112  1  0.24746195  0.37269798  0.62950878  1
  Zn  Zn113  1  0.61595065  0.88558108  0.75590079  1
  Zn  Zn114  1  0.00382806  0.24750285  0.74242053  1
  Zn  Zn115  1  0.62714579  -0.00163605  0.12315389  1
  Zn  Zn116  1  0.24981132  0.25044293  -0.00021784  1
  Zn  Zn117  1  0.12552764  0.75068914  0.37528320  1
  Zn  Zn118  1  0.37262104  0.62592226  0.75080911  1
  Zn  Zn119  1  0.75304862  -0.00582262  0.75524512  1
  Zn  Zn120  1  0.62704897  0.00348535  0.62641598  1
  Zn  Zn121  1  0.87307507  0.49968790  0.37523659  1
  Zn  Zn122  1  0.18799597  0.18898042  0.18659346  1
  Zn  Zn123  1  0.18843466  0.18622323  0.68664724  1
  Zn  Zn124  1  0.18731690  0.68819500  0.18614842  1
  Zn  Zn125  1  0.18779934  0.68243620  0.68656268  1
  Zn  Zn126  1  0.68672694  0.18753841  0.19193453  1
  Zn  Zn127  1  0.68960513  0.18586857  0.69036828  1
  Zn  Zn128  1  0.68665855  0.68814456  0.18546629  1
  Zn  Zn129  1  0.68873674  0.68647368  0.68860595  1
  Zn  Zn130  1  0.31268909  0.31205584  0.31213051  1
  Zn  Zn131  1  0.31250181  0.31305233  0.81281026  1
  Zn  Zn132  1  0.31324568  0.81231399  0.31199563  1
  Zn  Zn133  1  0.31117835  0.81254434  0.81096235  1
  Zn  Zn134  1  0.81465300  0.31783463  0.30970824  1
  Zn  Zn135  1  0.81369909  0.30899512  0.80730408  1
  Zn  Zn136  1  0.81284422  0.81514229  0.31372377  1
  Zn  Zn137  1  0.81031302  0.80971813  0.81462132  1
  Zn  Zn138  1  0.18680197  0.43801494  0.43769721  1
  Zn  Zn139  1  0.18843564  0.43678823  0.93689998  1
  Zn  Zn140  1  0.18676602  0.93740486  0.43673204  1
  Zn  Zn141  1  0.18685277  0.93830909  0.93618278  1
  Zn  Zn142  1  0.68636904  0.43762382  0.43859268  1
  Zn  Zn143  1  0.68911940  0.43664730  0.93696056  1
  Zn  Zn144  1  0.68818929  0.93934803  0.44132383  1
  Zn  Zn145  1  0.68527502  0.93644003  0.94096127  1
  Zn  Zn146  1  0.31420341  0.06199092  0.06021918  1
  Zn  Zn147  1  0.31241072  0.06366256  0.56261415  1
  Zn  Zn148  1  0.31219751  0.56277511  0.06282569  1
  Zn  Zn149  1  0.31158224  0.56104681  0.56315080  1
  Zn  Zn150  1  0.81224199  0.06147666  0.06391468  1
  Zn  Zn151  1  0.81630595  0.05668973  0.56927288  1
  Zn  Zn152  1  0.81313018  0.56284807  0.06265121  1
  Zn  Zn153  1  0.81177296  0.56005461  0.56430088  1
  Zn  Zn154  1  0.43780499  0.43719931  0.18916718  1
  Zn  Zn155  1  0.43738033  0.43714801  0.68989074  1
  Zn  Zn156  1  0.43710855  0.93639579  0.18603159  1
  Zn  Zn157  1  0.44039476  0.93893334  0.68659201  1
  Zn  Zn158  1  0.93802010  0.43962970  0.18565286  1
  Zn  Zn159  1  0.93689317  0.43512491  0.68349402  1
  Zn  Zn160  1  0.93509203  0.93645649  0.18377054  1
  Zn  Zn161  1  0.93389387  0.93991351  0.68890532  1
  Zn  Zn162  1  0.05953075  0.06409458  0.31507482  1
  Zn  Zn163  1  0.06450120  0.06117978  0.81560019  1
  Zn  Zn164  1  0.06389450  0.56234832  0.31435701  1
  Zn  Zn165  1  0.06240682  0.56247702  0.81281459  1
  Zn  Zn166  1  0.56340998  0.06327432  0.31366450  1
  Zn  Zn167  1  0.56504377  0.06399361  0.80843008  1
  Zn  Zn168  1  0.56315741  0.56140920  0.31194506  1
  Zn  Zn169  1  0.56181791  0.56552509  0.81193629  1
  Zn  Zn170  1  0.43777310  0.18898009  0.43806765  1
  Zn  Zn171  1  0.43793264  0.18540538  0.93771860  1
  Zn  Zn172  1  0.43792206  0.68826396  0.43931296  1
  Zn  Zn173  1  0.43665650  0.68446644  0.93886395  1
  Zn  Zn174  1  0.81707682  0.18736635  0.43739147  1
  Zn  Zn175  1  0.93920581  0.18913597  0.93553700  1
  Zn  Zn176  1  0.93766900  0.68686663  0.43495682  1
  Zn  Zn177  1  0.93784607  0.68865307  0.93507565  1
  Zn  Zn178  1  0.06376411  0.31266946  0.05920051  1
  Zn  Zn179  1  0.05975611  0.31197540  0.56156126  1
  Zn  Zn180  1  0.06220091  0.81305781  0.06349576  1
  Zn  Zn181  1  0.06198591  0.81424438  0.56267211  1
  Zn  Zn182  1  0.56374559  0.31116684  0.06063954  1
  Zn  Zn183  1  0.56290766  0.31113997  0.56103959  1
  Zn  Zn184  1  0.56604650  0.81249994  0.06447810  1
  Zn  Zn185  1  0.56035909  0.81297076  0.56322895  1
  O  O186  1  0.11939034  0.12085378  0.12041868  1
  O  O187  1  0.13202916  0.11503682  0.61642446  1
  O  O188  1  0.12330177  0.62423400  0.11206629  1
  O  O189  1  0.12205666  0.61465140  0.61654437  1
  O  O190  1  0.61253963  0.12452727  0.12485434  1
  O  O191  1  0.61499617  0.12992360  0.62270309  1
  O  O192  1  0.61921997  0.61808755  0.11966244  1
  O  O193  1  0.61883080  0.61958896  0.62084247  1
  O  O194  1  0.38282434  0.37869727  0.37897307  1
  O  O195  1  0.38162501  0.38005487  0.88146087  1
  O  O196  1  0.37991492  0.88068063  0.37897903  1
  O  O197  1  0.36971382  0.89011913  0.87535743  1
  O  O198  1  0.88030011  0.37939578  0.38214537  1
  O  O199  1  0.88275855  0.37858041  0.88098370  1
  O  O200  1  0.88069131  0.88358303  0.38084033  1
  O  O201  1  0.88174215  0.86795683  0.88699043  1
  O  O202  1  0.25458191  0.00594873  0.36873925  1
  O  O203  1  0.25702654  0.00600059  0.86946351  1
  O  O204  1  0.25592763  0.50583205  0.36928416  1
  O  O205  1  0.25538388  0.50061102  0.86775752  1
  O  O206  1  0.76256843  -0.00802792  0.36567993  1
  O  O207  1  0.74523650  0.01576491  0.87938472  1
  O  O208  1  0.74891994  0.50764428  0.36751611  1
  O  O209  1  0.75911570  0.50124532  0.87260690  1
  O  O210  1  0.24910041  0.49335942  0.13230203  1
  O  O211  1  0.24253849  0.49913458  0.63231626  1
  O  O212  1  0.24433844  0.99676024  0.13042567  1
  O  O213  1  0.24455061  0.99411669  0.63065001  1
  O  O214  1  0.74469993  0.49459464  0.12865856  1
  O  O215  1  0.73894599  0.49421440  0.62661487  1
  O  O216  1  0.74866132  0.99774838  0.13733296  1
  O  O217  1  0.75150049  0.98246052  0.62783056  1
  O  O218  1  0.00469334  0.37128002  0.25336863  1
  O  O219  1  -0.00510747  0.37710900  0.76561772  1
  O  O220  1  0.00320132  0.86854677  0.25342224  1
  O  O221  1  0.00404887  0.87074147  0.75491662  1
  O  O222  1  0.50080643  0.36899370  0.26043365  1
  O  O223  1  0.50401825  0.37184246  0.75920675  1
  O  O224  1  0.50554475  0.87015347  0.25590863  1
  O  O225  1  0.50661956  0.86744895  0.73824715  1
  O  O226  1  0.49435499  0.12832728  0.24177462  1
  O  O227  1  0.49354355  0.12864965  0.73938710  1
  O  O228  1  0.49550740  0.62988962  0.24588323  1
  O  O229  1  0.49827875  0.63110289  0.73723339  1
  O  O230  1  0.99423285  0.13035360  0.24370800  1
  O  O231  1  0.98614908  0.12368017  0.76184404  1
  O  O232  1  0.99265860  0.63251264  0.25211512  1
  O  O233  1  0.99060959  0.63187725  0.74962916  1
  O  O234  1  0.37482695  0.25666901  0.00654259  1
  O  O235  1  0.36732344  0.25519694  0.50434008  1
  O  O236  1  0.36370519  0.75198443  -0.00026120  1
  O  O237  1  0.36814402  0.75697560  0.50454980  1
  O  O238  1  0.87114616  0.25525788  0.00664607  1
  O  O239  1  0.87596046  0.26671664  0.49911601  1
  O  O240  1  0.86725523  0.75591040  0.00022227  1
  O  O241  1  0.87094293  0.75347414  0.50444609  1
  O  O242  1  0.12935810  0.24517161  0.49389810  1
  O  O243  1  0.12646339  0.24208807  0.99040689  1
  O  O244  1  0.13064742  0.74424427  0.49901216  1
  O  O245  1  0.13087146  0.74426348  0.99533831  1
  O  O246  1  0.62470644  0.24976879  0.48416693  1
  O  O247  1  0.63203926  0.24688961  0.99098844  1
  O  O248  1  0.63121938  0.74456839  0.49421044  1
  O  O249  1  0.63146585  0.74554140  0.99199515  1
  O  O250  1  0.49628406  0.24211672  0.12971653  1
  O  O251  1  0.49296306  0.24347249  0.62541044  1
  O  O252  1  0.50045949  0.74229876  0.13130434  1
  O  O253  1  0.49305622  0.73920991  0.62137028  1
  O  O254  1  0.99492923  0.24539994  0.12997109  1
  O  O255  1  0.99439293  0.26108308  0.63203284  1
  O  O256  1  0.99928388  0.74803452  0.13836729  1
  O  O257  1  0.99348814  0.74931517  0.63128184  1
  O  O258  1  0.00856897  0.25966740  0.36435599  1
  O  O259  1  0.00857907  0.25840151  0.87426495  1
  O  O260  1  0.00059095  0.75648577  0.36407941  1
  O  O261  1  0.00605995  0.75820560  0.86878696  1
  O  O262  1  0.50495244  0.25843675  0.37034985  1
  O  O263  1  0.51020246  0.25396163  0.87676132  1
  O  O264  1  0.50573827  0.75558100  0.36969656  1
  O  O265  1  0.51413529  0.74542494  0.87801999  1
  O  O266  1  0.24392237  0.13107063  0.49333265  1
  O  O267  1  0.24386202  0.12588769  0.99400440  1
  O  O268  1  0.24578208  0.63041230  0.49446017  1
  O  O269  1  0.24171954  0.63489428  0.99945541  1
  O  O270  1  0.75827885  0.12460491  0.50515437  1
  O  O271  1  0.75157184  0.13042818  0.99034739  1
  O  O272  1  0.74564961  0.62986889  0.49464391  1
  O  O273  1  0.74472060  0.63294408  0.99999504  1
  O  O274  1  0.25769085  0.37442411  0.00742747  1
  O  O275  1  0.25614594  0.36792469  0.49896399  1
  O  O276  1  0.24714250  0.86531682  0.00498716  1
  O  O277  1  0.25396551  0.87008504  0.50451093  1
  O  O278  1  0.75724570  0.36953865  0.00601214  1
  O  O279  1  0.76088613  0.38501836  0.50790023  1
  O  O280  1  0.75852669  0.86761737  -0.00035727  1
  O  O281  1  0.75732562  0.86726454  0.50664338  1
  O  O282  1  0.13140527  0.49361952  0.24889326  1
  O  O283  1  0.13214630  0.50702677  0.73959332  1
  O  O284  1  0.12898296  0.99646201  0.24498223  1
  O  O285  1  0.13034925  0.99476099  0.74524971  1
  O  O286  1  0.63150131  0.49829100  0.24239234  1
  O  O287  1  0.62627551  0.50044094  0.73799201  1
  O  O288  1  0.63555373  0.99553552  0.25344169  1
  O  O289  1  0.63440510  0.99975648  0.74510640  1
  O  O290  1  0.36854719  0.00539912  0.25531923  1
  O  O291  1  0.37023708  0.00582653  0.75674682  1
  O  O292  1  0.36967528  0.50604791  0.25603219  1
  O  O293  1  0.36670110  0.50244567  0.75592675  1
  O  O294  1  0.87039534  0.00340372  0.25716068  1
  O  O295  1  0.87084982  0.01355621  0.75117345  1
  O  O296  1  0.86968378  0.51034261  0.25072232  1
  O  O297  1  0.87808673  0.50940146  0.75467195  1
  O  O298  1  0.12045208  0.36991038  0.36857981  1
  O  O299  1  0.11596736  0.36454463  0.88318670  1
  O  O300  1  0.11823044  0.87490273  0.36707964  1
  O  O301  1  0.11931841  0.86989090  0.86788862  1
  O  O302  1  0.61711623  0.36537988  0.37512157  1
  O  O303  1  0.62046034  0.36579111  0.87627330  1
  O  O304  1  0.62009843  0.86938158  0.37061409  1
  O  O305  1  0.63059969  0.85863246  0.87569202  1
  O  O306  1  0.38328317  0.12948331  0.12993218  1
  O  O307  1  0.38053605  0.13134988  0.62961491  1
  O  O308  1  0.38211809  0.62621688  0.13174395  1
  O  O309  1  0.38413974  0.63016499  0.62254325  1
  O  O310  1  0.88138903  0.13122354  0.12992048  1
  O  O311  1  0.87170884  0.12538491  0.64349059  1
  O  O312  1  0.87669175  0.62842778  0.13770500  1
  O  O313  1  0.87711817  0.62970943  0.63362782  1
  O  O314  1  0.25811836  0.25652503  0.12423759  1
  O  O315  1  0.25529547  0.25229402  0.61851090  1
  O  O316  1  0.24984279  0.75623670  0.11493721  1
  O  O317  1  0.25409219  0.75514238  0.61907406  1
  O  O318  1  0.75523543  0.25394813  0.12095712  1
  O  O319  1  0.75102565  0.26332700  0.62758453  1
  O  O320  1  0.74911261  0.75198395  0.11103950  1
  O  O321  1  0.75603585  0.75403058  0.61924362  1
  O  O322  1  0.24345839  0.24432253  0.37876332  1
  O  O323  1  0.24275881  0.24494495  0.87726758  1
  O  O324  1  0.24918433  0.74399792  0.38122079  1
  O  O325  1  0.24344948  0.75031890  0.88440670  1
  O  O326  1  0.74085084  0.25179267  0.37078447  1
  O  O327  1  0.74361398  0.24396902  0.88125091  1
  O  O328  1  0.74492571  0.74502277  0.38017570  1
  O  O329  1  0.74185096  0.74533364  0.88709999  1
  O  O330  1  0.00421297  0.11999923  0.00512425  1
  O  O331  1  0.00701293  0.10708008  0.49667100  1
  O  O332  1  0.00861506  0.62135256  -0.00017490  1
  O  O333  1  0.00451495  0.61543233  0.49840324  1
  O  O334  1  0.49980974  0.11639709  0.01005911  1
  O  O335  1  0.49782667  0.12543704  0.51125471  1
  O  O336  1  0.50530863  0.61800920  0.00697368  1
  O  O337  1  0.50652233  0.62386814  0.50909053  1
  O  O338  1  0.49309379  0.37539121  0.48913488  1
  O  O339  1  0.49478504  0.38075823  0.99531823  1
  O  O340  1  0.49236967  0.87612944  0.49288993  1
  O  O341  1  0.49927103  0.88956977  1.00753020  1
  O  O342  1  0.99226636  0.38495142  0.49379692  1
  O  O343  1  0.99442941  0.38061179  0.99258172  1
  O  O344  1  0.99541106  0.88130071  0.49312400  1
  O  O345  1  0.99362416  0.87822467  0.99532549  1
  O  O346  1  0.49599762  0.48929732  0.37498312  1
  O  O347  1  0.49603380  0.49468132  0.88055882  1
  O  O348  1  0.49270235  0.99428425  0.37509471  1
  O  O349  1  0.49088378  1.01026219  0.88431722  1
  O  O350  1  1.00042873  0.49376392  0.38470122  1
  O  O351  1  0.99639355  0.49241814  0.88109870  1
  O  O352  1  0.99116505  0.99458694  0.38106911  1
  O  O353  1  1.00789248  0.98967575  0.88543888  1
  O  O354  1  0.00549430  0.00623140  0.11952011  1
  O  O355  1  0.00783788  -0.01086596  0.61363415  1
  O  O356  1  0.00363029  0.50285741  0.11566106  1
  O  O357  1  0.00697887  0.50056104  0.61475714  1
  O  O358  1  0.49903898  0.00966159  0.11822767  1
  O  O359  1  0.50062728  0.01406717  0.62169677  1
  O  O360  1  0.50525782  0.50389913  0.11998659  1
  O  O361  1  0.50811941  0.50881901  0.62394311  1
  O  O362  1  0.24531670  0.38043587  0.24576194  1
  O  O363  1  0.25333544  0.38963171  0.74884239  1
  O  O364  1  0.24435065  0.88077489  0.24490954  1
  O  O365  1  0.24298003  0.88088807  0.74403361  1
  O  O366  1  0.74987883  0.38334322  0.24175790  1
  O  O367  1  0.74880542  0.37807508  0.73832879  1
  O  O368  1  0.74610867  0.88423612  0.24910432  1
  O  O369  1  0.74833050  0.87198115  0.74151157  1
  O  O370  1  0.25447933  0.11987662  0.25487273  1
  O  O371  1  0.25650499  0.11840239  0.75558950  1
  O  O372  1  0.25497284  0.62096097  0.25453691  1
  O  O373  1  0.25186881  0.61283178  0.75293806  1
  O  O374  1  0.75784374  0.11288641  0.24535442  1
  O  O375  1  0.75805279  0.12566756  0.76491194  1
  O  O376  1  0.75685796  0.62218821  0.25359565  1
  O  O377  1  0.76441561  0.62312455  0.75145908  1
  O  O378  1  0.36908643  0.12124999  0.36893798  1
  O  O379  1  0.36985965  0.11789857  0.86947504  1
  O  O380  1  0.37096861  0.61971535  0.36988840  1
  O  O381  1  0.37345973  0.61521415  0.87357271  1
  O  O382  1  0.87590095  0.11191921  0.36747404  1
  O  O383  1  0.86218847  0.12942455  0.87100624  1
  O  O384  1  0.86798815  0.62389044  0.36424599  1
  O  O385  1  0.87555869  0.61860045  0.86618366  1
  O  O386  1  0.13203650  0.37480815  0.13108914  1
  O  O387  1  0.12806775  0.39089281  0.61636911  1
  O  O388  1  0.12993976  0.88223855  0.13063898  1
  O  O389  1  0.13110189  0.88110977  0.63050228  1
  O  O390  1  0.63165539  0.37994259  0.12602595  1
  O  O391  1  0.63133778  0.38336727  0.62245754  1
  O  O392  1  0.62850952  0.87828568  0.13550685  1
  O  O393  1  0.63889797  0.86990092  0.62417551  1
  O  O394  1  0.12011023  0.25535219  0.25436000  1
  O  O395  1  0.12389997  0.24163074  0.76548360  1
  O  O396  1  0.11614394  0.75607534  0.25120709  1
  O  O397  1  0.12032497  0.75513513  0.75347477  1
  O  O398  1  0.61984230  0.25242849  0.26232704  1
  O  O399  1  0.62470373  0.25212181  0.76364410  1
  O  O400  1  0.62060296  0.75492882  0.25642466  1
  O  O401  1  0.62800119  0.74484127  0.76830652  1
  O  O402  1  0.38114357  0.24378990  0.24464364  1
  O  O403  1  0.37498839  0.24355849  0.74369081  1
  O  O404  1  0.38251820  0.74347720  0.24864828  1
  O  O405  1  0.37290654  0.74625260  0.74132164  1
  O  O406  1  0.87995330  0.24528240  0.24454536  1
  O  O407  1  0.87841448  0.23403079  0.75029823  1
  O  O408  1  0.88232022  0.74302452  0.25038743  1
  O  O409  1  0.88018649  0.74185421  0.74660988  1
  O  O410  1  0.37594277  0.49362314  0.49215863  1
  O  O411  1  0.38090820  0.49466820  0.99470587  1
  O  O412  1  0.37364387  0.99368327  0.49205624  1
  O  O413  1  0.38230186  0.99884073  0.99050933  1
  O  O414  1  0.88569577  0.49581956  0.49873665  1
  O  O415  1  0.88086155  0.49518979  0.99477676  1
  O  O416  1  0.88338976  0.99302475  0.49373805  1
  O  O417  1  0.88189309  0.98814712  1.00617641  1
  O  O418  1  0.11924015  0.00541494  0.00670558  1
  O  O419  1  0.11907978  0.00352350  0.50438881  1
  O  O420  1  0.12090410  0.51043127  -0.00105036  1
  O  O421  1  0.11722401  0.50528731  0.50520103  1
  O  O422  1  0.61517129  0.00378718  0.00253700  1
  O  O423  1  0.62374903  0.00608733  0.50540756  1
  O  O424  1  0.61992908  0.50414278  0.00506429  1
  O  O425  1  0.62248337  0.50696088  0.51012489  1
  O  O426  1  0.37142930  0.36983981  0.12104165  1
  O  O427  1  0.37478305  0.36922398  0.61738461  1
  O  O428  1  0.36605871  0.87271975  0.12121497  1
  O  O429  1  0.36740971  0.87060658  0.61837460  1
  O  O430  1  0.86987996  0.36928855  0.11974991  1
  O  O431  1  0.86463233  0.37803084  0.61546282  1
  O  O432  1  0.87389237  0.86974657  0.11199786  1
  O  O433  1  0.86746229  0.86716570  0.62062146  1
  O  O434  1  0.12997523  0.12990215  0.38111086  1
  O  O435  1  0.13109142  0.13144584  0.88131343  1
  O  O436  1  0.13310516  0.62685589  0.38166668  1
  O  O437  1  0.12534489  0.63209533  0.88580991  1
  O  O438  1  0.62038968  0.14157962  0.37640345  1
  O  O439  1  0.63611858  0.13486647  0.87568284  1
  O  O440  1  0.62922753  0.63098301  0.37988259  1
  O  O441  1  0.62711615  0.63273184  0.88265763  1
