# generated using pymatgen
data_V93Zn93O256
_symmetry_space_group_name_H-M   'P 1'
_cell_length_a   17.04985862
_cell_length_b   17.05234858
_cell_length_c   17.05346447
_cell_angle_alpha   90.00207008
_cell_angle_beta   90.01776517
_cell_angle_gamma   90.05324367
_symmetry_Int_Tables_number   1
_chemical_formula_structural   V93Zn93O256
_chemical_formula_sum   'V93 Zn93 O256'
_cell_volume   4958.12413615
_cell_formula_units_Z   1
loop_
 _symmetry_equiv_pos_site_id
 _symmetry_equiv_pos_as_xyz
  1  'x, y, z'
loop_
 _atom_site_type_symbol
 _atom_site_label
 _atom_site_symmetry_multiplicity
 _atom_site_fract_x
 _atom_site_fract_y
 _atom_site_fract_z
 _atom_site_occupancy
  V  V0  1  0.37470769  0.75020008  0.12450489  1
  V  V1  1  0.49931344  0.24988876  0.25113712  1
  V  V2  1  0.87562917  0.37400806  0.00191367  1
  V  V3  1  0.62557328  0.50007169  0.12595440  1
  V  V4  1  0.25154068  0.62816229  0.37737579  1
  V  V5  1  -0.00061696  0.37623293  0.37581551  1
  V  V6  1  0.00055083  0.24959216  0.75064743  1
  V  V7  1  0.24902256  0.12578448  0.37636580  1
  V  V8  1  0.00134717  0.37485115  0.87582902  1
  V  V9  1  0.87444443  0.25323915  0.62361172  1
  V  V10  1  0.50317071  0.87669438  0.37075782  1
  V  V11  1  0.37310974  0.12540077  0.74994809  1
  V  V12  1  0.50294366  0.37056607  0.87554136  1
  V  V13  1  0.62479311  0.24981700  0.37608731  1
  V  V14  1  0.25013603  0.25675447  0.50465965  1
  V  V15  1  0.62572608  0.37552057  0.25019872  1
  V  V16  1  0.37343396  0.12553541  0.25087031  1
  V  V17  1  0.25199139  0.49404992  0.74708061  1
  V  V18  1  0.12444565  0.87689101  0.24670975  1
  V  V19  1  0.12720941  0.37360427  0.74800947  1
  V  V20  1  0.11968746  0.86937038  0.74976344  1
  V  V21  1  0.37131411  0.25712446  0.62563210  1
  V  V22  1  0.24622491  0.24666918  0.00012264  1
  V  V23  1  0.62677501  0.49936793  0.62494361  1
  V  V24  1  0.75142374  0.75076754  0.50019119  1
  V  V25  1  0.50016477  -0.00137113  0.00007461  1
  V  V26  1  0.87604710  0.87478651  0.49953499  1
  V  V27  1  0.37555330  0.49917211  0.87456030  1
  V  V28  1  0.24804609  0.00055247  0.24952861  1
  V  V29  1  0.49843237  0.74787913  0.74746578  1
  V  V30  1  0.24827408  -0.00083231  0.74854762  1
  V  V31  1  0.00300502  0.62930966  0.63227497  1
  V  V32  1  0.88021956  0.75091000  0.63143243  1
  V  V33  1  0.49857353  0.12429442  0.12478615  1
  V  V34  1  0.87016887  0.00417608  0.87355587  1
  V  V35  1  0.25054257  0.62355006  0.87433197  1
  V  V36  1  0.75057425  0.74928971  -0.00128807  1
  V  V37  1  0.12406793  0.12502872  0.50049244  1
  V  V38  1  0.87628534  0.50281797  0.37658832  1
  V  V39  1  0.37499503  0.87313929  -0.00052825  1
  V  V40  1  0.49856093  0.87302144  0.87453068  1
  V  V41  1  0.25069330  0.75049162  -0.00091528  1
  V  V42  1  -0.00065207  0.12443799  0.62603032  1
  V  V43  1  0.12488402  0.24733574  0.87829765  1
  V  V44  1  0.50124631  0.49941374  0.00025751  1
  V  V45  1  0.62610682  0.62606965  0.49961557  1
  V  V46  1  0.13043087  0.62855821  0.50120939  1
  V  V47  1  0.37666297  0.50060471  0.37555147  1
  V  V48  1  0.87712941  0.62531183  0.24967293  1
  V  V49  1  0.13023130  0.75163027  0.37905709  1
  V  V50  1  0.49692099  -0.00079713  0.49935180  1
  V  V51  1  0.50122347  0.62502240  0.12469064  1
  V  V52  1  0.24423464  0.12384359  0.87956388  1
  V  V53  1  0.50272716  0.75265140  0.24976366  1
  V  V54  1  0.50130733  0.49966475  0.49993025  1
  V  V55  1  0.00493709  0.00417244  -0.00090522  1
  V  V56  1  0.62370334  0.87631553  0.74762358  1
  V  V57  1  0.50091066  0.62516173  0.62637925  1
  V  V58  1  0.62734806  0.36927082  0.75494699  1
  V  V59  1  0.37473424  -0.00019536  0.37605190  1
  V  V60  1  0.00087951  0.62573551  0.12492825  1
  V  V61  1  0.62647697  0.13172577  -0.00441644  1
  V  V62  1  0.87449149  0.00030314  0.37599653  1
  V  V63  1  0.74405233  0.87789549  0.13084853  1
  V  V64  1  0.62627753  0.75430544  0.37060001  1
  V  V65  1  0.87145417  0.12364309  0.24887449  1
  V  V66  1  0.62408975  -0.00117042  0.62537851  1
  V  V67  1  0.75400526  0.50037738  0.74857798  1
  V  V68  1  0.49854652  0.12446675  0.62538904  1
  V  V69  1  0.00472138  0.12450855  0.12223096  1
  V  V70  1  -0.00110896  0.24985105  0.24965484  1
  V  V71  1  0.50193285  0.24944089  0.75321951  1
  V  V72  1  0.62546272  0.75007296  0.87348973  1
  V  V73  1  0.49981334  0.37581897  0.37690843  1
  V  V74  1  0.12614356  0.62540349  0.00001721  1
  V  V75  1  0.11701568  0.74922495  0.87137983  1
  V  V76  1  0.25137945  0.50049760  0.25047180  1
  V  V77  1  0.25017576  0.37463544  0.12518981  1
  V  V78  1  0.75102530  0.62481149  0.87325287  1
  V  V79  1  0.74902154  0.12637122  0.37523895  1
  V  V80  1  0.87641510  0.74955627  0.12544834  1
  V  V81  1  0.12891289  0.49458914  0.62373133  1
  V  V82  1  0.62399622  0.12613684  0.49994759  1
  V  V83  1  0.75060222  0.50023277  0.24956076  1
  V  V84  1  0.87649571  0.87626931  -0.00054589  1
  V  V85  1  0.12690233  0.50093596  0.12466811  1
  V  V86  1  0.12482005  0.37551273  0.25026014  1
  V  V87  1  0.25148055  0.86690788  0.61896241  1
  V  V88  1  0.37582478  0.62591719  0.25057030  1
  V  V89  1  0.00018520  0.87601828  0.37535770  1
  V  V90  1  0.37554607  0.37401357  0.00022937  1
  V  V91  1  0.00218706  0.49940128  -0.00067250  1
  V  V92  1  0.37322228  0.24990874  0.12609919  1
  Zn  Zn93  1  0.12565764  0.25187045  0.37602757  1
  Zn  Zn94  1  0.37281678  -0.00119120  0.87524026  1
  Zn  Zn95  1  0.36899985  0.86592199  0.49458363  1
  Zn  Zn96  1  0.75111183  0.62676661  0.37468388  1
  Zn  Zn97  1  0.86975972  0.12555327  0.75043880  1
  Zn  Zn98  1  0.88209167  0.62963589  0.75253586  1
  Zn  Zn99  1  -0.00113184  0.00078134  0.50085397  1
  Zn  Zn100  1  0.75115133  0.37478771  0.62410099  1
  Zn  Zn101  1  0.87240440  0.37738154  0.50078767  1
  Zn  Zn102  1  0.75047272  0.37295841  0.12442813  1
  Zn  Zn103  1  0.61923914  -0.00308944  0.13235864  1
  Zn  Zn104  1  0.37566898  0.62457139  0.74901582  1
  Zn  Zn105  1  0.24921745  0.87681622  0.12312938  1
  Zn  Zn106  1  0.74941399  0.25322009  0.50103457  1
  Zn  Zn107  1  0.87806496  0.50096813  0.87391809  1
  Zn  Zn108  1  0.12295249  -0.00297489  0.62498387  1
  Zn  Zn109  1  0.87020895  0.24944283  0.12423674  1
  Zn  Zn110  1  0.37121354  0.37851353  0.50332000  1
  Zn  Zn111  1  0.37159090  0.74278679  0.61867323  1
  Zn  Zn112  1  0.75129220  0.87623965  0.62581732  1
  Zn  Zn113  1  0.00028814  0.50031299  0.50274928  1
  Zn  Zn114  1  -0.00386805  0.87361280  0.86836061  1
  Zn  Zn115  1  0.74547202  0.25676205  -0.00481001  1
  Zn  Zn116  1  0.62595894  0.62368013  0.00036176  1
  Zn  Zn117  1  0.73993786  -0.00580756  0.25624308  1
  Zn  Zn118  1  0.00110310  0.75029068  0.25011152  1
  Zn  Zn119  1  0.12807445  0.00301540  0.11769881  1
  Zn  Zn120  1  0.74858675  0.00055152  0.74910842  1
  Zn  Zn121  1  0.74141773  0.13471018  0.86735047  1
  Zn  Zn122  1  0.18514899  0.18868402  0.18890649  1
  Zn  Zn123  1  0.18685356  0.18738174  0.68808462  1
  Zn  Zn124  1  0.18840894  0.68990662  0.18918241  1
  Zn  Zn125  1  0.18823481  0.68461951  0.69032969  1
  Zn  Zn126  1  0.68674974  0.18833005  0.18131140  1
  Zn  Zn127  1  0.68901287  0.18552848  0.68775588  1
  Zn  Zn128  1  0.68976025  0.68722350  0.18809606  1
  Zn  Zn129  1  0.68921137  0.68955343  0.68603665  1
  Zn  Zn130  1  0.31215316  0.31265372  0.31625031  1
  Zn  Zn131  1  0.31376505  0.31142360  0.81386290  1
  Zn  Zn132  1  0.31290164  0.81404154  0.31133381  1
  Zn  Zn133  1  0.31221639  0.80972773  0.80989570  1
  Zn  Zn134  1  0.81193583  0.31233733  0.31192643  1
  Zn  Zn135  1  0.81351978  0.31016694  0.81626326  1
  Zn  Zn136  1  0.81436516  0.81107988  0.31266989  1
  Zn  Zn137  1  0.80975912  0.81622421  0.81124238  1
  Zn  Zn138  1  0.18704408  0.44025119  0.43711341  1
  Zn  Zn139  1  0.18830203  0.43476911  0.93622129  1
  Zn  Zn140  1  0.18506787  0.94051579  0.43665484  1
  Zn  Zn141  1  0.18735636  0.93415925  0.93406022  1
  Zn  Zn142  1  0.69020479  0.43626212  0.43833946  1
  Zn  Zn143  1  0.68879472  0.43856367  0.93654996  1
  Zn  Zn144  1  0.68805543  0.93836054  0.43998802  1
  Zn  Zn145  1  0.68597598  0.93919385  0.93938024  1
  Zn  Zn146  1  0.31273339  0.06076006  0.06279971  1
  Zn  Zn147  1  0.31175780  0.06212408  0.56319791  1
  Zn  Zn148  1  0.31413628  0.56308583  0.06184779  1
  Zn  Zn149  1  0.31390199  0.56321526  0.56263966  1
  Zn  Zn150  1  0.81314683  0.06153980  0.06214111  1
  Zn  Zn151  1  0.80999571  0.06282830  0.56161408  1
  Zn  Zn152  1  0.81361246  0.55984901  0.06228273  1
  Zn  Zn153  1  0.81395452  0.56659015  0.56223036  1
  Zn  Zn154  1  0.43880821  0.43731888  0.18829419  1
  Zn  Zn155  1  0.44109199  0.43761616  0.68863912  1
  Zn  Zn156  1  0.43522430  0.93708876  0.18811907  1
  Zn  Zn157  1  0.43510354  0.93681586  0.68776393  1
  Zn  Zn158  1  0.93806711  0.43883354  0.18718437  1
  Zn  Zn159  1  0.94135983  0.43882428  0.68797884  1
  Zn  Zn160  1  0.93651501  0.93989850  0.18722154  1
  Zn  Zn161  1  0.93621617  0.93882101  0.68642058  1
  Zn  Zn162  1  0.06042207  0.06258369  0.31272842  1
  Zn  Zn163  1  0.06069543  0.05922489  0.81268174  1
  Zn  Zn164  1  0.06317285  0.56358126  0.31196955  1
  Zn  Zn165  1  0.06583932  0.56034690  0.81212891  1
  Zn  Zn166  1  0.56390038  0.06193120  0.31081484  1
  Zn  Zn167  1  0.55950075  0.06072388  0.81283139  1
  Zn  Zn168  1  0.56373303  0.56531800  0.31302169  1
  Zn  Zn169  1  0.56510811  0.55999982  0.81212636  1
  Zn  Zn170  1  0.43614418  0.18807514  0.43916875  1
  Zn  Zn171  1  0.43437742  0.18626037  0.93634279  1
  Zn  Zn172  1  0.43817281  0.68949262  0.44075333  1
  Zn  Zn173  1  0.43781530  0.68556625  0.93642836  1
  Zn  Zn174  1  0.93627107  0.18953362  0.43763533  1
  Zn  Zn175  1  0.93522905  0.18793881  0.93714541  1
  Zn  Zn176  1  0.94391625  0.68861724  0.44144964  1
  Zn  Zn177  1  0.93660446  0.68619755  0.93895288  1
  Zn  Zn178  1  0.06137889  0.30985885  0.06327296  1
  Zn  Zn179  1  0.06088642  0.31199123  0.56117850  1
  Zn  Zn180  1  0.06185020  0.81271562  0.06034443  1
  Zn  Zn181  1  0.06312147  0.81255757  0.56200659  1
  Zn  Zn182  1  0.56138302  0.31254784  0.06502519  1
  Zn  Zn183  1  0.56169127  0.31323542  0.56577279  1
  Zn  Zn184  1  0.56324834  0.80928172  0.06004548  1
  Zn  Zn185  1  0.55991582  0.81266836  0.55943786  1
  O  O186  1  0.10929851  0.12170577  0.13283323  1
  O  O187  1  0.11570683  0.12616273  0.61765496  1
  O  O188  1  0.12214119  0.62064460  0.11968678  1
  O  O189  1  0.12165741  0.61981132  0.61929461  1
  O  O190  1  0.61468233  0.12201354  0.11346951  1
  O  O191  1  0.61676590  0.11991064  0.61984266  1
  O  O192  1  0.61882911  0.61917061  0.12411478  1
  O  O193  1  0.62128502  0.61910726  0.61928613  1
  O  O194  1  0.38210462  0.38282503  0.37650127  1
  O  O195  1  0.38078457  0.38017475  0.88169350  1
  O  O196  1  0.38256557  0.88187639  0.37532946  1
  O  O197  1  0.38068264  0.87414229  0.88133886  1
  O  O198  1  0.88417877  0.38536990  0.37239302  1
  O  O199  1  0.88474622  0.37860523  0.88375606  1
  O  O200  1  0.88063303  0.87940672  0.37931642  1
  O  O201  1  0.87570898  0.88066742  0.88415539  1
  O  O202  1  0.25471621  0.00636408  0.36984981  1
  O  O203  1  0.24950084  0.00648677  0.86649385  1
  O  O204  1  0.25619899  0.50666903  0.36926454  1
  O  O205  1  0.25457566  0.50387918  0.86793210  1
  O  O206  1  0.75624293  0.00726165  0.37503728  1
  O  O207  1  0.76071977  0.00176651  0.87762500  1
  O  O208  1  0.76137644  0.50208818  0.36926030  1
  O  O209  1  0.75115409  0.50963563  0.86557902  1
  O  O210  1  0.24666904  0.49466426  0.13023917  1
  O  O211  1  0.23977090  0.50546353  0.63466096  1
  O  O212  1  0.24576365  0.99852839  0.13200949  1
  O  O213  1  0.24651579  0.99394763  0.63601835  1
  O  O214  1  0.74327764  0.49921393  0.13227470  1
  O  O215  1  0.74644369  0.50187322  0.63456368  1
  O  O216  1  0.75121796  0.98336748  0.12306398  1
  O  O217  1  0.73962642  0.99723902  0.62529755  1
  O  O218  1  0.00481276  0.37149490  0.25702638  1
  O  O219  1  0.00751907  0.36975825  0.75646474  1
  O  O220  1  0.00863467  0.87541484  0.25571781  1
  O  O221  1  0.01597049  0.88070477  0.74869715  1
  O  O222  1  0.50502900  0.36961935  0.25655588  1
  O  O223  1  0.50893230  0.37034792  0.75571659  1
  O  O224  1  0.49418795  0.86952474  0.26277558  1
  O  O225  1  0.50362976  0.86867895  0.75496378  1
  O  O226  1  0.49210035  0.13109371  0.24552637  1
  O  O227  1  0.49346678  0.12961271  0.74570945  1
  O  O228  1  0.49424157  0.63133832  0.24455125  1
  O  O229  1  0.50194394  0.62959471  0.74445480  1
  O  O230  1  0.99005688  0.12847976  0.24437614  1
  O  O231  1  1.00066317  0.13043210  0.73982955  1
  O  O232  1  0.99571850  0.62608266  0.24177284  1
  O  O233  1  1.00241864  0.62120467  0.73718495  1
  O  O234  1  0.36826255  0.25494669  0.00706862  1
  O  O235  1  0.36692999  0.25017812  0.50885425  1
  O  O236  1  0.37063949  0.75341928  0.00464823  1
  O  O237  1  0.37703341  0.75384349  0.50599965  1
  O  O238  1  0.88024312  0.26512420  0.00267649  1
  O  O239  1  0.87493042  0.25274252  0.51129603  1
  O  O240  1  0.87092477  0.75823176  0.00433443  1
  O  O241  1  0.87146754  0.75476905  0.50656194  1
  O  O242  1  0.13277731  0.24153750  0.50068673  1
  O  O243  1  0.13358456  0.25620089  0.99164275  1
  O  O244  1  0.12267900  0.74123834  0.48963852  1
  O  O245  1  0.13075658  0.74524301  0.99211844  1
  O  O246  1  0.62294436  0.24359110  0.49446141  1
  O  O247  1  0.61848963  0.23430499  1.00216419  1
  O  O248  1  0.63024653  0.74573740  0.49110996  1
  O  O249  1  0.63252654  0.74664343  0.99115552  1
  O  O250  1  0.49186557  0.24522566  0.13193575  1
  O  O251  1  0.49118210  0.24325115  0.63170248  1
  O  O252  1  0.49545702  0.74520133  0.12963015  1
  O  O253  1  0.50322215  0.74189680  0.63180495  1
  O  O254  1  0.99733850  0.24079471  0.13128884  1
  O  O255  1  0.99463603  0.24304665  0.63002330  1
  O  O256  1  0.99411373  0.74319008  0.12448837  1
  O  O257  1  0.99235651  0.74067240  0.61891635  1
  O  O258  1  0.00022484  0.26090554  0.36909477  1
  O  O259  1  0.00568512  0.25381820  0.86989200  1
  O  O260  1  0.01267192  0.75630901  0.37295385  1
  O  O261  1  0.01312593  0.75122647  0.88109399  1
  O  O262  1  0.50397085  0.25495786  0.37000689  1
  O  O263  1  0.49041959  0.25800582  0.86570695  1
  O  O264  1  0.50755463  0.75787498  0.37011454  1
  O  O265  1  0.50566433  0.75339940  0.86899264  1
  O  O266  1  0.24170987  0.13237493  0.49676838  1
  O  O267  1  0.25626904  0.12946784  0.98775665  1
  O  O268  1  0.23788351  0.61949857  0.49416929  1
  O  O269  1  0.24491955  0.62935456  0.99448360  1
  O  O270  1  0.74153197  0.12855773  0.49308958  1
  O  O271  1  0.73090330  0.11988399  1.00409516  1
  O  O272  1  0.74398572  0.63262711  0.49679459  1
  O  O273  1  0.75124002  0.62925696  0.98940098  1
  O  O274  1  0.25641091  0.36925944  0.00606829  1
  O  O275  1  0.24964716  0.36095951  0.49459681  1
  O  O276  1  0.25642253  0.86861542  0.00021678  1
  O  O277  1  0.24588102  0.88298097  0.51672423  1
  O  O278  1  0.76302794  0.37995027  0.00080116  1
  O  O279  1  0.75410079  0.37153686  0.50583382  1
  O  O280  1  0.76009872  0.86999759  0.00666434  1
  O  O281  1  0.75807695  0.86799023  0.50138640  1
  O  O282  1  0.13222590  0.49611095  0.24429246  1
  O  O283  1  0.13346748  0.49417810  0.74283823  1
  O  O284  1  0.12945839  0.99013403  0.25183263  1
  O  O285  1  0.13437613  0.99044315  0.75033245  1
  O  O286  1  0.62998022  0.49567990  0.24672158  1
  O  O287  1  0.63472467  0.49203419  0.74477157  1
  O  O288  1  0.62846899  1.00244951  0.24419781  1
  O  O289  1  0.62050025  0.99293347  0.74275242  1
  O  O290  1  0.36833004  0.00662431  0.25572404  1
  O  O291  1  0.36370172  0.00529473  0.75164902  1
  O  O292  1  0.37063026  0.50603008  0.25500645  1
  O  O293  1  0.36709944  0.49776757  0.75548877  1
  O  O294  1  0.87133373  0.00988981  0.25624630  1
  O  O295  1  0.87431741  -0.00089471  0.76194974  1
  O  O296  1  0.87149848  0.50564559  0.25748354  1
  O  O297  1  0.86492122  0.50243617  0.75082880  1
  O  O298  1  0.11534620  0.37727646  0.36863197  1
  O  O299  1  0.12022574  0.36812543  0.86871893  1
  O  O300  1  0.12187248  0.86918665  0.36864402  1
  O  O301  1  0.12346079  0.86501638  0.86656484  1
  O  O302  1  0.61916289  0.37005548  0.36943443  1
  O  O303  1  0.61881960  0.38186302  0.86276873  1
  O  O304  1  0.61579224  0.86521910  0.38078658  1
  O  O305  1  0.61846821  0.86976655  0.86999570  1
  O  O306  1  0.37825860  0.13121277  0.13104705  1
  O  O307  1  0.37970426  0.13258863  0.63074122  1
  O  O308  1  0.38101075  0.63025095  0.13074678  1
  O  O309  1  0.38489934  0.62295631  0.62905215  1
  O  O310  1  0.88228660  0.12406328  0.13420156  1
  O  O311  1  0.88536713  0.13278402  0.62394184  1
  O  O312  1  0.88104912  0.62954021  0.12884362  1
  O  O313  1  0.88647489  0.63302468  0.62519200  1
  O  O314  1  0.25383070  0.25484034  0.12111314  1
  O  O315  1  0.25995273  0.24281855  0.61683485  1
  O  O316  1  0.25690320  0.75068320  0.11755484  1
  O  O317  1  0.24845248  0.76427455  0.63064027  1
  O  O318  1  0.75223889  0.25466231  0.11445090  1
  O  O319  1  0.76340982  0.25075210  0.62568445  1
  O  O320  1  0.75630994  0.75786361  0.11920750  1
  O  O321  1  0.76078468  0.75087448  0.61716272  1
  O  O322  1  0.24913739  0.24308572  0.38536871  1
  O  O323  1  0.24556900  0.24197142  0.87935206  1
  O  O324  1  0.23833484  0.74434152  0.36838852  1
  O  O325  1  0.24219530  0.74319295  0.88010635  1
  O  O326  1  0.74242600  0.24421336  0.37619766  1
  O  O327  1  0.75416363  0.24540671  0.88379952  1
  O  O328  1  0.74185819  0.75051056  0.37996015  1
  O  O329  1  0.74603535  0.74266053  0.87797563  1
  O  O330  1  -0.00904524  0.11535246  0.01080639  1
  O  O331  1  0.00862487  0.12817264  0.50790366  1
  O  O332  1  0.00682743  0.61931217  0.00524976  1
  O  O333  1  0.01448967  0.62204659  0.50928183  1
  O  O334  1  0.50357962  0.11696857  0.00349401  1
  O  O335  1  0.50374351  0.11924921  0.50514218  1
  O  O336  1  0.50139614  0.61755631  0.00652574  1
  O  O337  1  0.50743254  0.61806624  0.50552351  1
  O  O338  1  0.49947276  0.38234736  0.49390617  1
  O  O339  1  0.49455523  0.37941608  0.99598183  1
  O  O340  1  0.49765461  0.88217267  0.48732641  1
  O  O341  1  0.49544929  0.88022961  0.99534635  1
  O  O342  1  0.99919193  0.37783847  0.48663599  1
  O  O343  1  0.99622980  0.38095753  0.99580301  1
  O  O344  1  0.99539713  0.87768278  0.49303253  1
  O  O345  1  0.98785839  0.88263424  1.00058379  1
  O  O346  1  0.49599324  0.49614641  0.37987642  1
  O  O347  1  0.49534493  0.49291355  0.88022516  1
  O  O348  1  0.49489280  0.99386819  0.37859849  1
  O  O349  1  0.49571558  0.99220982  0.88468426  1
  O  O350  1  0.99267964  0.49273850  0.37337942  1
  O  O351  1  1.00211370  0.49390340  0.88127154  1
  O  O352  1  0.99219373  0.99434942  0.37737445  1
  O  O353  1  0.99045220  0.99782308  0.88318200  1
  O  O354  1  -0.00021086  0.00740960  0.11640012  1
  O  O355  1  0.00173842  0.01244088  0.62275393  1
  O  O356  1  0.00854918  0.50601654  0.11987381  1
  O  O357  1  0.01176434  0.50949044  0.62425399  1
  O  O358  1  0.49595250  0.00462924  0.11564044  1
  O  O359  1  0.50237053  0.00523242  0.61955892  1
  O  O360  1  0.50471791  0.50543790  0.12059195  1
  O  O361  1  0.50738912  0.50475274  0.62007109  1
  O  O362  1  0.24579420  0.38033878  0.24526427  1
  O  O363  1  0.24417826  0.38660053  0.75678328  1
  O  O364  1  0.24027866  0.88148879  0.24901341  1
  O  O365  1  0.24209086  0.88198629  0.74289433  1
  O  O366  1  0.74313334  0.38219760  0.24940896  1
  O  O367  1  0.74402825  0.38431241  0.75039841  1
  O  O368  1  0.75735949  0.87362970  0.23361230  1
  O  O369  1  0.73836820  0.87899111  0.74703142  1
  O  O370  1  0.25390970  0.12150327  0.25611524  1
  O  O371  1  0.25262294  0.11685206  0.75625191  1
  O  O372  1  0.25611561  0.61970906  0.25577491  1
  O  O373  1  0.25043043  0.61134730  0.75651587  1
  O  O374  1  0.75993939  0.12666993  0.25434357  1
  O  O375  1  0.75195253  0.11768600  0.75252238  1
  O  O376  1  0.75911363  0.61890501  0.25289163  1
  O  O377  1  0.75043032  0.61707533  0.75758979  1
  O  O378  1  0.36953647  0.11996707  0.36986967  1
  O  O379  1  0.36232482  0.12353143  0.86726029  1
  O  O380  1  0.37180398  0.62032189  0.36946398  1
  O  O381  1  0.36873779  0.61646191  0.87333812  1
  O  O382  1  0.87046136  0.12130855  0.36784280  1
  O  O383  1  0.87417955  0.11339110  0.87438525  1
  O  O384  1  0.87931886  0.61679500  0.37033769  1
  O  O385  1  0.86520167  0.62481763  0.87137485  1
  O  O386  1  0.13084050  0.38111375  0.13036350  1
  O  O387  1  0.11736584  0.38720704  0.63021035  1
  O  O388  1  0.12503398  0.87577114  0.13638142  1
  O  O389  1  0.13418266  0.87497970  0.63202589  1
  O  O390  1  0.62383237  0.38237170  0.13308594  1
  O  O391  1  0.62594029  0.38195710  0.63670250  1
  O  O392  1  0.64174676  0.87212106  0.11766739  1
  O  O393  1  0.62283666  0.88140288  0.62977352  1
  O  O394  1  0.11813462  0.25819726  0.25339921  1
  O  O395  1  0.12075979  0.25522267  0.75572340  1
  O  O396  1  0.12367586  0.75982162  0.25834872  1
  O  O397  1  0.13222929  0.75729850  0.76102341  1
  O  O398  1  0.61817630  0.25441032  0.25524745  1
  O  O399  1  0.61837158  0.26170761  0.74205692  1
  O  O400  1  0.61955780  0.74395255  0.26235756  1
  O  O401  1  0.61968055  0.75608976  0.75470727  1
  O  O402  1  0.37860920  0.24522893  0.24577254  1
  O  O403  1  0.37819196  0.24536617  0.74226462  1
  O  O404  1  0.38114835  0.74469446  0.24476535  1
  O  O405  1  0.38310050  0.74608673  0.74427227  1
  O  O406  1  0.88043420  0.23983217  0.24954523  1
  O  O407  1  0.88363650  0.24865089  0.74083115  1
  O  O408  1  0.87878350  0.74309770  0.24384643  1
  O  O409  1  0.87000088  0.75059668  0.73562478  1
  O  O410  1  0.38157710  0.49859187  0.49369415  1
  O  O411  1  0.38053531  0.49326376  0.99536525  1
  O  O412  1  0.37962132  0.99875047  0.49291669  1
  O  O413  1  0.38475428  0.99354572  0.99877633  1
  O  O414  1  0.87848671  0.50105967  0.48863088  1
  O  O415  1  0.88447003  0.49249496  0.99824043  1
  O  O416  1  0.87622497  0.99374618  0.49370543  1
  O  O417  1  0.88164750  0.99299138  0.99329793  1
  O  O418  1  0.10905595  -0.00929346  -0.00168339  1
  O  O419  1  0.12286504  0.01408848  0.50284459  1
  O  O420  1  0.12294324  0.50523267  0.00527706  1
  O  O421  1  0.12534366  0.50804555  0.50881578  1
  O  O422  1  0.61109646  0.00353950  0.00580513  1
  O  O423  1  0.61677454  0.00644542  0.50479734  1
  O  O424  1  0.61847762  0.50054052  0.00678641  1
  O  O425  1  0.62116384  0.50552818  0.50440915  1
  O  O426  1  0.36968890  0.36971531  0.12077064  1
  O  O427  1  0.38115512  0.36105516  0.62403980  1
  O  O428  1  0.37374942  0.86693051  0.11817106  1
  O  O429  1  0.35800551  0.87601181  0.62548021  1
  O  O430  1  0.87581080  0.37541130  0.11513705  1
  O  O431  1  0.87867272  0.36516209  0.62399686  1
  O  O432  1  0.86825292  0.87053330  0.11605596  1
  O  O433  1  0.87693477  0.86680711  0.61810209  1
  O  O434  1  0.12866592  0.12747778  0.38453412  1
  O  O435  1  0.13689045  0.13051587  0.86742521  1
  O  O436  1  0.12955366  0.63166716  0.38159423  1
  O  O437  1  0.13003870  0.63112702  0.88012865  1
  O  O438  1  0.62870427  0.13128689  0.38057252  1
  O  O439  1  0.62166049  0.11589601  0.89235141  1
  O  O440  1  0.62533744  0.63658011  0.38168796  1
  O  O441  1  0.63640783  0.63004239  0.87539873  1
