# generated using pymatgen
data_V93Zn93O256
_symmetry_space_group_name_H-M   'P 1'
_cell_length_a   17.05093663
_cell_length_b   17.04819276
_cell_length_c   17.04849072
_cell_angle_alpha   89.99870134
_cell_angle_beta   89.96364826
_cell_angle_gamma   90.00092544
_symmetry_Int_Tables_number   1
_chemical_formula_structural   V93Zn93O256
_chemical_formula_sum   'V93 Zn93 O256'
_cell_volume   4955.78478088
_cell_formula_units_Z   1
loop_
 _symmetry_equiv_pos_site_id
 _symmetry_equiv_pos_as_xyz
  1  'x, y, z'
loop_
 _atom_site_type_symbol
 _atom_site_label
 _atom_site_symmetry_multiplicity
 _atom_site_fract_x
 _atom_site_fract_y
 _atom_site_fract_z
 _atom_site_occupancy
  V  V0  1  0.50199324  0.62255142  0.12410760  1
  V  V1  1  0.24755122  0.37669823  0.62360958  1
  V  V2  1  0.87533477  0.87359520  -0.00012556  1
  V  V3  1  0.49930675  0.50010430  0.50044997  1
  V  V4  1  0.62606689  0.75525137  0.37180917  1
  V  V5  1  0.87465425  0.37540640  -0.00036345  1
  V  V6  1  0.37983472  0.49465775  0.87799342  1
  V  V7  1  0.62442058  -0.00384749  0.12771390  1
  V  V8  1  0.37632517  0.62443656  0.24985755  1
  V  V9  1  0.62523808  0.25081307  0.37634728  1
  V  V10  1  0.24842131  0.24994151  0.49980564  1
  V  V11  1  0.12443693  0.24967655  0.37648739  1
  V  V12  1  0.00043851  -0.00115662  0.00031018  1
  V  V13  1  -0.00127508  0.86982423  0.87025001  1
  V  V14  1  0.12302187  -0.00002506  0.62423480  1
  V  V15  1  0.37416941  0.25012179  0.62513167  1
  V  V16  1  0.00189154  0.49979590  -0.00023195  1
  V  V17  1  0.87510001  0.50068952  0.87478514  1
  V  V18  1  0.12560821  0.12404352  0.00020115  1
  V  V19  1  0.37627377  0.12607070  0.24757964  1
  V  V20  1  0.24960658  0.62458977  0.87504615  1
  V  V21  1  0.25109093  -0.00187728  0.24897939  1
  V  V22  1  0.12352144  0.25230460  0.87251996  1
  V  V23  1  0.49902796  0.75283173  0.75307258  1
  V  V24  1  -0.00629290  0.24423623  0.75046247  1
  V  V25  1  0.37974545  0.87457172  -0.00729068  1
  V  V26  1  0.62387100  0.50111531  0.62716873  1
  V  V27  1  0.75155773  0.37569118  0.12684878  1
  V  V28  1  0.49799396  0.25449459  0.75400099  1
  V  V29  1  0.12634463  0.49933991  0.12273111  1
  V  V30  1  0.87664663  0.62901120  0.75013027  1
  V  V31  1  0.24952377  0.87390081  0.62347758  1
  V  V32  1  0.62273786  0.75329867  0.87576089  1
  V  V33  1  0.50243166  -0.00390072  -0.00848057  1
  V  V34  1  0.25101672  0.49990694  0.24863999  1
  V  V35  1  0.37494470  -0.00068660  0.37365442  1
  V  V36  1  0.00134704  0.75114598  0.25058835  1
  V  V37  1  0.87215526  0.00638566  0.86991378  1
  V  V38  1  0.62686241  0.12454642  -0.00014511  1
  V  V39  1  0.62463992  0.62590045  0.50003924  1
  V  V40  1  0.37413866  0.12524596  0.74968186  1
  V  V41  1  0.87508534  0.87570353  0.50204497  1
  V  V42  1  0.37533179  0.37464415  0.49906231  1
  V  V43  1  0.24695264  0.49906038  0.74864243  1
  V  V44  1  0.74913840  0.25032344  0.50103784  1
  V  V45  1  0.74855517  0.87554801  0.62587851  1
  V  V46  1  0.62139893  0.87853726  0.75513108  1
  V  V47  1  0.12342830  0.12524747  0.50062029  1
  V  V48  1  0.12540639  0.37380326  0.24998392  1
  V  V49  1  0.74685097  -0.00450731  0.25035755  1
  V  V50  1  0.00046540  0.87459386  0.37523887  1
  V  V51  1  0.62380274  0.00042682  0.62438246  1
  V  V52  1  0.62555413  0.62557923  0.00122345  1
  V  V53  1  0.74963044  0.25040312  -0.00035412  1
  V  V54  1  0.50395373  0.75431475  0.24938492  1
  V  V55  1  0.87384323  0.38052724  0.49740753  1
  V  V56  1  0.25022468  0.12310095  0.87388068  1
  V  V57  1  0.50173653  0.87501854  0.37297353  1
  V  V58  1  -0.00048018  0.00096827  0.50032866  1
  V  V59  1  -0.00063218  0.62810782  0.62992016  1
  V  V60  1  0.12377763  0.62375861  0.49998329  1
  V  V61  1  0.74870528  0.50129750  0.75090167  1
  V  V62  1  0.25657505  0.37238975  0.12208162  1
  V  V63  1  0.25000662  0.62572382  0.37506389  1
  V  V64  1  0.75067711  0.62631592  0.87614267  1
  V  V65  1  0.49878075  0.62767002  0.62464814  1
  V  V66  1  0.62030073  0.25413933  0.87762248  1
  V  V67  1  0.87430302  0.00065738  0.37518317  1
  V  V68  1  0.50057501  0.37601042  0.37517591  1
  V  V69  1  0.37363096  0.87448610  0.50043435  1
  V  V70  1  0.87543829  0.74894153  0.12569354  1
  V  V71  1  0.25076403  0.87395525  0.12395806  1
  V  V72  1  0.49970226  0.00070555  0.49950853  1
  V  V73  1  -0.00005833  0.24884951  0.25002391  1
  V  V74  1  0.75398272  0.61957616  0.37528039  1
  V  V75  1  0.87583130  0.61864936  0.25474139  1
  V  V76  1  0.75007149  0.75077584  0.50043305  1
  V  V77  1  0.62022199  0.37718748  0.75418769  1
  V  V78  1  0.87657994  0.75029132  0.62950882  1
  V  V79  1  0.00064367  0.12440605  0.12570250  1
  V  V80  1  0.87333618  0.24508621  0.62882482  1
  V  V81  1  0.75020797  0.74949791  0.00132915  1
  V  V82  1  0.24947870  0.00036276  0.74995339  1
  V  V83  1  0.74899656  0.87469977  0.12742626  1
  V  V84  1  0.12230632  0.74980783  0.87133363  1
  V  V85  1  0.87582925  0.12374844  0.24946484  1
  V  V86  1  0.25159151  0.75059552  -0.00042443  1
  V  V87  1  0.62643493  0.37666798  0.25093451  1
  V  V88  1  0.62376331  0.12597762  0.49966947  1
  V  V89  1  0.25105274  0.24901433  0.00013371  1
  V  V90  1  0.12341238  0.87383681  0.74971847  1
  V  V91  1  0.12609493  -0.00173985  0.12527674  1
  V  V92  1  -0.00442715  0.38250744  0.37539219  1
  Zn  Zn93  1  0.12710896  0.87398890  0.25074348  1
  Zn  Zn94  1  0.50638353  0.49437759  -0.00613328  1
  Zn  Zn95  1  -0.00510363  0.12227889  0.62890045  1
  Zn  Zn96  1  0.37478380  0.62654149  0.74801380  1
  Zn  Zn97  1  0.75364168  0.00731704  0.74484949  1
  Zn  Zn98  1  0.37607738  0.75042709  0.12404581  1
  Zn  Zn99  1  0.12590069  0.75155165  0.37510064  1
  Zn  Zn100  1  0.75569162  0.49733652  0.25395818  1
  Zn  Zn101  1  0.75050416  0.37585067  0.62586738  1
  Zn  Zn102  1  0.50092168  0.12498513  0.12504694  1
  Zn  Zn103  1  0.12467985  0.62606833  0.00175893  1
  Zn  Zn104  1  0.74927521  0.12531645  0.37347870  1
  Zn  Zn105  1  0.12086057  0.37398790  0.74506744  1
  Zn  Zn106  1  -0.00647493  0.50288217  0.49901694  1
  Zn  Zn107  1  0.11983867  0.49889181  0.62507573  1
  Zn  Zn108  1  0.87635203  0.24839971  0.12389951  1
  Zn  Zn109  1  0.49963637  0.24973832  0.24812904  1
  Zn  Zn110  1  0.37557140  0.49906833  0.37473205  1
  Zn  Zn111  1  0.39145468  0.36093826  -0.01311079  1
  Zn  Zn112  1  0.37305760  0.74982541  0.62518067  1
  Zn  Zn113  1  0.25107865  0.74909984  0.50122151  1
  Zn  Zn114  1  0.38004064  -0.00340154  0.87079084  1
  Zn  Zn115  1  0.24974369  0.12407288  0.37486991  1
  Zn  Zn116  1  0.62742800  0.49970612  0.12337071  1
  Zn  Zn117  1  0.00140182  0.62459116  0.12658350  1
  Zn  Zn118  1  0.38060019  0.24752039  0.12160439  1
  Zn  Zn119  1  0.49958510  0.12563087  0.62521758  1
  Zn  Zn120  1  0.75467890  0.13211735  0.86806401  1
  Zn  Zn121  1  -0.00167123  0.37542565  0.87149671  1
  Zn  Zn122  1  0.18932302  0.18649433  0.18810356  1
  Zn  Zn123  1  0.18496002  0.18685856  0.68649068  1
  Zn  Zn124  1  0.18706496  0.68680030  0.18558453  1
  Zn  Zn125  1  0.18623341  0.68777977  0.68711868  1
  Zn  Zn126  1  0.68812211  0.18617450  0.18732169  1
  Zn  Zn127  1  0.68904406  0.18565904  0.68753662  1
  Zn  Zn128  1  0.68861533  0.68676637  0.18911118  1
  Zn  Zn129  1  0.68732234  0.68938926  0.68872923  1
  Zn  Zn130  1  0.31248662  0.31127500  0.31274029  1
  Zn  Zn131  1  0.30895454  0.31313042  0.81065271  1
  Zn  Zn132  1  0.31577925  0.81100837  0.31140468  1
  Zn  Zn133  1  0.31140489  0.81297693  0.81079110  1
  Zn  Zn134  1  0.81354407  0.30943974  0.31401763  1
  Zn  Zn135  1  0.80952756  0.31497415  0.81223314  1
  Zn  Zn136  1  0.81496725  0.81138115  0.31323807  1
  Zn  Zn137  1  0.80900453  0.81496050  0.81112227  1
  Zn  Zn138  1  0.18535508  0.43892949  0.43707252  1
  Zn  Zn139  1  0.19037190  0.43511462  0.93839988  1
  Zn  Zn140  1  0.18726816  0.93710502  0.43591475  1
  Zn  Zn141  1  0.18908246  0.93630632  0.93767159  1
  Zn  Zn142  1  0.68725214  0.43727245  0.44014068  1
  Zn  Zn143  1  0.68702078  0.43795491  0.93826117  1
  Zn  Zn144  1  0.68772552  0.93829781  0.43820469  1
  Zn  Zn145  1  0.68866701  0.93629779  0.93944606  1
  Zn  Zn146  1  0.31441868  0.06010460  0.06114272  1
  Zn  Zn147  1  0.31152108  0.06287463  0.56251452  1
  Zn  Zn148  1  0.31449572  0.56294180  0.06164741  1
  Zn  Zn149  1  0.31372938  0.56276897  0.56248846  1
  Zn  Zn150  1  0.81256065  0.06297949  0.06028644  1
  Zn  Zn151  1  0.80933048  0.06425114  0.56189160  1
  Zn  Zn152  1  0.81453342  0.56239864  0.06559049  1
  Zn  Zn153  1  0.81088810  0.56324812  0.56464521  1
  Zn  Zn154  1  0.43940875  0.43811252  0.18727611  1
  Zn  Zn155  1  0.43450151  0.43888870  0.68833574  1
  Zn  Zn156  1  0.43702519  0.93707813  0.18302784  1
  Zn  Zn157  1  0.43739492  0.93701216  0.68599725  1
  Zn  Zn158  1  0.93913196  0.43653752  0.18606560  1
  Zn  Zn159  1  0.93755180  0.43569787  0.68619904  1
  Zn  Zn160  1  0.93628643  0.93687142  0.18776419  1
  Zn  Zn161  1  0.93805917  0.93644379  0.68825427  1
  Zn  Zn162  1  0.06391972  0.06146165  0.31308692  1
  Zn  Zn163  1  0.06082020  0.06199991  0.81262653  1
  Zn  Zn164  1  0.06475504  0.56268403  0.31099454  1
  Zn  Zn165  1  0.06169428  0.56358611  0.81229020  1
  Zn  Zn166  1  0.56227468  0.06364901  0.31283038  1
  Zn  Zn167  1  0.56575802  0.06863306  0.81114648  1
  Zn  Zn168  1  0.56477756  0.56288687  0.31282572  1
  Zn  Zn169  1  0.56258785  0.56850631  0.81222384  1
  Zn  Zn170  1  0.43808246  0.18759783  0.43457330  1
  Zn  Zn171  1  0.43923318  0.18088018  0.93764275  1
  Zn  Zn172  1  0.43592059  0.68856562  0.43743546  1
  Zn  Zn173  1  0.43713565  0.68557015  0.93648699  1
  Zn  Zn174  1  0.93630832  0.18943531  0.43829087  1
  Zn  Zn175  1  0.93915405  0.18850361  0.93976789  1
  Zn  Zn176  1  0.93771297  0.68874136  0.43940586  1
  Zn  Zn177  1  0.93796610  0.68579214  0.93838977  1
  Zn  Zn178  1  0.06402788  0.31292575  0.06227229  1
  Zn  Zn179  1  0.05889281  0.31273822  0.56348647  1
  Zn  Zn180  1  0.06361112  0.81221957  0.06091965  1
  Zn  Zn181  1  0.06299942  0.80973946  0.56168689  1
  Zn  Zn182  1  0.56114481  0.31179932  0.06646942  1
  Zn  Zn183  1  0.56173270  0.31325136  0.56604866  1
  Zn  Zn184  1  0.56267690  0.81368610  0.06330054  1
  Zn  Zn185  1  0.56125562  0.81374759  0.56342689  1
  O  O186  1  0.12053148  0.11832792  0.11961326  1
  O  O187  1  0.12186507  0.11730177  0.61818412  1
  O  O188  1  0.12297013  0.61531994  0.12148446  1
  O  O189  1  0.11618894  0.62520939  0.61836781  1
  O  O190  1  0.62780687  0.11263779  0.11813291  1
  O  O191  1  0.62189856  0.11860550  0.61709982  1
  O  O192  1  0.61897108  0.62467698  0.12024391  1
  O  O193  1  0.61956019  0.62125351  0.61944307  1
  O  O194  1  0.38174374  0.37611859  0.38086526  1
  O  O195  1  0.36812631  0.39066683  0.87348517  1
  O  O196  1  0.38171686  0.88021576  0.38003572  1
  O  O197  1  0.36876202  0.87762138  0.88836088  1
  O  O198  1  0.88494991  0.36745472  0.38441118  1
  O  O199  1  0.87392806  0.38368280  0.88226787  1
  O  O200  1  0.87995696  0.88045318  0.38270118  1
  O  O201  1  0.88237064  0.87882817  0.88020843  1
  O  O202  1  0.25742698  -0.00005754  0.36732981  1
  O  O203  1  0.24812160  0.00659255  0.86699456  1
  O  O204  1  0.24987992  0.51010111  0.36776619  1
  O  O205  1  0.25493774  0.50707452  0.86872252  1
  O  O206  1  0.75477555  -0.00030102  0.36615605  1
  O  O207  1  0.76688876  -0.00220556  0.87913676  1
  O  O208  1  0.74297429  0.51629983  0.37526364  1
  O  O209  1  0.75528560  0.50722757  0.87080962  1
  O  O210  1  0.24673855  0.49174742  0.12774869  1
  O  O211  1  0.24975181  0.49669713  0.63508762  1
  O  O212  1  0.24482518  0.99348794  0.12845945  1
  O  O213  1  0.24261595  0.99413472  0.63034926  1
  O  O214  1  0.75014134  0.48733459  0.12799892  1
  O  O215  1  0.74101843  0.50085046  0.63331761  1
  O  O216  1  0.74477924  0.99486620  0.13096546  1
  O  O217  1  0.74275138  0.99268607  0.62396087  1
  O  O218  1  0.00464072  0.36960662  0.25605977  1
  O  O219  1  0.00265495  0.36371671  0.75266448  1
  O  O220  1  -0.00198058  0.86544622  0.25553851  1
  O  O221  1  0.00642188  0.87893274  0.76329563  1
  O  O222  1  0.51090362  0.37550545  0.25536865  1
  O  O223  1  0.50783393  0.36654024  0.74647745  1
  O  O224  1  0.49364930  0.86164108  0.25476644  1
  O  O225  1  0.51058931  0.86518620  0.74397361  1
  O  O226  1  0.48844143  0.12428097  0.24887555  1
  O  O227  1  0.49376689  0.13733921  0.74855693  1
  O  O228  1  0.49752355  0.63309225  0.24448194  1
  O  O229  1  0.50080152  0.63599438  0.74175147  1
  O  O230  1  0.99598249  0.12857269  0.24469150  1
  O  O231  1  1.00221856  0.13898127  0.74925932  1
  O  O232  1  0.99292663  0.63403221  0.25173301  1
  O  O233  1  0.99292091  0.62115510  0.73966285  1
  O  O234  1  0.36698282  0.24722426  -0.00006317  1
  O  O235  1  0.36954805  0.25498478  0.50483423  1
  O  O236  1  0.37068434  0.75750884  -0.00017306  1
  O  O237  1  0.37302194  0.75937169  0.50185969  1
  O  O238  1  0.86878684  0.25710404  0.00067822  1
  O  O239  1  0.86947093  0.25883552  0.50724342  1
  O  O240  1  0.86990356  0.75356932  0.00543209  1
  O  O241  1  0.86894667  0.75671644  0.50746785  1
  O  O242  1  0.12864556  0.24522923  0.49616328  1
  O  O243  1  0.12912300  0.24364658  0.99161599  1
  O  O244  1  0.12742870  0.73625104  0.49692892  1
  O  O245  1  0.13204719  0.74984006  0.98790323  1
  O  O246  1  0.62901385  0.24704370  0.49684449  1
  O  O247  1  0.62879313  0.24667832  0.99355280  1
  O  O248  1  0.62961992  0.74506318  0.49245840  1
  O  O249  1  0.63077666  0.74601111  0.99576272  1
  O  O250  1  0.49787111  0.24270486  0.13115053  1
  O  O251  1  0.49274927  0.24955665  0.63619024  1
  O  O252  1  0.50273544  0.74108430  0.13401997  1
  O  O253  1  0.50087827  0.74474500  0.63468991  1
  O  O254  1  1.00090286  0.24321051  0.13138028  1
  O  O255  1  0.99123815  0.24859174  0.63352525  1
  O  O256  1  0.99458365  0.74952983  0.13317187  1
  O  O257  1  0.99190270  0.73750814  0.61905559  1
  O  O258  1  0.00572536  0.25871735  0.36940655  1
  O  O259  1  0.00729550  0.25075852  0.86937883  1
  O  O260  1  -0.00117389  0.75614614  0.36590177  1
  O  O261  1  0.00923045  0.75931261  0.88269771  1
  O  O262  1  0.50751739  0.25874953  0.37240216  1
  O  O263  1  0.50803540  0.24710171  0.86584175  1
  O  O264  1  0.50800593  0.75318576  0.36839532  1
  O  O265  1  0.50799934  0.74100855  0.86255572  1
  O  O266  1  0.24255518  0.13199338  0.49872631  1
  O  O267  1  0.24417115  0.12852804  0.99456149  1
  O  O268  1  0.24307861  0.62419657  0.49154065  1
  O  O269  1  0.24881320  0.62991328  0.98942680  1
  O  O270  1  0.74150601  0.13222901  0.49671910  1
  O  O271  1  0.74461627  0.13241869  0.99619760  1
  O  O272  1  0.74572875  0.63139819  0.49365659  1
  O  O273  1  0.74680898  0.63097902  0.99631602  1
  O  O274  1  0.25296580  0.36784203  0.00910217  1
  O  O275  1  0.25490618  0.37054110  0.50368726  1
  O  O276  1  0.25814843  0.87056036  0.00452754  1
  O  O277  1  0.25528347  0.87409326  0.50545964  1
  O  O278  1  0.75370143  0.37106444  0.00874935  1
  O  O279  1  0.75676814  0.36881671  0.50111669  1
  O  O280  1  0.75593525  0.86770696  0.00685478  1
  O  O281  1  0.75554394  0.86991586  0.50568239  1
  O  O282  1  0.13101731  0.49350056  0.24288119  1
  O  O283  1  0.13635889  0.49767992  0.75101320  1
  O  O284  1  0.13210372  0.99819591  0.24278685  1
  O  O285  1  0.12873859  0.99449692  0.74445863  1
  O  O286  1  0.62979185  0.48738269  0.24964658  1
  O  O287  1  0.62719915  0.49462511  0.74878255  1
  O  O288  1  0.63583584  1.00569035  0.24080082  1
  O  O289  1  0.62029592  0.99072056  0.74429696  1
  O  O290  1  0.37116029  0.00546392  0.25368876  1
  O  O291  1  0.36891903  0.00543253  0.75081312  1
  O  O292  1  0.36862551  0.50665934  0.25174317  1
  O  O293  1  0.36383765  0.50211878  0.75974316  1
  O  O294  1  0.86800282  0.00478224  0.25494381  1
  O  O295  1  0.87530188  -0.00620639  0.76677882  1
  O  O296  1  0.87707702  0.51461918  0.24656588  1
  O  O297  1  0.86861148  0.50636992  0.75534274  1
  O  O298  1  0.11709812  0.36933980  0.37000651  1
  O  O299  1  0.12571293  0.36036949  0.87459671  1
  O  O300  1  0.11659240  0.87191617  0.37166523  1
  O  O301  1  0.11780505  0.86897463  0.87119756  1
  O  O302  1  0.62130513  0.37118622  0.36898139  1
  O  O303  1  0.62738979  0.36662141  0.86588066  1
  O  O304  1  0.61976252  0.86184662  0.38153801  1
  O  O305  1  0.63185493  0.86940710  0.86397238  1
  O  O306  1  0.37516885  0.12323914  0.13614090  1
  O  O307  1  0.37520329  0.13248819  0.63188480  1
  O  O308  1  0.38488241  0.62742363  0.12994014  1
  O  O309  1  0.38313839  0.62816521  0.62748129  1
  O  O310  1  0.88303582  0.12461492  0.13019572  1
  O  O311  1  0.87576028  0.14031824  0.61800880  1
  O  O312  1  0.87660400  0.63195765  0.13589902  1
  O  O313  1  0.88063792  0.63031641  0.62952547  1
  O  O314  1  0.24919324  0.25810425  0.11860582  1
  O  O315  1  0.25451782  0.25624060  0.61992373  1
  O  O316  1  0.25149522  0.75507237  0.11757503  1
  O  O317  1  0.25123745  0.75853243  0.62407600  1
  O  O318  1  0.75125543  0.26044953  0.11952034  1
  O  O319  1  0.75637146  0.25328621  0.61980582  1
  O  O320  1  0.75500592  0.75480934  0.12134026  1
  O  O321  1  0.75444485  0.75541743  0.61882705  1
  O  O322  1  0.24191437  0.24955354  0.38239537  1
  O  O323  1  0.24148714  0.24369791  0.87832289  1
  O  O324  1  0.24861131  0.73645383  0.37362612  1
  O  O325  1  0.24337635  0.74243342  0.87871102  1
  O  O326  1  0.74282579  0.24829922  0.38268004  1
  O  O327  1  0.73877719  0.25248829  0.88156473  1
  O  O328  1  0.74298873  0.74454925  0.37937967  1
  O  O329  1  0.74463707  0.74534598  0.88212470  1
  O  O330  1  0.00659512  0.11890727  0.00580583  1
  O  O331  1  0.00557522  0.11805453  0.50091390  1
  O  O332  1  0.00115934  0.61181670  0.00221459  1
  O  O333  1  0.00592423  0.62290021  0.50619443  1
  O  O334  1  0.50786399  0.11355639  0.00350038  1
  O  O335  1  0.50534189  0.11842199  0.50035393  1
  O  O336  1  0.50590100  0.62523050  0.00979441  1
  O  O337  1  0.50545275  0.62075718  0.50422981  1
  O  O338  1  0.49541339  0.38034541  0.49587219  1
  O  O339  1  0.49644471  0.38456634  1.01354113  1
  O  O340  1  0.49459264  0.88093318  0.49349835  1
  O  O341  1  0.49129206  0.88317452  1.00548672  1
  O  O342  1  0.99172481  0.37627447  0.49176454  1
  O  O343  1  0.99481634  0.38470307  0.99869245  1
  O  O344  1  0.99423161  0.88043230  0.49593520  1
  O  O345  1  0.99565639  0.87948874  0.99059742  1
  O  O346  1  0.50026547  0.49465117  0.38258846  1
  O  O347  1  0.48215730  0.50966066  0.87144855  1
  O  O348  1  0.49595540  0.99325978  0.37922763  1
  O  O349  1  0.50269931  1.00406553  0.88795080  1
  O  O350  1  1.00525559  0.48571437  0.37522247  1
  O  O351  1  0.99494421  0.49866785  0.88330217  1
  O  O352  1  0.99390411  0.99407641  0.38008685  1
  O  O353  1  0.99188800  0.99110445  0.88029968  1
  O  O354  1  0.00537334  0.00355634  0.11964915  1
  O  O355  1  0.00436694  0.00068337  0.61902652  1
  O  O356  1  0.00690235  0.49915534  0.11533950  1
  O  O357  1  -0.00039847  0.51291444  0.62208854  1
  O  O358  1  0.51156092  -0.00015014  0.11756900  1
  O  O359  1  0.50589529  0.00145261  0.61691547  1
  O  O360  1  0.50351802  0.51554885  0.12804143  1
  O  O361  1  0.50452720  0.50681139  0.62100844  1
  O  O362  1  0.24455452  0.37924660  0.24307927  1
  O  O363  1  0.24716405  0.38368179  0.74246395  1
  O  O364  1  0.25144241  0.87952318  0.24241288  1
  O  O365  1  0.24311592  0.88114582  0.74453483  1
  O  O366  1  0.74613221  0.37566304  0.24451471  1
  O  O367  1  0.73744428  0.38303959  0.74912917  1
  O  O368  1  0.75865258  0.88757085  0.24407693  1
  O  O369  1  0.73851688  0.87978562  0.74367095  1
  O  O370  1  0.25866474  0.11707634  0.25149562  1
  O  O371  1  0.25433725  0.12013500  0.75390050  1
  O  O372  1  0.25483514  0.62028374  0.25592680  1
  O  O373  1  0.24932764  0.61718227  0.75870169  1
  O  O374  1  0.75677940  0.11323853  0.25010433  1
  O  O375  1  0.74125989  0.11807385  0.75753657  1
  O  O376  1  0.75868991  0.62514849  0.25840378  1
  O  O377  1  0.75413994  0.62029789  0.75677997  1
  O  O378  1  0.37335053  0.11766981  0.36582979  1
  O  O379  1  0.36740923  0.12166647  0.86697761  1
  O  O380  1  0.36609260  0.62251613  0.37000616  1
  O  O381  1  0.36273348  0.61721574  0.87198358  1
  O  O382  1  0.87369899  0.11802797  0.36862144  1
  O  O383  1  0.87768888  0.10868375  0.88160161  1
  O  O384  1  0.86425880  0.63406333  0.36738787  1
  O  O385  1  0.86987167  0.62074894  0.87039912  1
  O  O386  1  0.13536235  0.37902146  0.12980928  1
  O  O387  1  0.13201792  0.37913485  0.62408717  1
  O  O388  1  0.13205557  0.88108827  0.12518470  1
  O  O389  1  0.12788279  0.87968365  0.62981626  1
  O  O390  1  0.63616220  0.37550024  0.13507310  1
  O  O391  1  0.62532895  0.38230838  0.63693613  1
  O  O392  1  0.63340362  0.88767949  0.11951411  1
  O  O393  1  0.62987293  0.88006713  0.63244096  1
  O  O394  1  0.11994383  0.25455329  0.25545715  1
  O  O395  1  0.11709200  0.24995660  0.75872945  1
  O  O396  1  0.11202693  0.75031415  0.25039303  1
  O  O397  1  0.13069387  0.75655813  0.76465070  1
  O  O398  1  0.62793545  0.26158852  0.25655159  1
  O  O399  1  0.61681800  0.25853135  0.75699131  1
  O  O400  1  0.61633740  0.74434812  0.26104148  1
  O  O401  1  0.61929873  0.75877054  0.75487669  1
  O  O402  1  0.37428080  0.23757686  0.24906987  1
  O  O403  1  0.38066005  0.24716848  0.74666179  1
  O  O404  1  0.38739286  0.74217901  0.24849509  1
  O  O405  1  0.38614133  0.74997301  0.74934329  1
  O  O406  1  0.88206288  0.24193119  0.24804937  1
  O  O407  1  0.88130452  0.25813259  0.74128747  1
  O  O408  1  0.88348624  0.74281249  0.24552768  1
  O  O409  1  0.86610372  0.74239141  0.74210323  1
  O  O410  1  0.38165233  0.49234557  0.49890360  1
  O  O411  1  0.37387699  0.50082454  0.98333361  1
  O  O412  1  0.37987189  0.99530355  0.49368313  1
  O  O413  1  0.38524475  0.99268225  0.99781033  1
  O  O414  1  0.87236268  0.48497119  0.50583434  1
  O  O415  1  0.88289892  0.49625964  0.99545955  1
  O  O416  1  0.87910753  0.99478578  0.49565217  1
  O  O417  1  0.88117133  0.99239227  0.99248289  1
  O  O418  1  0.12011847  0.00454706  0.00441134  1
  O  O419  1  0.11884343  0.00440254  0.50492258  1
  O  O420  1  0.11700948  0.49873089  0.00305012  1
  O  O421  1  0.12292012  0.51347720  0.50192702  1
  O  O422  1  0.62074951  0.00323747  0.00625401  1
  O  O423  1  0.61926242  0.00490162  0.50390422  1
  O  O424  1  0.62440468  0.51038940  0.00118585  1
  O  O425  1  0.61919535  0.50598105  0.50707996  1
  O  O426  1  0.36168289  0.37307021  0.12883856  1
  O  O427  1  0.36844405  0.36964392  0.61913903  1
  O  O428  1  0.36879567  0.87255503  0.11280522  1
  O  O429  1  0.36703709  0.87556707  0.61770386  1
  O  O430  1  0.86672949  0.37299032  0.11985180  1
  O  O431  1  0.87322495  0.36499673  0.61570390  1
  O  O432  1  0.86993333  0.86925659  0.11862125  1
  O  O433  1  0.86958039  0.87051672  0.62145932  1
  O  O434  1  0.12599596  0.13150135  0.38195310  1
  O  O435  1  0.12888483  0.13308507  0.88006075  1
  O  O436  1  0.13315031  0.62552565  0.38175084  1
  O  O437  1  0.13285540  0.63277854  0.87573064  1
  O  O438  1  0.62566464  0.13271440  0.38126752  1
  O  O439  1  0.62548400  0.13859253  0.88273606  1
  O  O440  1  0.63253285  0.63574793  0.38023294  1
  O  O441  1  0.63236421  0.63232406  0.88094600  1
