# generated using pymatgen
data_V93Zn93O256
_symmetry_space_group_name_H-M   'P 1'
_cell_length_a   17.05620781
_cell_length_b   17.05673221
_cell_length_c   17.05623975
_cell_angle_alpha   89.97499330
_cell_angle_beta   90.04172279
_cell_angle_gamma   89.93858226
_symmetry_Int_Tables_number   1
_chemical_formula_structural   V93Zn93O256
_chemical_formula_sum   'V93 Zn93 O256'
_cell_volume   4962.05068209
_cell_formula_units_Z   1
loop_
 _symmetry_equiv_pos_site_id
 _symmetry_equiv_pos_as_xyz
  1  'x, y, z'
loop_
 _atom_site_type_symbol
 _atom_site_label
 _atom_site_symmetry_multiplicity
 _atom_site_fract_x
 _atom_site_fract_y
 _atom_site_fract_z
 _atom_site_occupancy
  V  V0  1  0.87549976  0.24976268  0.12475601  1
  V  V1  1  -0.00033158  0.75006299  0.25116474  1
  V  V2  1  0.62408714  0.62922780  0.49453205  1
  V  V3  1  -0.00012940  0.50018871  0.00037569  1
  V  V4  1  0.74997199  0.37500602  0.62547446  1
  V  V5  1  0.50334972  0.74936566  0.25558298  1
  V  V6  1  0.87730963  0.12591061  0.75032082  1
  V  V7  1  0.87456011  0.37489081  -0.00025646  1
  V  V8  1  0.62553816  -0.00101357  0.12238915  1
  V  V9  1  0.87503072  0.62606981  0.74965449  1
  V  V10  1  0.24825581  0.75124027  0.50193653  1
  V  V11  1  0.49974046  0.50087896  0.50096532  1
  V  V12  1  0.87472293  0.37655553  0.50111876  1
  V  V13  1  0.24941317  0.25035276  0.50033544  1
  V  V14  1  0.62438657  0.12905682  -0.00537457  1
  V  V15  1  0.87545452  0.49984582  0.87484919  1
  V  V16  1  0.37398749  0.87959394  0.49126398  1
  V  V17  1  0.25012575  0.37505045  0.62599911  1
  V  V18  1  0.87499146  0.00093849  0.37497539  1
  V  V19  1  0.24966030  0.49884628  0.25021332  1
  V  V20  1  0.50250320  0.87323479  0.87249614  1
  V  V21  1  -0.00040143  0.50286407  0.50126859  1
  V  V22  1  0.12536261  0.49931739  0.12621953  1
  V  V23  1  0.49481741  0.00261269  0.48894307  1
  V  V24  1  0.74803249  0.24939170  -0.00184598  1
  V  V25  1  0.86860217  0.87745474  0.50480108  1
  V  V26  1  0.12249150  0.12333998  0.50100384  1
  V  V27  1  0.86800382  0.75487295  0.62564313  1
  V  V28  1  0.49906406  0.37400913  0.37488786  1
  V  V29  1  0.74632075  -0.00480164  0.74398393  1
  V  V30  1  -0.00010664  0.62540627  0.12531444  1
  V  V31  1  0.24953287  0.37286146  0.12565455  1
  V  V32  1  0.75011088  0.50110287  0.25081173  1
  V  V33  1  0.37534411  0.25014919  0.62661670  1
  V  V34  1  0.74940344  0.62468482  0.87560723  1
  V  V35  1  0.25081117  0.62333753  0.87503160  1
  V  V36  1  0.12471021  0.50117265  0.62546336  1
  V  V37  1  0.37522555  0.49920947  0.87501445  1
  V  V38  1  0.50361625  0.24828566  0.75381798  1
  V  V39  1  0.25124406  0.74976688  0.00141444  1
  V  V40  1  0.87420059  0.12492599  0.24995703  1
  V  V41  1  -0.00049955  0.37579365  0.37584230  1
  V  V42  1  -0.00002209  0.87771601  0.87527566  1
  V  V43  1  -0.00109492  0.75107863  0.74860732  1
  V  V44  1  0.37437278  0.37576471  0.50065280  1
  V  V45  1  0.00146640  0.37371878  0.87485041  1
  V  V46  1  0.50302350  0.12342105  0.62249203  1
  V  V47  1  0.37808657  0.74893622  0.62622733  1
  V  V48  1  0.12619935  0.37373440  0.75105246  1
  V  V49  1  0.50433999  0.37107221  0.87542078  1
  V  V50  1  0.12781074  0.00026827  0.12745192  1
  V  V51  1  0.49461069  0.00023152  -0.00691043  1
  V  V52  1  0.37454063  0.24742383  0.12636889  1
  V  V53  1  -0.00035510  0.25151462  0.25025961  1
  V  V54  1  0.62477257  0.49999030  0.62378667  1
  V  V55  1  0.12778378  0.24904461  0.87402741  1
  V  V56  1  0.62449891  0.37519678  0.24951787  1
  V  V57  1  0.74519697  0.75228614  0.49447374  1
  V  V58  1  0.62533129  0.37252491  0.75140657  1
  V  V59  1  0.74787321  0.12891380  0.87392204  1
  V  V60  1  0.87516426  0.75124874  0.12496209  1
  V  V61  1  0.25601106  0.11746248  0.37231827  1
  V  V62  1  0.62503720  0.62703448  -0.00081911  1
  V  V63  1  0.49955547  0.12502493  0.12275773  1
  V  V64  1  0.37444395  0.87569913  -0.00297699  1
  V  V65  1  0.74975855  0.37450426  0.12471008  1
  V  V66  1  0.50003412  0.49917160  -0.00043879  1
  V  V67  1  0.49967931  0.24889755  0.24837232  1
  V  V68  1  0.37539272  0.62515318  0.24927610  1
  V  V69  1  0.62367606  0.49955862  0.12468109  1
  V  V70  1  0.37319543  0.49891163  0.37494842  1
  V  V71  1  0.25111453  0.24720070  -0.00174076  1
  V  V72  1  0.87509427  0.87627447  -0.00055706  1
  V  V73  1  0.13081629  0.00010706  0.62896065  1
  V  V74  1  0.25572559  0.11122324  0.86990327  1
  V  V75  1  0.87324397  0.62486634  0.25051782  1
  V  V76  1  0.12584402  0.74976514  0.87406953  1
  V  V77  1  0.13321355  0.87919519  0.74970192  1
  V  V78  1  0.00177739  0.12532536  0.12381701  1
  V  V79  1  0.25080607  0.49971739  0.75126733  1
  V  V80  1  0.75037398  0.87510774  0.12362834  1
  V  V81  1  0.75041172  0.00022417  0.24929362  1
  V  V82  1  0.74853195  0.25035054  0.49940146  1
  V  V83  1  0.62617612  0.25002651  0.37542165  1
  V  V84  1  0.37507167  0.10603461  0.75097211  1
  V  V85  1  -0.00203501  0.87592895  0.37652898  1
  V  V86  1  0.87566407  0.24976500  0.62589189  1
  V  V87  1  0.12525370  0.87561851  0.25042836  1
  V  V88  1  0.12382622  0.75055423  0.37771973  1
  V  V89  1  0.12517342  0.62530731  0.00013698  1
  V  V90  1  0.62484643  0.87031571  0.25613762  1
  V  V91  1  0.75044696  0.49913868  0.74966163  1
  V  V92  1  0.12387739  0.25006499  0.37499395  1
  Zn  Zn93  1  0.62627285  0.12242811  0.49707481  1
  Zn  Zn94  1  0.12553449  0.12114857  -0.00357721  1
  Zn  Zn95  1  0.12425380  0.37558431  0.25091980  1
  Zn  Zn96  1  0.63199036  0.86662346  0.74408186  1
  Zn  Zn97  1  0.87537279  0.00118513  0.87451039  1
  Zn  Zn98  1  0.50010865  0.62423841  0.62748871  1
  Zn  Zn99  1  0.37650243  0.37428370  0.00029922  1
  Zn  Zn100  1  0.75004078  0.12597703  0.37602199  1
  Zn  Zn101  1  0.50002260  0.62613276  0.12454984  1
  Zn  Zn102  1  0.62681446  0.75040568  0.87098495  1
  Zn  Zn103  1  0.00201329  0.12545529  0.62706433  1
  Zn  Zn104  1  0.38239143  0.11481405  0.25487167  1
  Zn  Zn105  1  0.12416148  0.62713364  0.50175820  1
  Zn  Zn106  1  0.26237422  -0.00990105  0.25544296  1
  Zn  Zn107  1  0.37469565  0.75029663  0.12571409  1
  Zn  Zn108  1  0.74680378  0.62760306  0.37189763  1
  Zn  Zn109  1  0.63069013  -0.00799744  0.61576382  1
  Zn  Zn110  1  -0.00193478  -0.00026881  0.50267305  1
  Zn  Zn111  1  0.25859420  0.88090319  0.63164862  1
  Zn  Zn112  1  0.49513875  0.88012195  0.36950214  1
  Zn  Zn113  1  0.24674203  0.62418933  0.37597361  1
  Zn  Zn114  1  0.87280798  0.50280404  0.37637172  1
  Zn  Zn115  1  0.00201086  0.24951331  0.74969841  1
  Zn  Zn116  1  0.25228220  0.87460831  0.12650727  1
  Zn  Zn117  1  0.74797420  0.75171411  -0.00145549  1
  Zn  Zn118  1  0.00054984  0.62758823  0.62508755  1
  Zn  Zn119  1  0.00090308  0.00247049  0.00073832  1
  Zn  Zn120  1  0.50415164  0.74475955  0.75121931  1
  Zn  Zn121  1  0.37697846  0.62560319  0.74984223  1
  Zn  Zn122  1  0.18645777  0.18636772  0.18920739  1
  Zn  Zn123  1  0.19140396  0.18512603  0.69016123  1
  Zn  Zn124  1  0.18835197  0.68830276  0.18828291  1
  Zn  Zn125  1  0.18854454  0.68804249  0.68675511  1
  Zn  Zn126  1  0.68653561  0.18673347  0.18593340  1
  Zn  Zn127  1  0.68706647  0.18574753  0.68578592  1
  Zn  Zn128  1  0.68744247  0.68866332  0.18469009  1
  Zn  Zn129  1  0.68637589  0.68642198  0.68419282  1
  Zn  Zn130  1  0.31199154  0.30845140  0.31156412  1
  Zn  Zn131  1  0.31694084  0.30927780  0.81283532  1
  Zn  Zn132  1  0.31083619  0.80896524  0.31259628  1
  Zn  Zn133  1  0.31680436  0.81273864  0.81526760  1
  Zn  Zn134  1  0.81319870  0.31451804  0.31401302  1
  Zn  Zn135  1  0.81284240  0.31119208  0.81311640  1
  Zn  Zn136  1  0.81218466  0.81342290  0.31407949  1
  Zn  Zn137  1  0.81147486  0.81086668  0.81506654  1
  Zn  Zn138  1  0.18572714  0.43764831  0.43758166  1
  Zn  Zn139  1  0.18822454  0.43574071  0.93936282  1
  Zn  Zn140  1  0.18611890  0.93641040  0.44096254  1
  Zn  Zn141  1  0.18584701  0.93595520  0.94124928  1
  Zn  Zn142  1  0.68718558  0.43926474  0.43643656  1
  Zn  Zn143  1  0.68626665  0.43863570  0.93693727  1
  Zn  Zn144  1  0.68685971  0.94024678  0.43658463  1
  Zn  Zn145  1  0.68626175  0.94109847  0.93245407  1
  Zn  Zn146  1  0.31241592  0.06185114  0.06318670  1
  Zn  Zn147  1  0.31403466  0.06303531  0.56401842  1
  Zn  Zn148  1  0.31319405  0.56073956  0.06273076  1
  Zn  Zn149  1  0.31127553  0.56484631  0.56326419  1
  Zn  Zn150  1  0.81345144  0.06159940  0.06240167  1
  Zn  Zn151  1  0.81227902  0.06528087  0.56309554  1
  Zn  Zn152  1  0.81117523  0.56243754  0.06383240  1
  Zn  Zn153  1  0.81131448  0.56695212  0.56321884  1
  Zn  Zn154  1  0.43607653  0.43632737  0.18575225  1
  Zn  Zn155  1  0.43766349  0.43803857  0.68872033  1
  Zn  Zn156  1  0.43801917  0.93755011  0.18302206  1
  Zn  Zn157  1  0.45701197  0.92728957  0.67369186  1
  Zn  Zn158  1  0.93686372  0.43808760  0.18845216  1
  Zn  Zn159  1  0.93874391  0.43690069  0.68774274  1
  Zn  Zn160  1  0.93971324  0.93899606  0.18779725  1
  Zn  Zn161  1  0.94100160  0.94134204  0.68654216  1
  Zn  Zn162  1  0.06291851  0.06186376  0.31215853  1
  Zn  Zn163  1  0.06645814  0.06264804  0.81341784  1
  Zn  Zn164  1  0.06267328  0.56413973  0.31484413  1
  Zn  Zn165  1  0.06253201  0.56246705  0.81162228  1
  Zn  Zn166  1  0.56659825  0.06339400  0.31021769  1
  Zn  Zn167  1  0.56255910  0.06276693  0.81285518  1
  Zn  Zn168  1  0.56102373  0.56180118  0.31350878  1
  Zn  Zn169  1  0.56122255  0.56174994  0.81162696  1
  Zn  Zn170  1  0.43746490  0.19015903  0.43788651  1
  Zn  Zn171  1  0.43294753  0.18576520  0.93432815  1
  Zn  Zn172  1  0.43696906  0.68831754  0.43673869  1
  Zn  Zn173  1  0.43796744  0.68846613  0.93640658  1
  Zn  Zn174  1  0.93621413  0.18890173  0.43717574  1
  Zn  Zn175  1  0.93843135  0.18770559  0.93713032  1
  Zn  Zn176  1  0.93392603  0.68802099  0.43718865  1
  Zn  Zn177  1  0.93753654  0.68936102  0.93686003  1
  Zn  Zn178  1  0.06470120  0.31166491  0.06156764  1
  Zn  Zn179  1  0.06131991  0.31207729  0.56425346  1
  Zn  Zn180  1  0.06354496  0.81346337  0.06331012  1
  Zn  Zn181  1  0.05903252  0.81589084  0.56503968  1
  Zn  Zn182  1  0.56266354  0.31176392  0.06225011  1
  Zn  Zn183  1  0.56282454  0.31187754  0.56321204  1
  Zn  Zn184  1  0.55897891  0.81092691  0.06732890  1
  Zn  Zn185  1  0.56121219  0.81619206  0.56138400  1
  O  O186  1  0.11990674  0.11661741  0.12495875  1
  O  O187  1  0.12709657  0.11925384  0.61763908  1
  O  O188  1  0.11900965  0.61984583  0.11958770  1
  O  O189  1  0.12125585  0.61732859  0.62343978  1
  O  O190  1  0.62018255  0.11903705  0.11479964  1
  O  O191  1  0.61217427  0.12306735  0.62279863  1
  O  O192  1  0.62475608  0.61715538  0.11520301  1
  O  O193  1  0.62458424  0.61642607  0.61313630  1
  O  O194  1  0.37941587  0.37823426  0.38081387  1
  O  O195  1  0.38732793  0.38013223  0.87593060  1
  O  O196  1  0.37350646  0.87120146  0.38751752  1
  O  O197  1  0.38456305  0.86998627  0.88980870  1
  O  O198  1  0.88190255  0.37798373  0.38345043  1
  O  O199  1  0.88002289  0.38008742  0.88049384  1
  O  O200  1  0.87880929  0.88103865  0.38354149  1
  O  O201  1  0.88410237  0.87450406  0.88248087  1
  O  O202  1  0.24349045  0.01504412  0.37680331  1
  O  O203  1  0.24552840  0.01321225  0.88167670  1
  O  O204  1  0.25568227  0.50027710  0.36934576  1
  O  O205  1  0.25457240  0.50322484  0.87143444  1
  O  O206  1  0.75740848  0.00220323  0.36672954  1
  O  O207  1  0.75385422  0.01322104  0.86601960  1
  O  O208  1  0.75201982  0.50214116  0.36555880  1
  O  O209  1  0.75689036  0.50360008  0.86922326  1
  O  O210  1  0.24462260  0.49349008  0.12976987  1
  O  O211  1  0.24509206  0.49394028  0.63030432  1
  O  O212  1  0.23785330  0.99911640  0.12701076  1
  O  O213  1  0.23590111  0.99775280  0.61947662  1
  O  O214  1  0.74411657  0.49285645  0.13007915  1
  O  O215  1  0.74585084  0.49403815  0.63051718  1
  O  O216  1  0.74562621  0.99433143  0.12956765  1
  O  O217  1  0.74812019  1.00650919  0.63990426  1
  O  O218  1  0.00010749  0.36931251  0.25676443  1
  O  O219  1  0.00739831  0.37464362  0.75784091  1
  O  O220  1  0.00410274  0.86862196  0.25636483  1
  O  O221  1  0.00598063  0.87061053  0.75897843  1
  O  O222  1  0.50493765  0.36942715  0.25487470  1
  O  O223  1  0.50490499  0.36743858  0.75591961  1
  O  O224  1  0.50815339  0.86821067  0.24845936  1
  O  O225  1  0.49232022  0.87412532  0.76907911  1
  O  O226  1  0.50322499  0.13171198  0.24047396  1
  O  O227  1  0.49506020  0.13046199  0.74436886  1
  O  O228  1  0.49276815  0.63048426  0.24996826  1
  O  O229  1  0.49518073  0.62624003  0.74601741  1
  O  O230  1  0.99381685  0.13196018  0.24458506  1
  O  O231  1  0.98764875  0.12568544  0.75269040  1
  O  O232  1  0.99443014  0.63046275  0.24397634  1
  O  O233  1  0.99252572  0.63278309  0.75131032  1
  O  O234  1  0.36565257  0.25088380  0.00559145  1
  O  O235  1  0.36957735  0.25690924  0.50668066  1
  O  O236  1  0.36881625  0.75600360  0.00197342  1
  O  O237  1  0.36732834  0.75686848  0.50513856  1
  O  O238  1  0.86890808  0.25590882  0.00542179  1
  O  O239  1  0.86942815  0.25663106  0.50595072  1
  O  O240  1  0.87535472  0.76107070  0.00580556  1
  O  O241  1  0.86739130  0.75774817  0.50712379  1
  O  O242  1  0.12980241  0.24232279  0.49683188  1
  O  O243  1  0.13647886  0.24765499  0.99417655  1
  O  O244  1  0.13227866  0.75346051  0.49780036  1
  O  O245  1  0.12958801  0.74498263  0.99389602  1
  O  O246  1  0.63090891  0.25097927  0.49318682  1
  O  O247  1  0.63149080  0.23651195  1.00678689  1
  O  O248  1  0.63453615  0.74280071  0.50979484  1
  O  O249  1  0.62510939  0.73621237  1.00188358  1
  O  O250  1  0.49517370  0.24510271  0.12889319  1
  O  O251  1  0.49502731  0.24224321  0.63109418  1
  O  O252  1  0.49510301  0.74562333  0.13821753  1
  O  O253  1  0.48673918  0.74758456  0.62300619  1
  O  O254  1  0.99463902  0.24620388  0.12938957  1
  O  O255  1  0.99192464  0.24723453  0.62927638  1
  O  O256  1  0.99558384  0.74475625  0.13097266  1
  O  O257  1  0.98814102  0.74962066  0.63085837  1
  O  O258  1  0.00417752  0.25593955  0.37026209  1
  O  O259  1  0.00833808  0.25676984  0.87452385  1
  O  O260  1  0.00325156  0.75613242  0.37049452  1
  O  O261  1  0.00534745  0.75916574  0.86982932  1
  O  O262  1  0.50485374  0.25566499  0.36903012  1
  O  O263  1  0.49454494  0.25911477  0.86546542  1
  O  O264  1  0.49475322  0.75379987  0.35966834  1
  O  O265  1  0.50474312  0.75986904  0.87606442  1
  O  O266  1  0.24160879  0.12979170  0.49229178  1
  O  O267  1  0.25180148  0.13450011  0.99080987  1
  O  O268  1  0.24814550  0.63845815  0.49820690  1
  O  O269  1  0.24380787  0.62862674  0.99504251  1
  O  O270  1  0.74760385  0.13480469  0.49838099  1
  O  O271  1  0.74397025  0.12772693  0.99339422  1
  O  O272  1  0.74180776  0.63360856  0.49849185  1
  O  O273  1  0.74115746  0.62341983  0.99470881  1
  O  O274  1  0.25164243  0.36341246  0.00579290  1
  O  O275  1  0.25481604  0.37032755  0.50603734  1
  O  O276  1  0.25882677  0.86818889  -0.00125727  1
  O  O277  1  0.25658104  0.86664151  0.50272063  1
  O  O278  1  0.75426179  0.37027569  0.00421800  1
  O  O279  1  0.75496639  0.37149071  0.50663962  1
  O  O280  1  0.75917765  0.87637274  0.00329403  1
  O  O281  1  0.76013250  0.86904426  0.49592097  1
  O  O282  1  0.13083051  0.50000576  0.24384548  1
  O  O283  1  0.13086875  0.49334582  0.74605249  1
  O  O284  1  0.12680478  0.99347664  0.24270614  1
  O  O285  1  0.11953141  0.98990338  0.74158950  1
  O  O286  1  0.62884886  0.49413431  0.24461638  1
  O  O287  1  0.63185807  0.49343949  0.74391444  1
  O  O288  1  0.63021639  0.99209338  0.24152917  1
  O  O289  1  0.64188456  1.00492409  0.75171174  1
  O  O290  1  0.37364018  0.00313762  0.24522354  1
  O  O291  1  0.38547799  0.00933234  0.73803471  1
  O  O292  1  0.37064799  0.50561212  0.25522928  1
  O  O293  1  0.36702702  0.49926698  0.75679294  1
  O  O294  1  0.86986850  0.00469598  0.25422367  1
  O  O295  1  0.86555095  0.00971861  0.74981496  1
  O  O296  1  0.86797324  0.50721100  0.24892587  1
  O  O297  1  0.87031217  0.50466836  0.75535184  1
  O  O298  1  0.11763866  0.36771976  0.37476313  1
  O  O299  1  0.12105936  0.36977347  0.87051037  1
  O  O300  1  0.11782912  0.87045476  0.37119166  1
  O  O301  1  0.11785467  0.87047554  0.86947182  1
  O  O302  1  0.61815351  0.37051504  0.36876094  1
  O  O303  1  0.61260592  0.38091554  0.86780363  1
  O  O304  1  0.62357133  0.88081137  0.35810181  1
  O  O305  1  0.61629735  0.87323947  0.87151229  1
  O  O306  1  0.38329617  0.13186319  0.12339848  1
  O  O307  1  0.38186479  0.13171808  0.63192593  1
  O  O308  1  0.37698347  0.62227557  0.13875034  1
  O  O309  1  0.37527097  0.63578937  0.62598134  1
  O  O310  1  0.88048727  0.13063261  0.12962837  1
  O  O311  1  0.87646364  0.13117490  0.63503745  1
  O  O312  1  0.88076576  0.63095237  0.12903124  1
  O  O313  1  0.87662989  0.63587937  0.63222787  1
  O  O314  1  0.25355309  0.25142197  0.11762933  1
  O  O315  1  0.25535653  0.25565829  0.61994352  1
  O  O316  1  0.25084925  0.75212665  0.11567112  1
  O  O317  1  0.25744189  0.75382540  0.61666452  1
  O  O318  1  0.75590103  0.25530619  0.11882927  1
  O  O319  1  0.75491267  0.25627703  0.62047504  1
  O  O320  1  0.75795720  0.75772865  0.12144272  1
  O  O321  1  0.76237130  0.74791381  0.61597284  1
  O  O322  1  0.24315029  0.24228745  0.38166106  1
  O  O323  1  0.24764577  0.24552744  0.88293536  1
  O  O324  1  0.24223737  0.74956775  0.38643237  1
  O  O325  1  0.24448440  0.74339644  0.88108819  1
  O  O326  1  0.74395376  0.25186346  0.38150684  1
  O  O327  1  0.75466046  0.23740869  0.88155335  1
  O  O328  1  0.75444674  0.74816076  0.38972254  1
  O  O329  1  0.74793344  0.74051858  0.87930487  1
  O  O330  1  0.00298204  0.12329195  0.00730269  1
  O  O331  1  0.01307499  0.12568132  0.50019250  1
  O  O332  1  0.00493725  0.62033670  0.00484737  1
  O  O333  1  -0.00116894  0.61404587  0.50194995  1
  O  O334  1  0.50607820  0.11969959  0.00019351  1
  O  O335  1  0.49831576  0.12121597  0.50675498  1
  O  O336  1  0.50906192  0.61764830  0.00016559  1
  O  O337  1  0.50695942  0.61918158  0.50106365  1
  O  O338  1  0.49378095  0.37962542  0.49484767  1
  O  O339  1  0.50145381  0.37871297  0.99052252  1
  O  O340  1  0.49141288  0.88495445  0.49307131  1
  O  O341  1  0.49578469  0.88188570  0.99447024  1
  O  O342  1  0.99483174  0.38356662  0.49681528  1
  O  O343  1  0.99456638  0.38039559  0.99518912  1
  O  O344  1  0.98671446  0.87544966  0.49387059  1
  O  O345  1  0.99266171  0.87372282  0.99081338  1
  O  O346  1  0.49313436  0.49226075  0.38058150  1
  O  O347  1  0.49479147  0.49040805  0.87957092  1
  O  O348  1  0.50045355  1.00457595  0.38536921  1
  O  O349  1  0.50709890  0.99209800  0.88740189  1
  O  O350  1  0.99919830  0.49475115  0.38580639  1
  O  O351  1  0.99502098  0.49455561  0.88129945  1
  O  O352  1  0.99256013  0.99385248  0.37688689  1
  O  O353  1  0.99944668  0.98769845  0.87617710  1
  O  O354  1  0.00978932  0.00697296  0.12634103  1
  O  O355  1  0.01267450  0.00526852  0.62180838  1
  O  O356  1  0.00460328  0.50547934  0.11928815  1
  O  O357  1  0.00543021  0.49987576  0.61639331  1
  O  O358  1  0.50750952  0.00544224  0.11193125  1
  O  O359  1  0.49735996  0.01599204  0.61084640  1
  O  O360  1  0.50662586  0.49912804  0.11798385  1
  O  O361  1  0.50639948  0.49809233  0.61758282  1
  O  O362  1  0.24836391  0.38008019  0.24378321  1
  O  O363  1  0.24606854  0.37909863  0.74551855  1
  O  O364  1  0.24081025  0.87350833  0.24794447  1
  O  O365  1  0.23634189  0.86992091  0.75225928  1
  O  O366  1  0.74449101  0.37966280  0.24333141  1
  O  O367  1  0.74558981  0.37907701  0.74601731  1
  O  O368  1  0.74406152  0.87910241  0.24371740  1
  O  O369  1  0.75239155  0.89277548  0.75742516  1
  O  O370  1  0.24911959  0.12588569  0.26693925  1
  O  O371  1  0.26336811  0.12894034  0.75822491  1
  O  O372  1  0.25898604  0.61879560  0.25185448  1
  O  O373  1  0.24984062  0.61743723  0.75814540  1
  O  O374  1  0.75681874  0.11830924  0.24838537  1
  O  O375  1  0.75721408  0.12083458  0.75675277  1
  O  O376  1  0.75450573  0.61974424  0.24892594  1
  O  O377  1  0.75580012  0.61781361  0.75513321  1
  O  O378  1  0.35852014  0.13033056  0.37814213  1
  O  O379  1  0.36823766  0.12603535  0.86296462  1
  O  O380  1  0.37366869  0.61766208  0.36442271  1
  O  O381  1  0.36771944  0.61739587  0.87483010  1
  O  O382  1  0.87402996  0.11950337  0.36774121  1
  O  O383  1  0.86729121  0.12396145  0.86742453  1
  O  O384  1  0.87165851  0.62320263  0.36521196  1
  O  O385  1  0.87047431  0.61934787  0.87055477  1
  O  O386  1  0.13095693  0.38168339  0.12659697  1
  O  O387  1  0.13136965  0.38011188  0.63067069  1
  O  O388  1  0.12399898  0.88368138  0.13191619  1
  O  O389  1  0.12476150  0.88262274  0.63456640  1
  O  O390  1  0.63065548  0.37927145  0.12982205  1
  O  O391  1  0.63096356  0.37987018  0.63095024  1
  O  O392  1  0.63117658  0.88057413  0.13041101  1
  O  O393  1  0.58854484  0.88998507  0.64159737  1
  O  O394  1  0.11683060  0.25157531  0.25645636  1
  O  O395  1  0.12569709  0.25651304  0.75587976  1
  O  O396  1  0.11833866  0.75497879  0.25619006  1
  O  O397  1  0.11910707  0.75836363  0.75475008  1
  O  O398  1  0.61993266  0.25668903  0.25338406  1
  O  O399  1  0.61096042  0.25460706  0.74345471  1
  O  O400  1  0.61717589  0.75959351  0.24245167  1
  O  O401  1  0.62306621  0.75099563  0.75174077  1
  O  O402  1  0.38248594  0.24385956  0.24435762  1
  O  O403  1  0.38855258  0.24691729  0.74336389  1
  O  O404  1  0.38059782  0.73985994  0.24903498  1
  O  O405  1  0.37497213  0.75021977  0.73770768  1
  O  O406  1  0.87950997  0.24575493  0.24385762  1
  O  O407  1  0.87461286  0.24061370  0.74500693  1
  O  O408  1  0.88028259  0.74626544  0.24420139  1
  O  O409  1  0.87752293  0.74754209  0.74301140  1
  O  O410  1  0.37871954  0.49480219  0.49531598  1
  O  O411  1  0.38164436  0.49673045  0.99382250  1
  O  O412  1  0.38185459  0.99030252  0.50581102  1
  O  O413  1  0.38681788  0.99191757  1.00509188  1
  O  O414  1  0.88352700  0.49536645  0.50232051  1
  O  O415  1  0.88016933  0.49469318  0.99522861  1
  O  O416  1  0.87403824  0.99272828  0.49607544  1
  O  O417  1  0.87851124  0.98761467  0.99864276  1
  O  O418  1  0.12142504  0.00052711  0.01261707  1
  O  O419  1  0.12219056  0.00850423  0.50776471  1
  O  O420  1  0.11944949  0.50556331  0.00545114  1
  O  O421  1  0.11521672  0.50017437  0.50647834  1
  O  O422  1  0.61896097  0.00989675  0.00367596  1
  O  O423  1  0.61400193  0.00258896  0.49980840  1
  O  O424  1  0.62043048  0.50717266  0.00495326  1
  O  O425  1  0.61967853  0.50615522  0.50495760  1
  O  O426  1  0.36784030  0.36599775  0.12318280  1
  O  O427  1  0.36944879  0.37053663  0.62011166  1
  O  O428  1  0.37414791  0.87186287  0.10950030  1
  O  O429  1  0.37576475  0.86591193  0.61373892  1
  O  O430  1  0.86970785  0.36983463  0.11883697  1
  O  O431  1  0.86880452  0.37006914  0.62148796  1
  O  O432  1  0.87196580  0.87136285  0.11774470  1
  O  O433  1  0.88077102  0.86776324  0.61552975  1
  O  O434  1  0.13170025  0.13008867  0.38371581  1
  O  O435  1  0.13619054  0.13168534  0.87384198  1
  O  O436  1  0.12589646  0.63498662  0.37989900  1
  O  O437  1  0.12952096  0.62993439  0.88095077  1
  O  O438  1  0.62911245  0.13551835  0.37527714  1
  O  O439  1  0.63406546  0.12116753  0.88541566  1
  O  O440  1  0.62533786  0.62015865  0.39027972  1
  O  O441  1  0.63123576  0.62094092  0.88551007  1
